@<TRIPOS>MOLECULE
EBN
   87    82     1     0     0
SMALL
bcc


@<TRIPOS>ATOM
      1 CBE         4.6140   -0.1620    2.5440 c1        1 EBN      0.310000
      2 OBF         5.6220   -0.0230    1.8840 o         1 EBN     -0.369000
      3 CBG         4.6400    0.1170    4.0690 c3        1 EBN     -0.147000
      4 CBH         6.0370   -0.2330    4.6370 c2        1 EBN     -0.077000
      5 CBI         6.1520   -1.1770    5.6540 c1        1 EBN     -0.127000
      6 CBJ         7.3720   -1.3740    6.2850 c1        1 EBN     -0.113000
      7 CBK         8.4820   -0.6280    5.9010 c1        1 EBN     -0.059000
      8 CLL        10.0310   -0.9050    6.6700 cl        1 EBN      0.018000
      9 CBM         8.3680    0.3150    4.8850 c2        1 EBN     -0.060000
     10 CLN         9.7980    1.1340    4.2920 cl        1 EBN      0.017000
     11 CBO         7.1450    0.5120    4.2540 c2        1 EBN     -0.106000
     12 NBD         3.3790   -0.5470    1.9040 n2        1 EBN     -0.366000
     13 CAX         3.0720   -0.0630    0.5890 c3        1 EBN      0.014500
     14 CAV         1.5760   -0.1070    0.3730 c1        1 EBN      0.275000
     15 OAW         0.9620   -1.1230    0.6060 o         1 EBN     -0.380500
     16 CAY         3.7540   -0.9350   -0.4400 c3        1 EBN     -0.166000
     17 CAZ         5.0350   -0.2120   -0.9720 c3        1 EBN     -0.158500
     18 CBA         5.1320   -0.3930   -2.5160 c3        1 EBN     -0.160500
     19 CBB         6.6380   -0.3950   -2.9490 c3        1 EBN     -0.077500
     20 NBC         6.7440    0.0360   -4.3170 n3        1 EBN     -0.349500
     21 N           0.8720    1.0710   -0.1150 n2        1 EBN     -0.366000
     22 CA         -0.5040    1.3000    0.2690 c3        1 EBN      0.014500
     23 C          -1.4150    1.1170   -0.9470 c1        1 EBN      0.275000
     24 O          -1.2690    1.8200   -1.9270 o         1 EBN     -0.380500
     25 CB         -0.6500    2.6830    0.7920 c3        1 EBN     -0.166000
     26 CG         -1.2540    2.6370    2.2130 c3        1 EBN     -0.158500
     27 CD         -1.8720    4.0160    2.5550 c3        1 EBN     -0.160500
     28 CE         -2.7160    3.8970    3.8380 c3        1 EBN     -0.077500
     29 NZ         -3.5470    5.0750    3.9840 n3        1 EBN     -0.349500
     30 CAA        -5.1980   -1.9820   -4.1480 c3        1 EBN     -0.175000
     31 CAB        -6.5860   -2.1400   -3.5720 c3        1 EBN      0.001000
     32 NAC        -7.1760   -3.3400   -4.1100 n3        1 EBN     -0.321000
     33 CAD        -8.4670   -3.2750   -4.7760 c2        1 EBN      0.154000
     34 NAE        -9.6320   -2.8960   -4.0420 n3        1 EBN     -0.316000
     35 NAF        -8.5630   -3.5670   -6.0590 n1        1 EBN     -0.351000
     36 CAG        -6.5790   -2.2310   -2.0430 c3        1 EBN     -0.175000
     37 CAH        -5.8110   -1.0900   -1.3990 c3        1 EBN     -0.154500
     38 CAI        -4.4210   -0.9320   -1.9760 c3        1 EBN     -0.135000
     39 CAJ        -4.4290   -0.8440   -3.5060 c3        1 EBN     -0.154500
     40 CAK        -3.7900    0.3480   -1.4070 c3        1 EBN     -0.032000
     41 NAL        -2.4270    0.0600   -0.9490 n2        1 EBN     -0.362000
     42 HBG         3.9680   -0.4270    4.5090 hc        1 EBN      0.129000
     43 HBGA        4.4500    1.0660    4.2300 hc        1 EBN      0.129000
     44 HBI         5.3750   -1.7000    5.9240 ha        1 EBN      0.145000
     45 HBJ         7.4520   -2.0380    7.0010 ha        1 EBN      0.156000
     46 HBO         7.0650    1.1780    3.5360 ha        1 EBN      0.158000
     47 HNBD        2.8290   -1.1560    2.3050 hn        1 EBN      0.242000
     48 HAX         3.3880    0.8590    0.4980 h1        1 EBN      0.133000
     49 HAY         4.0050   -1.7820   -0.0300 hc        1 EBN      0.101000
     50 HAYA        3.1370   -1.1020   -1.1870 hc        1 EBN      0.101000
     51 HAZ         5.8240   -0.5980   -0.5500 hc        1 EBN      0.088750
     52 HAZA        4.9830    0.7410   -0.7580 hc        1 EBN      0.088750
     53 HBAA        4.7160   -1.2450   -2.7730 hc        1 EBN      0.087500
     54 HBAB        4.6630    0.3500   -2.9630 hc        1 EBN      0.087500
     55 HBB         7.0030   -1.3040   -2.8630 h1        1 EBN      0.065500
     56 HBBA        7.1410    0.2120   -2.3780 h1        1 EBN      0.065500
     57 HNBC        7.4140    0.6460   -4.3910 hn        1 EBN      0.144500
     58 HNBA        6.9300   -0.6970   -4.8600 hn        1 EBN      0.144500
     59 HN          1.2830    1.6380   -0.7000 hn        1 EBN      0.242000
     60 HA         -0.7590    0.6600    0.9670 h1        1 EBN      0.133000
     61 HB          0.2210    3.1110    0.8240 hc        1 EBN      0.101000
     62 HBA        -1.2390    3.1900    0.2060 hc        1 EBN      0.101000
     63 HG         -1.9510    1.9480    2.2500 hc        1 EBN      0.088750
     64 HGA        -0.5460    2.4220    2.8650 hc        1 EBN      0.088750
     65 HD         -2.4400    4.3100    1.8200 hc        1 EBN      0.087500
     66 HDA        -1.1490    4.6760    2.6970 hc        1 EBN      0.087500
     67 HE         -3.2790    3.1090    3.7820 h1        1 EBN      0.065500
     68 HEA        -2.1190    3.8190    4.6160 h1        1 EBN      0.065500
     69 HNZ        -3.2230    5.5960    4.6630 hn        1 EBN      0.144500
     70 HNZA       -4.4030    4.8220    4.1770 hn        1 EBN      0.144500
     71 HAA        -5.2720   -1.8110   -5.1080 hc        1 EBN      0.089250
     72 HAAA       -4.7030   -2.8120   -4.0120 hc        1 EBN      0.089250
     73 HAB        -7.1270   -1.3760   -3.8400 h1        1 EBN      0.101000
     74 HNAC       -6.6940   -4.1220   -4.1180 hn        1 EBN      0.184000
     75 HNAE       -9.5470   -2.5480   -3.1990 hn        1 EBN      0.188500
     76 HNAA      -10.4590   -2.9530   -4.4330 hn        1 EBN      0.188500
     77 HNAF       -7.8040   -3.8130   -6.5370 DU        1 EBN      0.148000
     78 HAG        -7.4930   -2.2110   -1.7240 hc        1 EBN      0.089250
     79 HAGA       -6.1680   -3.0800   -1.7770 hc        1 EBN      0.089250
     80 HAH        -6.3070   -0.2590   -1.5360 hc        1 EBN      0.087250
     81 HAHA       -5.7390   -1.2610   -0.4400 hc        1 EBN      0.087250
     82 HAI        -3.8820   -1.6930   -1.7080 hc        1 EBN      0.094000
     83 HAJ        -3.5190   -0.8640   -3.8250 hc        1 EBN      0.087250
     84 HAJA       -4.8390    0.0080   -3.7730 hc        1 EBN      0.087250
     85 HAK        -3.7610    1.0330   -2.1020 h1        1 EBN      0.103500
     86 HAKA       -4.3330    0.6740   -0.6450 h1        1 EBN      0.103500
     87 HNAL       -2.2100   -0.7760   -0.6680 hn        1 EBN      0.241000
@<TRIPOS>BOND
     1    1    2 1   
     2    1    3 1   
     3    3    4 1   
     4    3   42 1   
     5    3   43 1   
     6    4    5 1   
     7    4   11 1   
     8    5   44 1   
     9    6    7 1   
    10    6   45 1   
    11    7    9 1   
    12    9   10 1   
    13    9   11 1   
    14   11   46 1   
    15   12   13 1   
    16   12   47 1   
    17   13   14 1   
    18   13   16 1   
    19   13   48 1   
    20   14   15 1   
    21   16   17 1   
    22   16   49 1   
    23   16   50 1   
    24   17   18 1   
    25   17   51 1   
    26   17   52 1   
    27   18   19 1   
    28   18   53 1   
    29   18   54 1   
    30   19   20 1   
    31   19   55 1   
    32   19   56 1   
    33   20   57 1   
    34   20   58 1   
    35   21   22 1   
    36   21   59 1   
    37   22   23 1   
    38   22   25 1   
    39   22   60 1   
    40   23   24 1   
    41   25   26 1   
    42   25   61 1   
    43   25   62 1   
    44   26   27 1   
    45   26   63 1   
    46   26   64 1   
    47   27   28 1   
    48   27   65 1   
    49   27   66 1   
    50   28   29 1   
    51   28   67 1   
    52   28   68 1   
    53   29   69 1   
    54   29   70 1   
    55   30   31 1   
    56   30   39 1   
    57   30   71 1   
    58   30   72 1   
    59   31   32 1   
    60   31   36 1   
    61   31   73 1   
    62   32   33 1   
    63   32   74 1   
    64   33   34 1   
    65   33   35 1   
    66   34   75 1   
    67   34   76 1   
    68   36   37 1   
    69   36   78 1   
    70   36   79 1   
    71   37   38 1   
    72   37   80 1   
    73   37   81 1   
    74   38   39 1   
    75   38   40 1   
    76   38   82 1   
    77   39   83 1   
    78   39   84 1   
    79   40   41 1   
    80   40   85 1   
    81   40   86 1   
    82   41   87 1   
@<TRIPOS>SUBSTRUCTURE
     1 EBN         1 TEMP              0 ****  ****    0 ROOT
