@<TRIPOS>MOLECULE
EBN
   87    88     1     0     0
SMALL
bcc


@<TRIPOS>ATOM
      1 CBE         4.1370    0.7630   -0.1980 c         1 EBN      0.663100
      2 OBF         4.1020    1.2500   -1.3450 o         1 EBN     -0.607100
      3 CBG         5.2290    1.1750    0.7780 c3        1 EBN     -0.112100
      4 CBH         5.7070    0.0830    1.6640 ca        1 EBN     -0.081300
      5 CBI         5.0880   -0.1510    2.8980 ca        1 EBN     -0.126000
      6 CBJ         5.5490   -1.1610    3.7370 ca        1 EBN     -0.113000
      7 CBK         6.6380   -1.9520    3.3540 ca        1 EBN      0.019400
      8 CLL         7.1780   -3.1740    4.3960 cl        1 EBN     -0.063400
      9 CBM         7.2630   -1.7210    2.1190 ca        1 EBN      0.019400
     10 CLN         8.5860   -2.6560    1.6180 cl        1 EBN     -0.063400
     11 CBO         6.7950   -0.7050    1.2790 ca        1 EBN     -0.106000
     12 NBD         3.2060   -0.1660    0.2250 n         1 EBN     -0.546900
     13 CAX         2.0170   -0.4580   -0.5300 c3        1 EBN      0.038700
     14 CAV         0.7600    0.1470    0.1520 c         1 EBN      0.633100
     15 OAW         0.6940    0.2900    1.3900 o         1 EBN     -0.619100
     16 CAY         1.7420   -1.9640   -0.6810 c3        1 EBN     -0.088400
     17 CAZ         2.7980   -2.6460   -1.5220 c3        1 EBN     -0.078400
     18 CBA         2.4280   -4.0920   -1.7770 c3        1 EBN     -0.084400
     19 CBB         3.5100   -4.7720   -2.6150 c3        1 EBN      0.158800
     20 NBC         3.2460   -6.1690   -2.8640 n3        1 EBN     -0.916800
     21 N          -0.2650    0.5460   -0.6840 n         1 EBN     -0.539900
     22 CA         -1.5580    0.9290   -0.1750 c3        1 EBN      0.030700
     23 C          -2.6170   -0.1710   -0.4630 c         1 EBN      0.630100
     24 O          -2.5550   -0.8670   -1.4960 o         1 EBN     -0.617100
     25 CB         -2.0990    2.2230   -0.8040 c3        1 EBN     -0.083400
     26 CG         -1.2510    3.4240   -0.4480 c3        1 EBN     -0.079400
     27 CD         -1.8990    4.7020   -0.9350 c3        1 EBN     -0.082400
     28 CE         -1.0040    5.8990   -0.6150 c3        1 EBN      0.159800
     29 NZ         -1.5490    7.1550   -1.0710 n3        1 EBN     -0.916800
     30 CAA        -7.9040    0.7700    1.1320 c3        1 EBN     -0.092400
     31 CAB        -8.9230   -0.3430    0.8170 c3        1 EBN      0.196500
     32 NAC       -10.2650    0.2200    0.7510 nh        1 EBN     -0.792200
     33 CAD       -11.3920   -0.6720    0.8210 c2        1 EBN      0.749100
     34 NAE       -12.6600   -0.0490    0.5530 nh        1 EBN     -0.935800
     35 NAF       -11.2360   -1.9430    1.1020 n2        1 EBN     -0.875100
     36 CAG        -8.4700   -1.0690   -0.4610 c3        1 EBN     -0.092400
     37 CAH        -7.0870   -1.6530   -0.2810 c3        1 EBN     -0.071400
     38 CAI        -6.0700   -0.5790    0.0790 c3        1 EBN     -0.092700
     39 CAJ        -6.5220    0.1790    1.3160 c3        1 EBN     -0.071400
     40 CAK        -4.7050   -1.2510    0.2980 c3        1 EBN      0.087000
     41 NAL        -3.6050   -0.3450    0.4790 n         1 EBN     -0.558900
     42 HBG         6.0810    1.5810    0.1670 hc        1 EBN      0.087700
     43 HBGA        4.8190    2.0220    1.3930 hc        1 EBN      0.087700
     44 HBI         4.2340    0.4690    3.2130 ha        1 EBN      0.147000
     45 HBJ         5.0560   -1.3390    4.7070 ha        1 EBN      0.155000
     46 HBO         7.2880   -0.5250    0.3100 ha        1 EBN      0.157000
     47 HNBD        3.1960   -0.4370    1.1830 hn        1 EBN      0.325500
     48 HAX         2.1460   -0.0070   -1.5620 h1        1 EBN      0.106700
     49 HAY         1.6860   -2.4480    0.3290 hc        1 EBN      0.059200
     50 HAYA        0.7390   -2.0850   -1.1700 hc        1 EBN      0.059200
     51 HAZ         2.9110   -2.1060   -2.5000 hc        1 EBN      0.049700
     52 HAZA        3.7910   -2.6000   -1.0020 hc        1 EBN      0.049700
     53 HBAA        2.3080   -4.6310   -0.8010 hc        1 EBN      0.048200
     54 HBAB        1.4420   -4.1420   -2.3100 hc        1 EBN      0.048200
     55 HBB         3.6340   -4.1780   -3.5710 h1        1 EBN      0.025700
     56 HBBA        4.4900   -4.7100   -2.0610 h1        1 EBN      0.025700
     57 HNBC        2.3260   -6.3030   -3.2340 hn        1 EBN      0.348300
     58 HNBA        3.9170   -6.5390   -3.5080 hn        1 EBN      0.348300
     59 HN         -0.2440    0.2620   -1.6380 hn        1 EBN      0.326500
     60 HA         -1.4540    1.0840    0.9420 h1        1 EBN      0.099700
     61 HB         -2.1570    2.1120   -1.9190 hc        1 EBN      0.054700
     62 HBA        -3.1450    2.3760   -0.4250 hc        1 EBN      0.054700
     63 HG         -1.1080    3.4710    0.6640 hc        1 EBN      0.050700
     64 HGA        -0.2330    3.3210   -0.9080 hc        1 EBN      0.050700
     65 HD         -2.0720    4.6430   -2.0420 hc        1 EBN      0.046700
     66 HDA        -2.9000    4.8290   -0.4460 hc        1 EBN      0.046700
     67 HE         -0.8010    5.8940    0.4980 h1        1 EBN      0.025700
     68 HEA        -0.0110    5.7570   -1.1310 h1        1 EBN      0.025700
     69 HNZ        -2.4780    7.2940   -0.7260 hn        1 EBN      0.348300
     70 HNZA       -0.9700    7.9140   -0.7730 hn        1 EBN      0.348300
     71 HAA        -7.8850    1.5190    0.2980 hc        1 EBN      0.048950
     72 HAAA       -8.2040    1.3080    2.0680 hc        1 EBN      0.048950
     73 HAB        -8.8970   -1.0830    1.6720 h1        1 EBN      0.088700
     74 HNAC      -10.3480    0.8610   -0.0160 hn        1 EBN      0.387800
     75 HNAE      -12.6740    0.9440    0.6390 hn        1 EBN      0.389300
     76 HNAA      -13.4180   -0.4710    1.0450 hn        1 EBN      0.389300
     77 HNAF      -12.0780   -2.4610    1.2270 hn        1 EBN      0.390400
     78 HAG        -9.1880   -1.8950   -0.7050 hc        1 EBN      0.048950
     79 HAGA       -8.4670   -0.3520   -1.3230 hc        1 EBN      0.048950
     80 HAH        -7.1110   -2.4320    0.5270 hc        1 EBN      0.044200
     81 HAHA       -6.7730   -2.1610   -1.2300 hc        1 EBN      0.044200
     82 HAI        -5.9950    0.1430   -0.7810 hc        1 EBN      0.057700
     83 HAJ        -5.8040    1.0110    1.5400 hc        1 EBN      0.044200
     84 HAJA       -6.5230   -0.5130    2.1990 hc        1 EBN      0.044200
     85 HAK        -4.7710   -1.9040    1.2160 h1        1 EBN      0.065700
     86 HAKA       -4.4830   -1.9120   -0.5900 h1        1 EBN      0.065700
     87 HNAL       -3.6610    0.2890    1.2400 hn        1 EBN      0.310500
@<TRIPOS>BOND
     1    1    2 2   
     2    1    3 1   
     3    1   12 1   
     4    3    4 1   
     5    3   42 1   
     6    3   43 1   
     7    4    5 ar  
     8    4   11 ar  
     9    5    6 ar  
    10    5   44 1   
    11    6    7 ar  
    12    6   45 1   
    13    7    8 1   
    14    7    9 ar  
    15    9   10 1   
    16    9   11 ar  
    17   11   46 1   
    18   12   13 1   
    19   12   47 1   
    20   13   14 1   
    21   13   16 1   
    22   13   48 1   
    23   14   15 2   
    24   14   21 1   
    25   16   17 1   
    26   16   49 1   
    27   16   50 1   
    28   17   18 1   
    29   17   51 1   
    30   17   52 1   
    31   18   19 1   
    32   18   53 1   
    33   18   54 1   
    34   19   20 1   
    35   19   55 1   
    36   19   56 1   
    37   20   57 1   
    38   20   58 1   
    39   21   22 1   
    40   21   59 1   
    41   22   23 1   
    42   22   25 1   
    43   22   60 1   
    44   23   24 2   
    45   23   41 1   
    46   25   26 1   
    47   25   61 1   
    48   25   62 1   
    49   26   27 1   
    50   26   63 1   
    51   26   64 1   
    52   27   28 1   
    53   27   65 1   
    54   27   66 1   
    55   28   29 1   
    56   28   67 1   
    57   28   68 1   
    58   29   69 1   
    59   29   70 1   
    60   30   31 1   
    61   30   39 1   
    62   30   71 1   
    63   30   72 1   
    64   31   32 1   
    65   31   36 1   
    66   31   73 1   
    67   32   33 1   
    68   32   74 1   
    69   33   34 1   
    70   33   35 2   
    71   34   75 1   
    72   34   76 1   
    73   35   77 1   
    74   36   37 1   
    75   36   78 1   
    76   36   79 1   
    77   37   38 1   
    78   37   80 1   
    79   37   81 1   
    80   38   39 1   
    81   38   40 1   
    82   38   82 1   
    83   39   83 1   
    84   39   84 1   
    85   40   41 1   
    86   40   85 1   
    87   40   86 1   
    88   41   87 1   
@<TRIPOS>SUBSTRUCTURE
     1 EBN         1 TEMP              0 ****  ****    0 ROOT
