@<TRIPOS>MOLECULE
EBN
   94    95     1     0     0
SMALL
bcc


@<TRIPOS>ATOM
      1 CBE         0.0000    0.0000    0.0000 c         1 EBN      0.328100
      2 OBF         1.2120    0.0000    0.0000 o         1 EBN     -0.416100
      3 CBG        -0.7540    0.0000    1.3050 c3        1 EBN     -0.006100
      4 CBH         0.2260   -0.0060    2.4500 ca        1 EBN     -0.090300
      5 CBI         0.6740   -1.2060    2.9690 ca        1 EBN     -0.056000
      6 CBJ         1.5720   -1.2140    4.0200 ca        1 EBN     -0.047000
      7 CBK         2.0240   -0.0200    4.5530 ca        1 EBN     -0.086600
      8 ClL         3.1520   -0.0280    5.8720 cl        1 EBN      0.406600
      9 CBM         1.5750    1.1830    4.0330 ca        1 EBN     -0.084600
     10 ClN         2.1390    2.6830    4.7000 cl        1 EBN      0.267600
     11 CBO         0.6800    1.1880    2.9780 ca        1 EBN     -0.095000
     12 NBD        -0.6740    0.0050   -1.1670 ny        1 EBN      0.135200
     13 CAX         0.0580    0.0040   -2.4360 c3        1 EBN     -0.078500
     14 CAV        -0.8030    0.6120   -3.5140 c         1 EBN      0.163100
     15 OAW        -1.9190    1.0040   -3.2480 o         1 EBN     -0.518100
     16 CAY         0.4160   -1.4330   -2.8180 c3        1 EBN     -0.046400
     17 CAZ         1.3910   -2.0070   -1.7870 c3        1 EBN     -0.032400
     18 CBA         1.7490   -3.4440   -2.1700 c3        1 EBN     -0.029400
     19 CBB         2.7230   -4.0180   -1.1400 c3        1 EBN     -0.039200
     20 NBC         3.0670   -5.3990   -1.5060 nz        1 EBN      0.097400
     21 N          -0.3340    0.7160   -4.7730 ny        1 EBN      0.224200
     22 CA         -1.1710    1.3050   -5.8210 c3        1 EBN     -0.118500
     23 C          -0.7370    0.7810   -7.1650 c         1 EBN      0.318100
     24 O           0.1810   -0.0070   -7.2400 o         1 EBN     -0.394100
     25 CB         -1.0240    2.8280   -5.7950 c3        1 EBN     -0.036400
     26 CG         -1.5800    3.3720   -4.4780 c3        1 EBN     -0.026400
     27 CD         -1.4320    4.8950   -4.4520 c3        1 EBN     -0.032400
     28 CE         -1.9880    5.4400   -3.1350 c3        1 EBN     -0.036200
     29 NZ         -1.8460    6.9010   -3.1110 nz        1 EBN      0.098400
     30 CAA        -4.1410    1.4340  -11.6050 c3        1 EBN     -0.018400
     31 CAB        -3.6220    0.9990  -12.9770 c3        1 EBN     -0.075500
     32 NAC        -4.4590    1.5890  -14.0250 ny        1 EBN      0.082000
     33 CAD        -4.5470    0.9850  -15.2570 c2        1 EBN     -0.034900
     34 NAE        -5.3330    1.5380  -16.2390 nz        1 EBN      0.194400
     35 NAF        -3.8860   -0.1140  -15.4920 n2        1 EBN     -0.211100
     36 CAG        -2.1780    1.4760  -13.1510 c3        1 EBN     -0.018400
     37 CAH        -1.3040    0.8600  -12.0570 c3        1 EBN     -0.006900
     38 CAI        -1.8220    1.2940  -10.6840 c3        1 EBN     -0.077700
     39 CAJ        -3.2670    0.8190  -10.5110 c3        1 EBN     -0.006900
     40 CAK        -0.9480    0.6780   -9.5900 c3        1 EBN     -0.010200
     41 NAL        -1.3700    1.1880   -8.2830 ny        1 EBN      0.164200
     42 HBG        -1.3800   -0.8820    1.3600 hc        1 EBN      0.073200
     43 HBGA       -1.3730    0.8870    1.3640 hc        1 EBN      0.073200
     44 HBI         0.2870   -2.1410    2.5810 ha        1 EBN      0.109000
     45 HBJ         1.9140   -2.1550    4.4330 ha        1 EBN      0.151000
     46 HBO         0.4050    2.2250    2.8210 ha        1 EBN      0.135000
     47 HNBD       -1.2590   -0.8070   -1.1690 hn        1 EBN      0.284800
     48 HAX         0.9660    0.5860   -2.3290 hx        1 EBN      0.118700
     49 HAY         0.8780   -1.4420   -3.7970 hc        1 EBN      0.048700
     50 HAYA       -0.4840   -2.0360   -2.8380 hc        1 EBN      0.048700
     51 HAZ         2.2910   -1.4040   -1.7670 hc        1 EBN      0.045200
     52 HAZA        0.9290   -1.9980   -0.8080 hc        1 EBN      0.045200
     53 HBAA        0.8490   -4.0470   -2.1900 hc        1 EBN      0.042700
     54 HBAB        2.2120   -3.4530   -3.1490 hc        1 EBN      0.042700
     55 HBB         2.2600   -4.0090   -0.1600 hx        1 EBN      0.090700
     56 HBBA        3.6230   -3.4150   -1.1190 hx        1 EBN      0.090700
     57 HNBC        3.6770   -5.7850   -0.8140 hn        1 EBN      0.239467
     58 HNBA        2.2320   -5.9480   -1.5590 hn        1 EBN      0.239467
     59 HN          0.5040    1.2620   -4.7270 hn        1 EBN      0.252300
     60 HA         -2.2070    1.0400   -5.6470 hx        1 EBN      0.133700
     61 HB          0.0230    3.0910   -5.8810 hc        1 EBN      0.053200
     62 HBA        -1.5730    3.2580   -6.6240 hc        1 EBN      0.053200
     63 HG         -2.6270    3.1090   -4.3920 hc        1 EBN      0.040700
     64 HGA        -1.0300    2.9420   -3.6490 hc        1 EBN      0.040700
     65 HD         -0.3840    5.1580   -4.5380 hc        1 EBN      0.047700
     66 HDA        -1.9810    5.3250   -5.2810 hc        1 EBN      0.047700
     67 HE         -3.0350    5.1780   -3.0490 hx        1 EBN      0.083700
     68 HEA        -1.4390    5.0110   -2.3060 hx        1 EBN      0.083700
     69 HNZ        -2.1810    7.2550   -2.2370 hn        1 EBN      0.242133
     70 HNZA       -0.8820    7.1450   -3.2220 hn        1 EBN      0.242133
     71 HAA        -4.1030    2.5140  -11.5310 hc        1 EBN      0.057950
     72 HAAA       -5.1630    1.0940  -11.4830 hc        1 EBN      0.057950
     73 HAB        -3.6550   -0.0810  -13.0480 hx        1 EBN      0.098700
     74 HNAC       -5.3900    1.6410  -13.6600 hn        1 EBN      0.262800
     75 HNAE       -6.2900    1.5320  -15.9440 hn        1 EBN      0.261467
     76 HNAA       -5.2410    1.0040  -17.0800 hn        1 EBN      0.261467
     77 HNAF       -3.3130   -0.5180  -14.7770 hn        1 EBN      0.378400
     78 HAG        -1.8110    1.1660  -14.1220 hc        1 EBN      0.057950
     79 HAGA       -2.1440    2.5560  -13.0740 hc        1 EBN      0.057950
     80 HAH        -1.3420   -0.2200  -12.1310 hc        1 EBN      0.049700
     81 HAHA       -0.2820    1.2000  -12.1790 hc        1 EBN      0.049700
     82 HAI        -1.7900    2.3740  -10.6140 hc        1 EBN      0.055700
     83 HAJ        -3.3020   -0.2610  -10.5870 hc        1 EBN      0.049700
     84 HAJA       -3.6340    1.1290   -9.5400 hc        1 EBN      0.049700
     85 HAK         0.0880    0.9440   -9.7640 hx        1 EBN      0.110200
     86 HAKA       -1.0520   -0.4000   -9.6080 hx        1 EBN      0.110200
     87 HNAL       -2.3360    0.9490   -8.1750 hn        1 EBN      0.269300
     88 HBD2       -1.2530    0.8210   -1.1660 hn        1 EBN      0.284800
     89 HBC3        3.5260   -5.4030   -2.3960 hn        1 EBN      0.239467
     90 H2         -0.1000   -0.2100   -5.0740 hn        1 EBN      0.252300
     91 HZ3        -2.3790    7.3010   -3.8580 hn        1 EBN      0.242133
     92 HAC2       -4.1210    2.5180  -14.1800 hn        1 EBN      0.262800
     93 HAE3       -5.0430    2.4810  -16.4070 hn        1 EBN      0.261467
     94 HAL2       -1.2830    2.1850   -8.3200 hn        1 EBN      0.269300
@<TRIPOS>BOND
     1    1    2 2   
     2    1    3 1   
     3    1   12 1   
     4    3    4 1   
     5    3   42 1   
     6    3   43 1   
     7    4    5 ar  
     8    4   11 ar  
     9    5    6 ar  
    10    5   44 1   
    11    6    7 ar  
    12    6   45 1   
    13    7    8 1   
    14    7    9 ar  
    15    9   10 1   
    16    9   11 ar  
    17   11   46 1   
    18   12   13 1   
    19   12   47 1   
    20   12   88 1   
    21   13   14 1   
    22   13   16 1   
    23   13   48 1   
    24   14   15 2   
    25   14   21 1   
    26   16   17 1   
    27   16   49 1   
    28   16   50 1   
    29   17   18 1   
    30   17   51 1   
    31   17   52 1   
    32   18   19 1   
    33   18   53 1   
    34   18   54 1   
    35   19   20 1   
    36   19   55 1   
    37   19   56 1   
    38   20   57 1   
    39   20   58 1   
    40   20   89 1   
    41   21   22 1   
    42   21   59 1   
    43   21   90 1   
    44   22   23 1   
    45   22   25 1   
    46   22   60 1   
    47   23   24 2   
    48   23   41 1   
    49   25   26 1   
    50   25   61 1   
    51   25   62 1   
    52   26   27 1   
    53   26   63 1   
    54   26   64 1   
    55   27   28 1   
    56   27   65 1   
    57   27   66 1   
    58   28   29 1   
    59   28   67 1   
    60   28   68 1   
    61   29   69 1   
    62   29   70 1   
    63   29   91 1   
    64   30   31 1   
    65   30   39 1   
    66   30   71 1   
    67   30   72 1   
    68   31   32 1   
    69   31   36 1   
    70   31   73 1   
    71   32   33 1   
    72   32   74 1   
    73   32   92 1   
    74   33   34 1   
    75   33   35 2   
    76   34   75 1   
    77   34   76 1   
    78   34   93 1   
    79   35   77 1   
    80   36   37 1   
    81   36   78 1   
    82   36   79 1   
    83   37   38 1   
    84   37   80 1   
    85   37   81 1   
    86   38   39 1   
    87   38   40 1   
    88   38   82 1   
    89   39   83 1   
    90   39   84 1   
    91   40   41 1   
    92   40   85 1   
    93   40   86 1   
    94   41   87 1   
    95   41   94 1   
@<TRIPOS>SUBSTRUCTURE
     1 EBN         1 TEMP              0 ****  ****    0 ROOT
