@<TRIPOS>MOLECULE
EBN
   87    88     1     0     0
SMALL
bcc


@<TRIPOS>ATOM
      1 CBE         0.6620    1.2100    0.1060 c         1 EBN      0.663100
      2 OBF         1.5260    2.0700   -0.1580 o         1 EBN     -0.608100
      3 CBG        -0.0200    1.1980    1.4660 c3        1 EBN     -0.111100
      4 CBH        -0.3300   -0.1590    1.9860 ca        1 EBN     -0.082300
      5 CBI        -1.5530   -0.7710    1.6870 ca        1 EBN     -0.126000
      6 CBJ        -1.8520   -2.0330    2.1910 ca        1 EBN     -0.113000
      7 CBK        -0.9300   -2.7020    3.0040 ca        1 EBN      0.019400
      8 CLL        -1.3210   -4.2370    3.6060 cl        1 EBN     -0.062400
      9 CBM         0.2970   -2.0930    3.3090 ca        1 EBN      0.019400
     10 CLN         1.4400   -2.8680    4.2920 cl        1 EBN     -0.063400
     11 CBO         0.5930   -0.8240    2.7990 ca        1 EBN     -0.106000
     12 NBD         0.3000    0.2410   -0.8100 n         1 EBN     -0.546900
     13 CAX         0.7180    0.2940   -2.1870 c3        1 EBN      0.038700
     14 CAV        -0.4560    0.7170   -3.1110 c         1 EBN      0.633100
     15 OAW        -1.6390    0.4300   -2.8370 o         1 EBN     -0.618100
     16 CAY         1.2250   -1.0550   -2.7240 c3        1 EBN     -0.088400
     17 CAZ         2.5040   -1.4880   -2.0430 c3        1 EBN     -0.078400
     18 CBA         3.0580   -2.7390   -2.6910 c3        1 EBN     -0.084400
     19 CBB         4.3390   -3.1740   -1.9800 c3        1 EBN      0.159800
     20 NBC         4.9060   -4.3880   -2.5180 n3        1 EBN     -0.916800
     21 N          -0.1250    1.4520   -4.2320 n         1 EBN     -0.541900
     22 CA         -1.0870    1.7460   -5.2640 c3        1 EBN      0.031700
     23 C          -0.8080    0.9030   -6.5400 c         1 EBN      0.631100
     24 O           0.3590    0.6220   -6.8800 o         1 EBN     -0.617100
     25 CB         -1.0700    3.2180   -5.7090 c3        1 EBN     -0.084400
     26 CG         -1.5310    4.1460   -4.6080 c3        1 EBN     -0.080400
     27 CD         -1.6270    5.5700   -5.1120 c3        1 EBN     -0.083400
     28 CE         -2.0890    6.4960   -3.9870 c3        1 EBN      0.158800
     29 NZ         -2.2630    7.8650   -4.4100 n3        1 EBN     -0.916800
     30 CAA        -4.2000    1.5580  -10.9630 c3        1 EBN     -0.095400
     31 CAB        -3.8640    0.7170  -12.2080 c3        1 EBN      0.189500
     32 NAC        -4.4160    1.3320  -13.4040 nh        1 EBN     -0.831200
     33 CAD        -4.2900    0.6140  -14.6480 c2        1 EBN      0.742100
     34 NAE        -4.1960    1.4530  -15.8140 nh        1 EBN     -0.883800
     35 NAF        -4.2870   -0.6850  -14.8030 n2        1 EBN     -0.874100
     36 CAG        -2.3430    0.4870  -12.2430 c3        1 EBN     -0.095400
     37 CAH        -1.8800   -0.2180  -10.9880 c3        1 EBN     -0.072900
     38 CAI        -2.2430    0.5740   -9.7400 c3        1 EBN     -0.092700
     39 CAJ        -3.7370    0.8500   -9.7070 c3        1 EBN     -0.072900
     40 CAK        -1.7920   -0.2240   -8.5050 c3        1 EBN      0.088000
     41 NAL        -1.9030    0.4790   -7.2580 n         1 EBN     -0.559900
     42 HBG         0.6580    1.7420    2.1790 hc        1 EBN      0.087700
     43 HBGA       -0.9640    1.8000    1.3670 hc        1 EBN      0.087700
     44 HBI        -2.2890   -0.2510    1.0530 ha        1 EBN      0.147000
     45 HBJ        -2.8170   -2.5070    1.9510 ha        1 EBN      0.155000
     46 HBO         1.5560   -0.3470    3.0410 ha        1 EBN      0.157000
     47 HNBD       -0.4800   -0.3450   -0.6100 hn        1 EBN      0.326500
     48 HAX         1.5570    1.0540   -2.2610 h1        1 EBN      0.105700
     49 HAY         0.4360   -1.8420   -2.5940 hc        1 EBN      0.058700
     50 HAYA        1.4080   -0.9400   -3.8260 hc        1 EBN      0.058700
     51 HAZ         2.3110   -1.6830   -0.9550 hc        1 EBN      0.049700
     52 HAZA        3.2620   -0.6620   -2.1020 hc        1 EBN      0.049700
     53 HBAA        2.2970   -3.5610   -2.6420 hc        1 EBN      0.048700
     54 HBAB        3.2690   -2.5420   -3.7750 hc        1 EBN      0.048700
     55 HBB         4.1040   -3.3680   -0.8940 h1        1 EBN      0.025200
     56 HBBA        5.0660   -2.3070   -2.0100 h1        1 EBN      0.025200
     57 HNBC        5.7940   -4.5730   -2.0970 hn        1 EBN      0.348800
     58 HNBA        5.0180   -4.3260   -3.5100 hn        1 EBN      0.348800
     59 HN          0.8310    1.5160   -4.5010 hn        1 EBN      0.326500
     60 HA         -2.1150    1.5020   -4.8540 h1        1 EBN      0.100700
     61 HB         -1.7540    3.3160   -6.5940 hc        1 EBN      0.054700
     62 HBA        -0.0400    3.5040   -6.0470 hc        1 EBN      0.054700
     63 HG         -0.8160    4.1000   -3.7450 hc        1 EBN      0.051200
     64 HGA        -2.5330    3.8120   -4.2260 hc        1 EBN      0.051200
     65 HD         -0.6270    5.9020   -5.4970 hc        1 EBN      0.046700
     66 HDA        -2.3490    5.6230   -5.9690 hc        1 EBN      0.046700
     67 HE         -3.0870    6.1340   -3.6060 h1        1 EBN      0.026700
     68 HEA        -1.3540    6.3960   -3.1320 h1        1 EBN      0.026700
     69 HNZ        -1.4440    8.2070   -4.8720 hn        1 EBN      0.348800
     70 HNZA       -2.4650    8.4480   -3.6230 hn        1 EBN      0.348800
     71 HAA        -3.7030    2.5600  -11.0350 hc        1 EBN      0.051700
     72 HAAA       -5.3070    1.7280  -10.9060 hc        1 EBN      0.051700
     73 HAB        -4.3690   -0.2870  -12.0780 h1        1 EBN      0.061700
     74 HNAC       -4.1550    2.2960  -13.4720 hn        1 EBN      0.393800
     75 HNAE       -4.9050    2.1570  -15.8320 hn        1 EBN      0.390300
     76 HNAA       -4.1980    0.9220  -16.6630 hn        1 EBN      0.390300
     77 HNAF       -4.2450   -1.2280  -13.9700 hn        1 EBN      0.394400
     78 HAG        -1.8160    1.4720  -12.3400 hc        1 EBN      0.051700
     79 HAGA       -2.0690   -0.1320  -13.1370 hc        1 EBN      0.051700
     80 HAH        -2.3450   -1.2380  -10.9330 hc        1 EBN      0.044950
     81 HAHA       -0.7670   -0.3570  -11.0310 hc        1 EBN      0.044950
     82 HAI        -1.6940    1.5560   -9.7690 hc        1 EBN      0.060700
     83 HAJ        -3.9890    1.4910   -8.8220 hc        1 EBN      0.044950
     84 HAJA       -4.2940   -0.1180   -9.5920 hc        1 EBN      0.044950
     85 HAK        -2.4200   -1.1590   -8.4350 h1        1 EBN      0.065200
     86 HAKA       -0.7160   -0.5310   -8.6500 h1        1 EBN      0.065200
     87 HNAL       -2.8050    0.7930   -6.9910 hn        1 EBN      0.311500
@<TRIPOS>BOND
     1    1    2 2   
     2    1    3 1   
     3    1   12 1   
     4    3    4 1   
     5    3   42 1   
     6    3   43 1   
     7    4    5 ar  
     8    4   11 ar  
     9    5    6 ar  
    10    5   44 1   
    11    6    7 ar  
    12    6   45 1   
    13    7    8 1   
    14    7    9 ar  
    15    9   10 1   
    16    9   11 ar  
    17   11   46 1   
    18   12   13 1   
    19   12   47 1   
    20   13   14 1   
    21   13   16 1   
    22   13   48 1   
    23   14   15 2   
    24   14   21 1   
    25   16   17 1   
    26   16   49 1   
    27   16   50 1   
    28   17   18 1   
    29   17   51 1   
    30   17   52 1   
    31   18   19 1   
    32   18   53 1   
    33   18   54 1   
    34   19   20 1   
    35   19   55 1   
    36   19   56 1   
    37   20   57 1   
    38   20   58 1   
    39   21   22 1   
    40   21   59 1   
    41   22   23 1   
    42   22   25 1   
    43   22   60 1   
    44   23   24 2   
    45   23   41 1   
    46   25   26 1   
    47   25   61 1   
    48   25   62 1   
    49   26   27 1   
    50   26   63 1   
    51   26   64 1   
    52   27   28 1   
    53   27   65 1   
    54   27   66 1   
    55   28   29 1   
    56   28   67 1   
    57   28   68 1   
    58   29   69 1   
    59   29   70 1   
    60   30   31 1   
    61   30   39 1   
    62   30   71 1   
    63   30   72 1   
    64   31   32 1   
    65   31   36 1   
    66   31   73 1   
    67   32   33 1   
    68   32   74 1   
    69   33   34 1   
    70   33   35 2   
    71   34   75 1   
    72   34   76 1   
    73   35   77 1   
    74   36   37 1   
    75   36   78 1   
    76   36   79 1   
    77   37   38 1   
    78   37   80 1   
    79   37   81 1   
    80   38   39 1   
    81   38   40 1   
    82   38   82 1   
    83   39   83 1   
    84   39   84 1   
    85   40   41 1   
    86   40   85 1   
    87   40   86 1   
    88   41   87 1   
@<TRIPOS>SUBSTRUCTURE
     1 EBN         1 TEMP              0 ****  ****    0 ROOT
