@<TRIPOS>MOLECULE
EBP
   35    35     1     0     0
SMALL
bcc


@<TRIPOS>ATOM
      1 C1         -0.7080    0.5000   -1.3480 ca        1 EBP     -0.088300
      2 C2         -1.4120   -0.4170   -2.1430 ca        1 EBP     -0.110000
      3 C3         -0.9940   -0.7010   -3.4390 ca        1 EBP     -0.129500
      4 C4          0.1250   -0.0600   -3.9830 ca        1 EBP     -0.066300
      5 C5          0.8160    0.8740   -3.2030 ca        1 EBP     -0.129500
      6 C6          0.4000    1.1570   -1.9050 ca        1 EBP     -0.110000
      7 C7         -1.1770    0.8440    0.0140 c3        1 EBP     -0.320300
      8 C8          0.5580   -0.3530   -5.3690 c3        1 EBP     -0.056800
      9 C9         -1.1480   -0.2640    3.6920 c3        1 EBP      0.165900
     10 C10        -1.8940    0.3860    4.8310 c3        1 EBP     -0.104100
     11 C11         1.9220   -0.4810    1.8860 c3        1 EBP      0.165900
     12 C12         3.0590   -0.4730    0.8880 c3        1 EBP     -0.104100
     13 P          -0.5680   -0.0870    1.2290 p5        1 EBP      1.533300
     14 O1         -1.3240    0.5110    2.5230 os        1 EBP     -0.592700
     15 O2          0.9300    0.4440    1.4950 os        1 EBP     -0.592700
     16 O3         -0.6440   -1.5430    1.2070 o         1 EBP     -0.839300
     17 H2         -2.2990   -0.9300   -1.7380 ha        1 EBP      0.138000
     18 H3         -1.5500   -1.4340   -4.0430 ha        1 EBP      0.135000
     19 H5          1.6940    1.3910   -3.6190 ha        1 EBP      0.135000
     20 H6          0.9520    1.9020   -1.3100 ha        1 EBP      0.138000
     21 H71        -2.3030    0.7980    0.0240 hc        1 EBP      0.118700
     22 H72        -0.9410    1.9300    0.2050 hc        1 EBP      0.118700
     23 H81        -0.0120    0.2870   -6.0890 hc        1 EBP      0.046700
     24 H82         1.6480   -0.1440   -5.5020 hc        1 EBP      0.046700
     25 H83         0.3680   -1.4240   -5.6270 hc        1 EBP      0.046700
     26 H91        -0.0420   -0.3140    3.9010 h1        1 EBP      0.046200
     27 H92        -1.5290   -1.3020    3.4830 h1        1 EBP      0.046200
     28 H101       -1.7520   -0.2170    5.7590 hc        1 EBP      0.045033
     29 H102       -1.5150    1.4220    5.0040 hc        1 EBP      0.045033
     30 H103       -2.9830    0.4470    4.5960 hc        1 EBP      0.045033
     31 H111        2.3010   -0.1480    2.8940 h1        1 EBP      0.046200
     32 H112        1.4690   -1.5090    1.9730 h1        1 EBP      0.046200
     33 H121        3.8910   -1.1090    1.2740 hc        1 EBP      0.045033
     34 H122        2.7270   -0.8750   -0.0990 hc        1 EBP      0.045033
     35 H123        3.4340    0.5670    0.7370 hc        1 EBP      0.045033
@<TRIPOS>BOND
     1    1    2 ar  
     2    1    6 ar  
     3    1    7 1   
     4    2    3 ar  
     5    2   17 1   
     6    3    4 ar  
     7    3   18 1   
     8    4    5 ar  
     9    4    8 1   
    10    5    6 ar  
    11    5   19 1   
    12    6   20 1   
    13    7   13 1   
    14    7   21 1   
    15    7   22 1   
    16    8   23 1   
    17    8   24 1   
    18    8   25 1   
    19    9   10 1   
    20    9   14 1   
    21    9   26 1   
    22    9   27 1   
    23   10   28 1   
    24   10   29 1   
    25   10   30 1   
    26   11   12 1   
    27   11   15 1   
    28   11   31 1   
    29   11   32 1   
    30   12   33 1   
    31   12   34 1   
    32   12   35 1   
    33   13   14 1   
    34   13   15 1   
    35   13   16 2   
@<TRIPOS>SUBSTRUCTURE
     1 EBP         1 TEMP              0 ****  ****    0 ROOT
