@<TRIPOS>MOLECULE
EBP
   35    32     1     0     0
SMALL
bcc


@<TRIPOS>ATOM
      1 C1         -0.1310    1.4210    0.7390 c1        1 EBP     -0.054100
      2 C2         -0.9890    1.2870    1.8290 c1        1 EBP     -0.059000
      3 C3         -2.1850    2.0250    1.8780 c1        1 EBP     -0.059000
      4 C4         -2.5110    2.8880    0.8370 c1        1 EBP     -0.031100
      5 C5         -1.6470    3.0210   -0.2580 c1        1 EBP     -0.072500
      6 C6         -0.4600    2.2890   -0.3050 c1        1 EBP     -0.055500
      7 C7          1.2290    0.7110    0.7450 c3        1 EBP     -0.353500
      8 C8         -3.7990    3.7060    0.8940 c3        1 EBP     -0.091000
      9 C9          0.6560   -1.0670   -2.5400 c3        1 EBP      0.166900
     10 C10         1.3670   -0.7420   -3.8420 c3        1 EBP     -0.103600
     11 C11         1.3470   -3.3110    1.1720 c3        1 EBP      0.166900
     12 C12         2.5000   -4.2720    1.5870 c3        1 EBP     -0.103600
     13 P           1.0390   -0.9760    0.0620 p5        1 EBP      1.533300
     14 O1          1.6000   -1.0090   -1.4520 os        1 EBP     -0.592700
     15 O2          1.8730   -2.0100    0.9640 os        1 EBP     -0.592700
     16 O3         -0.4120   -1.3600    0.0700 o         1 EBP     -0.839300
     17 H2         -0.7580    0.6800    2.5600 ha        1 EBP      0.079000
     18 H3         -2.7940    1.9300    2.6510 ha        1 EBP      0.079000
     19 H5         -1.8780    3.6340   -0.9970 ha        1 EBP      0.076500
     20 H6          0.1470    2.3830   -1.0770 ha        1 EBP      0.080500
     21 H71         1.5640    0.6560    1.6650 hc        1 EBP      0.117700
     22 H72         1.8690    1.2200    0.1920 hc        1 EBP      0.117700
     23 H81        -3.5800    4.6460    1.0750 hc        1 EBP      0.046367
     24 H82        -4.2660    3.6390    0.0360 hc        1 EBP      0.046367
     25 H83        -4.3800    3.3580    1.6140 hc        1 EBP      0.046367
     26 H91         0.2710   -1.9750   -2.5930 h1        1 EBP      0.045450
     27 H92        -0.0560   -0.4200   -2.3880 h1        1 EBP      0.045450
     28 H101        1.6880    0.1900   -3.8170 hc        1 EBP      0.044700
     29 H102        2.1230   -1.3420   -3.9570 hc        1 EBP      0.044700
     30 H103        0.7380   -0.8550   -4.5980 hc        1 EBP      0.044700
     31 H111        0.6770   -3.2820    1.8800 h1        1 EBP      0.045450
     32 H112        0.9380   -3.6300    0.3510 h1        1 EBP      0.045450
     33 H121        2.3050   -5.1870    1.2530 hc        1 EBP      0.044700
     34 H122        3.3410   -3.9570    1.2010 hc        1 EBP      0.044700
     35 H123        2.5760   -4.2890    2.5670 hc        1 EBP      0.044700
@<TRIPOS>BOND
     1    1    6 3   
     2    1    7 1   
     3    2    3 3   
     4    2   17 1   
     5    3   18 1   
     6    4    5 3   
     7    4    8 1   
     8    5   19 1   
     9    6   20 1   
    10    7   13 1   
    11    7   21 1   
    12    7   22 1   
    13    8   23 1   
    14    8   24 1   
    15    8   25 1   
    16    9   10 1   
    17    9   14 1   
    18    9   26 1   
    19    9   27 1   
    20   10   28 1   
    21   10   29 1   
    22   10   30 1   
    23   11   12 1   
    24   11   15 1   
    25   11   31 1   
    26   11   32 1   
    27   12   33 1   
    28   12   34 1   
    29   12   35 1   
    30   13   14 1   
    31   13   15 1   
    32   13   16 2   
@<TRIPOS>SUBSTRUCTURE
     1 EBP         1 TEMP              0 ****  ****    0 ROOT
