@<TRIPOS>MOLECULE
EBP
   35    35     1     0     0
SMALL
bcc


@<TRIPOS>ATOM
      1 C1          0.0950   -0.0100    0.0860 ca        1 EBP     -0.088300
      2 C2          1.4770    0.1170    0.2980 ca        1 EBP     -0.110000
      3 C3          2.0110    0.0090    1.5780 ca        1 EBP     -0.129500
      4 C4          1.1780   -0.2050    2.6830 ca        1 EBP     -0.066300
      5 C5         -0.2020   -0.3080    2.4790 ca        1 EBP     -0.129500
      6 C6         -0.7380   -0.2020    1.1990 ca        1 EBP     -0.110000
      7 C7         -0.4850    0.1540   -1.2670 c3        1 EBP     -0.320300
      8 C8          1.7510   -0.3040    4.0440 c3        1 EBP     -0.056800
      9 C9         -1.0320   -1.4470   -4.7140 c3        1 EBP      0.168400
     10 C10        -2.3630   -1.9630   -5.2190 c3        1 EBP     -0.116100
     11 C11        -1.9120   -3.4200   -1.6040 c3        1 EBP      0.168400
     12 C12        -2.0710   -3.9760   -0.2050 c3        1 EBP     -0.116100
     13 P          -0.6170   -1.2300   -2.1520 p5        1 EBP      1.540300
     14 O1         -1.2120   -0.6750   -3.5470 os        1 EBP     -0.597200
     15 O2         -1.8970   -2.0090   -1.5610 os        1 EBP     -0.597200
     16 O3          0.5180   -2.1150   -2.3850 o         1 EBP     -0.841300
     17 H2          2.1510    0.2910   -0.5550 ha        1 EBP      0.138000
     18 H3          3.0980    0.0960    1.7240 ha        1 EBP      0.135000
     19 H5         -0.8710   -0.4700    3.3380 ha        1 EBP      0.135000
     20 H6         -1.8280   -0.2780    1.0600 ha        1 EBP      0.138000
     21 H71         0.1320    0.9110   -1.8280 hc        1 EBP      0.118700
     22 H72        -1.4960    0.6400   -1.1610 hc        1 EBP      0.118700
     23 H81         2.7310   -0.8430    4.0250 hc        1 EBP      0.046700
     24 H82         1.9240    0.7210    4.4600 hc        1 EBP      0.046700
     25 H83         1.0610   -0.8490    4.7340 hc        1 EBP      0.046700
     26 H91        -0.5760   -0.7630   -5.4850 h1        1 EBP      0.052700
     27 H92        -0.3190   -2.2920   -4.5010 h1        1 EBP      0.052700
     28 H101       -2.8090   -2.6940   -4.5020 hc        1 EBP      0.044200
     29 H102       -2.2130   -2.4670   -6.2030 hc        1 EBP      0.044200
     30 H103       -3.0810   -1.1170   -5.3460 hc        1 EBP      0.044200
     31 H111       -0.9630   -3.7950   -2.0800 h1        1 EBP      0.052700
     32 H112       -2.7980   -3.7200   -2.2340 h1        1 EBP      0.052700
     33 H121       -1.1700   -3.7570    0.4150 hc        1 EBP      0.044200
     34 H122       -2.9610   -3.5210    0.2930 hc        1 EBP      0.044200
     35 H123       -2.2100   -5.0820   -0.2630 hc        1 EBP      0.044200
@<TRIPOS>BOND
     1    1    2 ar  
     2    1    6 ar  
     3    1    7 1   
     4    2    3 ar  
     5    2   17 1   
     6    3    4 ar  
     7    3   18 1   
     8    4    5 ar  
     9    4    8 1   
    10    5    6 ar  
    11    5   19 1   
    12    6   20 1   
    13    7   13 1   
    14    7   21 1   
    15    7   22 1   
    16    8   23 1   
    17    8   24 1   
    18    8   25 1   
    19    9   10 1   
    20    9   14 1   
    21    9   26 1   
    22    9   27 1   
    23   10   28 1   
    24   10   29 1   
    25   10   30 1   
    26   11   12 1   
    27   11   15 1   
    28   11   31 1   
    29   11   32 1   
    30   12   33 1   
    31   12   34 1   
    32   12   35 1   
    33   13   14 1   
    34   13   15 1   
    35   13   16 2   
@<TRIPOS>SUBSTRUCTURE
     1 EBP         1 TEMP              0 ****  ****    0 ROOT
