@<TRIPOS>MOLECULE
EBP
   35    35     1     0     0
SMALL
bcc


@<TRIPOS>ATOM
      1 C1          0.0130   -0.0550    0.0840 ca        1 EBP     -0.088300
      2 C2          1.3930    0.1480    0.2340 ca        1 EBP     -0.110000
      3 C3          1.9860    0.0950    1.4920 ca        1 EBP     -0.129500
      4 C4          1.2120   -0.1390    2.6340 ca        1 EBP     -0.066300
      5 C5         -0.1680   -0.3180    2.4920 ca        1 EBP     -0.129500
      6 C6         -0.7620   -0.2670    1.2340 ca        1 EBP     -0.110000
      7 C7         -0.6310    0.0500   -1.2460 c3        1 EBP     -0.320300
      8 C8          1.8440   -0.1790    3.9730 c3        1 EBP     -0.056800
      9 C9         -1.3950   -1.8500   -4.4970 c3        1 EBP      0.165900
     10 C10        -2.0510   -1.2870   -5.7330 c3        1 EBP     -0.104100
     11 C11        -1.8530   -3.6030   -1.4230 c3        1 EBP      0.165900
     12 C12        -1.9480   -4.0910    0.0060 c3        1 EBP     -0.104100
     13 P          -0.7230   -1.3570   -2.1010 p5        1 EBP      1.533300
     14 O1         -1.4010   -0.8670   -3.4810 os        1 EBP     -0.592700
     15 O2         -1.9410   -2.1950   -1.4580 os        1 EBP     -0.592700
     16 O3          0.4470   -2.1870   -2.3610 o         1 EBP     -0.839300
     17 H2          2.0220    0.3390   -0.6500 ha        1 EBP      0.138000
     18 H3          3.0720    0.2410    1.5890 ha        1 EBP      0.135000
     19 H5         -0.7910   -0.4960    3.3810 ha        1 EBP      0.135000
     20 H6         -1.8520   -0.4020    1.1440 ha        1 EBP      0.138000
     21 H71        -1.6620    0.4830   -1.1060 hc        1 EBP      0.118700
     22 H72        -0.0800    0.8270   -1.8470 hc        1 EBP      0.118700
     23 H81         2.8720   -0.6140    3.9150 hc        1 EBP      0.046700
     24 H82         1.9260    0.8580    4.3860 hc        1 EBP      0.046700
     25 H83         1.2390   -0.7920    4.6850 hc        1 EBP      0.046700
     26 H91        -0.3260   -2.1450   -4.6890 h1        1 EBP      0.046200
     27 H92        -1.9560   -2.7450   -4.1050 h1        1 EBP      0.046200
     28 H101       -3.1010   -0.9800   -5.5110 hc        1 EBP      0.045033
     29 H102       -1.4930   -0.3890   -6.0910 hc        1 EBP      0.045033
     30 H103       -2.0550   -2.0610   -6.5360 hc        1 EBP      0.045033
     31 H111       -2.7260   -4.0000   -2.0160 h1        1 EBP      0.046200
     32 H112       -0.8890   -3.9360   -1.8990 h1        1 EBP      0.046200
     33 H121       -1.0540   -3.7760    0.5950 hc        1 EBP      0.045033
     34 H122       -2.0080   -5.2050    0.0110 hc        1 EBP      0.045033
     35 H123       -2.8580   -3.6730    0.4980 hc        1 EBP      0.045033
@<TRIPOS>BOND
     1    1    2 ar  
     2    1    6 ar  
     3    1    7 1   
     4    2    3 ar  
     5    2   17 1   
     6    3    4 ar  
     7    3   18 1   
     8    4    5 ar  
     9    4    8 1   
    10    5    6 ar  
    11    5   19 1   
    12    6   20 1   
    13    7   13 1   
    14    7   21 1   
    15    7   22 1   
    16    8   23 1   
    17    8   24 1   
    18    8   25 1   
    19    9   10 1   
    20    9   14 1   
    21    9   26 1   
    22    9   27 1   
    23   10   28 1   
    24   10   29 1   
    25   10   30 1   
    26   11   12 1   
    27   11   15 1   
    28   11   31 1   
    29   11   32 1   
    30   12   33 1   
    31   12   34 1   
    32   12   35 1   
    33   13   14 1   
    34   13   15 1   
    35   13   16 2   
@<TRIPOS>SUBSTRUCTURE
     1 EBP         1 TEMP              0 ****  ****    0 ROOT
