@<TRIPOS>MOLECULE
EBQ
   35    36     1     0     0
SMALL
bcc


@<TRIPOS>ATOM
      1 O17         5.0500    0.3710   -0.4370 os        1 EBQ     -0.408600
      2 C9          4.0500   -0.4510    0.1980 cx        1 EBQ      0.061100
      3 C16         5.3020   -0.0690    0.9040 cx        1 EBQ      0.056400
      4 C8          2.7520    0.2180    0.5260 c3        1 EBQ     -0.079400
      5 C7          1.8070    0.1510   -0.6620 c3        1 EBQ      0.136400
      6 O1          0.5900    0.7770   -0.2400 os        1 EBQ     -0.466600
      7 C1         -0.4560    0.6730   -1.1880 c3        1 EBQ      0.303900
      8 C2         -1.5840    1.6120   -0.7200 c3        1 EBQ      0.095100
      9 O2         -1.1130    2.9260   -0.5140 oh        1 EBQ     -0.593800
     10 C3         -2.2390    1.0730    0.5600 c3        1 EBQ      0.075100
     11 O3         -3.4280    1.7830    0.8630 oh        1 EBQ     -0.608800
     12 C4         -2.6390   -0.3990    0.3690 c3        1 EBQ      0.125100
     13 O4         -3.1350   -0.9460    1.5770 oh        1 EBQ     -0.595800
     14 C5         -1.3890   -1.2040   -0.0250 c3        1 EBQ      0.142100
     15 O5         -0.8480   -0.6800   -1.2430 os        1 EBQ     -0.430600
     16 C6         -1.7440   -2.6640   -0.3110 c3        1 EBQ      0.135400
     17 O6         -0.5650   -3.4230   -0.0960 oh        1 EBQ     -0.600800
     18 H9          3.9540   -1.4600   -0.2510 h1        1 EBQ      0.094700
     19 H161        6.1350   -0.7880    1.0040 h1        1 EBQ      0.078200
     20 H162        5.2990    0.7390    1.6590 h1        1 EBQ      0.078200
     21 H81C        2.2850   -0.3000    1.4050 hc        1 EBQ      0.067200
     22 H82C        2.9210    1.2900    0.8080 hc        1 EBQ      0.067200
     23 H1         -0.1100    0.9200   -2.2310 h2        1 EBQ      0.090700
     24 H2         -2.3520    1.7030   -1.5380 h1        1 EBQ      0.099700
     25 HA         -0.3380    2.8710    0.0620 ho        1 EBQ      0.422000
     26 H3         -1.5190    1.1650    1.4220 h1        1 EBQ      0.064700
     27 HB         -3.2140    2.7230    0.7990 ho        1 EBQ      0.424000
     28 H4         -3.4260   -0.4750   -0.4310 h1        1 EBQ      0.056700
     29 HC         -3.8220   -0.3410    1.8890 ho        1 EBQ      0.425000
     30 H5         -0.6130   -1.1410    0.7860 h1        1 EBQ      0.087700
     31 H61C       -2.5470   -2.9910    0.4030 h1        1 EBQ      0.046700
     32 H62C       -2.0950   -2.7800   -1.3700 h1        1 EBQ      0.046700
     33 H6         -0.7760   -4.3310   -0.3440 ho        1 EBQ      0.402000
     34 H7A         2.2230    0.7120   -1.5400 h1        1 EBQ      0.050700
     35 H7B         1.5950   -0.9120   -0.9550 h1        1 EBQ      0.050700
@<TRIPOS>BOND
     1    1    2 1   
     2    1    3 1   
     3    2    3 1   
     4    2    4 1   
     5    2   18 1   
     6    3   19 1   
     7    3   20 1   
     8    4    5 1   
     9    4   21 1   
    10    4   22 1   
    11    5    6 1   
    12    5   34 1   
    13    5   35 1   
    14    6    7 1   
    15    7    8 1   
    16    7   15 1   
    17    7   23 1   
    18    8    9 1   
    19    8   10 1   
    20    8   24 1   
    21    9   25 1   
    22   10   11 1   
    23   10   12 1   
    24   10   26 1   
    25   11   27 1   
    26   12   13 1   
    27   12   14 1   
    28   12   28 1   
    29   13   29 1   
    30   14   15 1   
    31   14   16 1   
    32   14   30 1   
    33   16   17 1   
    34   16   31 1   
    35   16   32 1   
    36   17   33 1   
@<TRIPOS>SUBSTRUCTURE
     1 EBQ         1 TEMP              0 ****  ****    0 ROOT
