@<TRIPOS>MOLECULE
EBS
   48    46     1     0     0
SMALL
bcc


@<TRIPOS>ATOM
      1 C1          0.0330   -0.2760    0.6280 c2        1 EBS     -0.294000
      2 C2          1.4010   -0.3700    0.5560 c2        1 EBS     -0.018000
      3 C3         -0.7620   -0.3420    1.8240 c2        1 EBS     -0.030000
      4 C4          2.2460   -0.6370    1.6900 c2        1 EBS     -0.430000
      5 C5         -0.3830    0.0670    3.0380 c2        1 EBS     -0.760000
      6 C6          1.9880   -0.3860    2.9720 c1        1 EBS      0.211000
      7 N7          1.9440   -0.2430   -0.7780 na        1 EBS     -0.064000
      8 C8          0.8570   -0.2280   -1.7400 c2        1 EBS     -0.054000
      9 S9         -0.6900   -0.1450   -0.9090 ss        1 EBS      0.407000
     10 C10         1.1880   -0.2900   -7.5130 c2        1 EBS     -0.219000
     11 C11        -0.1690   -0.2550   -7.4620 c2        1 EBS     -0.168000
     12 C12         2.0770   -0.3050   -8.6310 c2        1 EBS     -0.200000
     13 C13        -0.7160   -0.4890  -10.5520 c1        1 EBS     -0.010000
     14 C14         1.8010   -0.3690   -9.9530 c2        1 EBS      0.055000
     15 C15         0.5410   -0.4370  -10.5720 c1        1 EBS     -0.804000
     16 N16        -0.7530   -0.2490   -6.1560 na        1 EBS     -0.081000
     17 C17         0.2810   -0.2660   -5.1510 c2        1 EBS     -0.030000
     18 S18         1.8620   -0.3090   -5.9230 ss        1 EBS      0.340000
     19 N19         0.0220   -0.2480   -3.8550 n2        1 EBS     -0.129000
     20 N20         1.0790   -0.2770   -3.0370 n2        1 EBS     -0.115000
     21 C22        -3.1210   -0.2330   -6.8520 c3        1 EBS     -0.267000
     22 C24         3.1850   -0.0310   -1.1750 c1        1 EBS     -0.079000
     23 C25         4.3670    0.1080   -0.3060 c3        1 EBS     -0.249000
     24 S26        -1.3980   -0.0680    4.4920 s6        1 EBS      2.870000
     25 O39         0.2110    0.6550  -13.1980 o         1 EBS     -1.005667
     26 O45        -2.7120   -0.2230    3.9940 o         1 EBS     -1.064667
     27 O46        -0.9180   -1.2030    5.1790 o         1 EBS     -1.064667
     28 O47        -1.1750    1.1510    5.1690 o         1 EBS     -1.064667
     29 O48         2.2380   -0.4320  -12.7860 o         1 EBS     -1.005667
     30 O49         0.3050   -1.6970  -13.1360 o         1 EBS     -1.005667
     31 H3         -1.7780   -0.7720    1.6940 ha        1 EBS      0.160000
     32 H4          3.2020   -1.1670    1.4940 ha        1 EBS      0.174000
     33 H6          0.5600    0.6330    3.2260 h4        1 EBS      0.165000
     34 H12         3.1450   -0.2600   -8.3410 ha        1 EBS      0.111000
     35 H13        -0.8610   -0.2190   -8.3180 h4        1 EBS      0.209000
     36 H15         2.6800   -0.3690  -10.6360 ha        1 EBS      0.133000
     37 H211       -2.9160    1.2280   -9.3340 ha        1 EBS      0.005750
     38 H212       -2.4900    0.8780   -9.7310 ha        1 EBS      0.005750
     39 H221       -3.9860   -0.7910   -6.4110 hc        1 EBS      0.096667
     40 H222       -2.8800   -0.6820   -7.8480 hc        1 EBS      0.096667
     41 H223       -3.4360    0.8310   -7.0150 hc        1 EBS      0.096667
     42 H241        3.6950   -0.2340   -4.3630 ha        1 EBS      0.005750
     43 H242        4.0190   -0.4670   -4.9160 ha        1 EBS      0.005750
     44 H251        4.1880    0.6310    0.6680 hc        1 EBS      0.089667
     45 H252        5.1250    0.6960   -0.8840 hc        1 EBS      0.089667
     46 H253        4.7990   -0.9060   -0.1000 hc        1 EBS      0.089667
     47 C21        -2.0430   -0.2390   -5.8420 c1        1 EBS     -0.060000
     48 S23         0.8580   -0.4870  -12.7870 s4        1 EBS      2.857000
@<TRIPOS>BOND
     1    1    2 1   
     2    1    3 1   
     3    1    9 1   
     4    2    4 1   
     5    2    7 1   
     6    3    5 1   
     7    3   31 1   
     8    4    6 1   
     9    4   32 1   
    10    5   24 1   
    11    5   33 1   
    12    7    8 1   
    13    7   22 1   
    14    8    9 1   
    15    8   20 1   
    16   10   11 1   
    17   10   12 1   
    18   10   18 1   
    19   11   16 1   
    20   11   35 1   
    21   12   14 1   
    22   12   34 1   
    23   13   15 1   
    24   14   15 1   
    25   14   36 1   
    26   16   17 1   
    27   16   47 1   
    28   17   18 1   
    29   17   19 1   
    30   19   20 1   
    31   21   39 1   
    32   21   40 1   
    33   21   41 1   
    34   21   47 1   
    35   22   23 1   
    36   23   44 1   
    37   23   45 1   
    38   23   46 1   
    39   24   26 1   
    40   24   27 1   
    41   24   28 1   
    42   25   48 1   
    43   29   48 1   
    44   30   48 1   
    45   37   38 1   
    46   42   43 1   
@<TRIPOS>SUBSTRUCTURE
     1 EBS         1 TEMP              0 ****  ****    0 ROOT
