@<TRIPOS>MOLECULE
EBS
   48    51     1     0     0
SMALL
bcc


@<TRIPOS>ATOM
      1 C1          1.9130    2.4160   -0.9180 ca        1 EBS     -0.106100
      2 C2          3.0920    1.6970   -1.2660 ca        1 EBS      0.004800
      3 C3          0.7680    1.7310   -0.5290 ca        1 EBS      0.016000
      4 C4          3.0880    0.2960   -1.2300 ca        1 EBS     -0.185000
      5 C5          0.7650    0.3380   -0.4790 ca        1 EBS     -0.276500
      6 C6          1.9210   -0.3570   -0.8350 ca        1 EBS     -0.017000
      7 N7          4.1980    2.5270   -1.5720 na        1 EBS     -0.170300
      8 C8          3.8150    3.8940   -1.6350 cc        1 EBS      0.510700
      9 S9          2.1570    4.0970   -1.0660 ss        1 EBS     -0.109100
     10 C10         6.8680    8.5030   -3.3540 ca        1 EBS     -0.106100
     11 C11         5.7240    9.2290   -2.9170 ca        1 EBS      0.004800
     12 C12         7.9370    9.1710   -3.9400 ca        1 EBS      0.016000
     13 C13         5.6730   10.6180   -3.0950 ca        1 EBS     -0.185000
     14 C14         7.8940   10.5550   -4.1050 ca        1 EBS     -0.276500
     15 C15         6.7630   11.2550   -3.6870 ca        1 EBS     -0.017000
     16 N16         4.7490    8.4280   -2.2760 na        1 EBS     -0.170300
     17 C17         5.0650    7.0460   -2.3840 cc        1 EBS      0.510700
     18 S18         6.6820    6.8340   -3.0560 ss        1 EBS     -0.109100
     19 N19         4.2300    6.1020   -1.9780 nf        1 EBS     -0.480700
     20 N20         4.6510    4.8380   -2.0370 nf        1 EBS     -0.480700
     21 C22         2.5180    8.8360   -3.3640 c3        1 EBS     -0.125100
     22 C24         5.3330    2.0240   -2.3050 c3        1 EBS      0.042300
     23 C25         5.1360    1.8420   -3.8030 c3        1 EBS     -0.125100
     24 S26        -0.6830   -0.5520    0.0300 s6        1 EBS      1.460100
     25 O39        10.0320   11.8870   -3.7490 o         1 EBS     -0.746200
     26 O45        -1.7610    0.3230   -0.2430 o         1 EBS     -0.746200
     27 O46        -0.6750   -1.7280   -0.7590 o         1 EBS     -0.746200
     28 O47        -0.4990   -0.8080    1.4080 o         1 EBS     -0.746200
     29 O48         9.9170   10.4630   -5.6340 o         1 EBS     -0.746200
     30 O49         8.6540   12.4760   -5.5730 o         1 EBS     -0.746200
     31 H3         -0.1540    2.2800   -0.2680 ha        1 EBS      0.158000
     32 H4          3.9790   -0.2810   -1.5050 ha        1 EBS      0.121000
     33 H6          1.8990   -1.4610   -0.8160 ha        1 EBS      0.145000
     34 H12         8.8230    8.6150   -4.2920 ha        1 EBS      0.158000
     35 H13         4.7980   11.1990   -2.7780 ha        1 EBS      0.121000
     36 H15         6.7300   12.3480   -3.8450 ha        1 EBS      0.145000
     37 H211        2.9090    8.2580   -1.3110 h1        1 EBS      0.060200
     38 H212        3.4390    9.9460   -1.7440 h1        1 EBS      0.060200
     39 H221        2.9460    9.4720   -4.1760 hc        1 EBS      0.042700
     40 H222        2.4210    7.7900   -3.7420 hc        1 EBS      0.042700
     41 H223        1.5010    9.2180   -3.1070 hc        1 EBS      0.042700
     42 H241        6.1950    2.7300   -2.1320 h1        1 EBS      0.060200
     43 H242        5.6070    1.0290   -1.8480 h1        1 EBS      0.060200
     44 H251        4.3090    1.1220   -4.0140 hc        1 EBS      0.042700
     45 H252        4.8940    2.8160   -4.2930 hc        1 EBS      0.042700
     46 H253        6.0800    1.4450   -4.2450 hc        1 EBS      0.042700
     47 C21         3.3900    8.8830   -2.1180 c3        1 EBS      0.042300
     48 S23         9.2560   11.4270   -4.8380 s6        1 EBS      1.460100
@<TRIPOS>BOND
     1    1    2 ar  
     2    1    3 ar  
     3    1    9 1   
     4    2    4 ar  
     5    2    7 1   
     6    3    5 ar  
     7    3   31 1   
     8    4    6 ar  
     9    4   32 1   
    10    5    6 ar  
    11    5   24 1   
    12    6   33 1   
    13    7    8 1   
    14    7   22 1   
    15    8    9 1   
    16    8   20 2   
    17   10   11 ar  
    18   10   12 ar  
    19   10   18 1   
    20   11   13 ar  
    21   11   16 1   
    22   12   14 ar  
    23   12   34 1   
    24   13   15 ar  
    25   13   35 1   
    26   14   15 ar  
    27   14   48 1   
    28   15   36 1   
    29   16   17 1   
    30   16   47 1   
    31   17   18 1   
    32   17   19 2   
    33   19   20 1   
    34   21   39 1   
    35   21   40 1   
    36   21   41 1   
    37   21   47 1   
    38   22   23 1   
    39   22   42 1   
    40   22   43 1   
    41   23   44 1   
    42   23   45 1   
    43   23   46 1   
    44   24   26 1   
    45   24   27 1   
    46   24   28 1   
    47   25   48 1   
    48   29   48 1   
    49   30   48 1   
    50   37   47 1   
    51   38   47 1   
@<TRIPOS>SUBSTRUCTURE
     1 EBS         1 TEMP              0 ****  ****    0 ROOT
