@<TRIPOS>MOLECULE
EBS
   48    46     1     0     0
SMALL
bcc


@<TRIPOS>ATOM
      1 C1          0.0450   -0.0490    0.6790 c2        1 EBS     -0.356000
      2 C2          1.4210   -0.0010    0.5850 c2        1 EBS      0.086000
      3 C3         -0.7340    0.0450    1.8800 c2        1 EBS     -0.012000
      4 C4          2.3100    0.1950    1.7010 c2        1 EBS     -0.431000
      5 C5         -0.3390   -0.2810    3.1130 c2        1 EBS     -0.776000
      6 C6          2.0620    0.0050    2.9950 c1        1 EBS      0.203000
      7 N7          1.9020   -0.0740   -0.7480 na        1 EBS     -0.172000
      8 C8          0.8410   -0.1720   -1.6880 c2        1 EBS     -0.040000
      9 S9         -0.6950   -0.1690   -0.8520 ss        1 EBS      0.443000
     10 C10         1.2170   -0.1550   -7.4680 c2        1 EBS     -0.209000
     11 C11        -0.1340   -0.2940   -7.4250 c2        1 EBS     -0.166000
     12 C12         2.1090   -0.0390   -8.5760 c2        1 EBS     -0.199000
     13 C13        -0.6170   -0.5490  -10.5240 c1        1 EBS     -0.005000
     14 C14         1.8590   -0.1180   -9.9010 c2        1 EBS      0.053000
     15 C15         0.6250   -0.3380  -10.5390 c1        1 EBS     -0.808000
     16 N16        -0.7240   -0.3830   -6.1250 na        1 EBS     -0.074000
     17 C17         0.2960   -0.2840   -5.1080 c2        1 EBS     -0.053000
     18 S18         1.8790   -0.1120   -5.8710 ss        1 EBS      0.289000
     19 N19         0.0350   -0.3190   -3.8170 n2        1 EBS     -0.094000
     20 N20         1.0800   -0.2400   -2.9920 n2        1 EBS     -0.224000
     21 C22        -3.0700   -0.6560   -6.8440 c3        1 EBS     -0.264000
     22 C24         3.2400   -0.2630   -1.1160 c2        1 EBS      0.002000
     23 C25         4.1920   -0.8780   -0.3980 c2        1 EBS     -0.296000
     24 S26        -1.3470   -0.0980    4.5620 s6        1 EBS      2.871000
     25 O39         0.1890    0.7340  -13.1510 o         1 EBS     -1.006667
     26 O45        -2.6610    0.0660    4.0640 o         1 EBS     -1.065333
     27 O46        -1.1440   -1.3030    5.2710 o         1 EBS     -1.065333
     28 O47        -0.8470    1.0450    5.2210 o         1 EBS     -1.065333
     29 O48         2.3340   -0.0910  -12.7270 o         1 EBS     -1.006667
     30 O49         0.5820   -1.5880  -13.1120 o         1 EBS     -1.006667
     31 H3         -1.7670    0.4310    1.7400 ha        1 EBS      0.158000
     32 H4          3.3250    0.5890    1.4710 ha        1 EBS      0.180000
     33 H6          0.6310   -0.7960    3.3410 h4        1 EBS      0.168000
     34 H12         3.1600    0.1380   -8.2730 ha        1 EBS      0.109000
     35 H13        -0.8190   -0.3340   -8.2860 h4        1 EBS      0.207000
     36 H15         2.7370    0.0050  -10.5730 ha        1 EBS      0.133000
     37 H211       -3.0360    0.8510   -9.3100 ha        1 EBS      0.004750
     38 H212       -2.5620    0.5600   -9.7010 ha        1 EBS      0.004750
     39 H221       -3.8640   -1.3190   -6.4170 hc        1 EBS      0.094000
     40 H222       -2.7670   -1.0640   -7.8420 hc        1 EBS      0.094000
     41 H223       -3.5100    0.3620   -7.0030 hc        1 EBS      0.094000
     42 H241        3.7670    0.4470   -4.4620 ha        1 EBS      0.004750
     43 H242        3.8370   -0.2310   -4.4570 ha        1 EBS      0.004750
     44 H251        5.2150   -0.9390   -0.7880 ha        1 EBS      0.122500
     45 H252        3.4670    0.1460   -2.1250 h4        1 EBS      0.161000
     46 H253        4.0280   -1.3450    0.5800 ha        1 EBS      0.122500
     47 C21        -2.0060   -0.5410   -5.8240 c1        1 EBS     -0.072000
     48 S23         0.9720   -0.3210  -12.7420 s4        1 EBS      2.857000
@<TRIPOS>BOND
     1    1    2 1   
     2    1    3 1   
     3    1    9 1   
     4    2    4 1   
     5    2    7 1   
     6    3    5 1   
     7    3   31 1   
     8    4    6 1   
     9    4   32 1   
    10    5   24 1   
    11    5   33 1   
    12    7    8 1   
    13    7   22 1   
    14    8    9 1   
    15    8   20 1   
    16   10   11 1   
    17   10   12 1   
    18   10   18 1   
    19   11   16 1   
    20   11   35 1   
    21   12   14 1   
    22   12   34 1   
    23   13   15 1   
    24   14   15 1   
    25   14   36 1   
    26   16   17 1   
    27   16   47 1   
    28   17   18 1   
    29   17   19 1   
    30   19   20 1   
    31   21   39 1   
    32   21   40 1   
    33   21   41 1   
    34   21   47 1   
    35   22   23 1   
    36   22   45 1   
    37   23   44 1   
    38   23   46 1   
    39   24   26 1   
    40   24   27 1   
    41   24   28 1   
    42   25   48 1   
    43   29   48 1   
    44   30   48 1   
    45   37   38 1   
    46   42   43 1   
@<TRIPOS>SUBSTRUCTURE
     1 EBS         1 TEMP              0 ****  ****    0 ROOT
