@<TRIPOS>MOLECULE
EBT
   45    42     1     0     0
SMALL
bcc


@<TRIPOS>ATOM
      1 C          -1.1600   -1.3820    3.2300 c1        1 EBT      0.321000
      2 N           0.5310   -1.0290    1.5700 n         1 EBT     -0.290000
      3 O          -0.5090   -1.0620    4.2600 o         1 EBT     -0.573000
      4 CA         -0.4430   -1.9580    2.0320 c2        1 EBT     -0.097000
      5 CB          0.2390   -3.2520    2.4260 c3        1 EBT     -0.143000
      6 CG         -0.5980   -4.4280    1.9580 c3        1 EBT     -0.106000
      7 OAA         1.8210    1.9670    1.0280 oh        1 EBT     -0.354000
      8 OAB        -0.8900    0.7690    1.6190 o         1 EBT     -0.388000
      9 NAF        -1.0830    1.2700   -0.8660 n3        1 EBT     -0.354000
     10 CAJ         0.1650    1.9200   -0.6820 c3        1 EBT     -0.042000
     11 CAK         1.0230    1.1050    0.2590 c3        1 EBT      0.010000
     12 CAL         0.8680    2.0530   -2.0170 c3        1 EBT     -0.127000
     13 CAM         0.1330    0.2860    1.1760 c2        1 EBT      0.262000
     14 CAP         0.4530    3.3550   -2.6810 c2        1 EBT     -0.060000
     15 CAR        -0.8380    3.5060   -3.1600 c2        1 EBT     -0.130000
     16 CAS         1.4010    4.3410   -2.9210 c1        1 EBT     -0.124000
     17 CAT        -1.1830    4.6410   -3.8800 c1        1 EBT     -0.140000
     18 CAU         1.0560    5.4760   -3.6400 c1        1 EBT     -0.139500
     19 CAV        -0.2360    5.6250   -4.1200 c1        1 EBT     -0.139500
     20 CD1        -0.8260   -5.3770    3.1160 c3        1 EBT     -0.203000
     21 CD2         0.1290   -5.1540    0.8480 c3        1 EBT     -0.203000
     22 OXT        -2.4030   -1.1870    3.1860 o         1 EBT     -0.573000
     23 HN          1.4150   -1.2590    1.5650 hn        1 EBT      0.196000
     24 HA         -1.0890   -2.1350    1.3200 h4        1 EBT      0.112000
     25 HB          0.3350   -3.2870    3.4000 hc        1 EBT      0.094000
     26 HBA         1.1230   -3.2940    2.0100 hc        1 EBT      0.094000
     27 HG         -1.4570   -4.1050    1.6270 hc        1 EBT      0.094000
     28 HOAA        2.5740    1.5510    1.2540 ho        1 EBT      0.262000
     29 HNAF       -1.7500    1.8980   -0.9150 hn        1 EBT      0.154000
     30 HNAA       -1.0630    0.7850   -1.6430 hn        1 EBT      0.154000
     31 HAJ         0.0170    2.8090   -0.3010 h1        1 EBT      0.081000
     32 HAK         1.5970    0.5060   -0.2590 h1        1 EBT      0.123000
     33 HAL         1.8360    2.0510   -1.8780 hc        1 EBT      0.103000
     34 HALA        0.6200    1.3010   -2.5920 hc        1 EBT      0.103000
     35 HAR        -1.5060    2.8150   -2.9890 ha        1 EBT      0.137000
     36 HAS         2.3120    4.2350   -2.5830 ha        1 EBT      0.147000
     37 HAT        -2.0930    4.7470   -4.2180 ha        1 EBT      0.119000
     38 HAU         1.7310    6.1550   -3.8350 ha        1 EBT      0.121500
     39 HAV        -0.4790    6.4250   -4.6270 ha        1 EBT      0.121500
     40 HD1         0.0370   -5.6510    3.4890 hc        1 EBT      0.063000
     41 HD1A       -1.3110   -6.1690    2.7990 hc        1 EBT      0.063000
     42 HD1B       -1.3520   -4.9260    3.8080 hc        1 EBT      0.063000
     43 HD2        -0.4830   -5.7910    0.4180 hc        1 EBT      0.063000
     44 HD2A        0.4430   -4.5060    0.1860 hc        1 EBT      0.063000
     45 HD2B        0.8960   -5.6380    1.2210 hc        1 EBT      0.063000
@<TRIPOS>BOND
     1    1    3 1   
     2    1   22 1   
     3    2    4 1   
     4    2   13 1   
     5    2   23 1   
     6    4    5 1   
     7    4   24 1   
     8    5    6 1   
     9    5   25 1   
    10    5   26 1   
    11    6   20 1   
    12    6   21 1   
    13    6   27 1   
    14    7   11 1   
    15    7   28 1   
    16    8   13 1   
    17    9   10 1   
    18    9   29 1   
    19    9   30 1   
    20   10   11 1   
    21   10   12 1   
    22   10   31 1   
    23   11   13 1   
    24   11   32 1   
    25   12   14 1   
    26   12   33 1   
    27   12   34 1   
    28   14   15 1   
    29   14   16 1   
    30   15   17 1   
    31   15   35 1   
    32   16   36 1   
    33   17   37 1   
    34   18   19 1   
    35   18   38 1   
    36   19   39 1   
    37   20   40 1   
    38   20   41 1   
    39   20   42 1   
    40   21   43 1   
    41   21   44 1   
    42   21   45 1   
@<TRIPOS>SUBSTRUCTURE
     1 EBT         1 TEMP              0 ****  ****    0 ROOT
