@<TRIPOS>MOLECULE
EBT
   47    44     1     0     0
SMALL
bcc


@<TRIPOS>ATOM
      1 C           3.4480   -0.6400    0.8970 c2        1 EBT      0.366000
      2 N           3.9720    1.0650   -1.9820 n8        1 EBT     -0.197000
      3 O           2.4220    0.0530    0.3000 oh        1 EBT     -0.354000
      4 CA          3.2470   -1.3980    2.1280 c2        1 EBT     -0.260000
      5 CB          2.3180   -1.1090    3.0480 c2        1 EBT     -0.046000
      6 CG          2.1270   -1.8390    4.3310 c3        1 EBT     -0.097000
      7 OAA         2.7270    2.9220   -4.7420 oh        1 EBT     -0.124000
      8 OAB         5.4510    1.8270   -3.4670 os        1 EBT     -0.198000
      9 NAF         4.5150    4.7150   -3.1270 n8        1 EBT     -0.381000
     10 CAJ         4.4600    5.7310   -4.1560 c3        1 EBT     -0.095000
     11 CAK         3.0330    2.7320   -3.5180 c1        1 EBT      0.186000
     12 CAM         4.1550    1.8060   -3.0580 c2        1 EBT      0.156000
     13 CAP         6.1530    7.4290   -3.3150 c3        1 EBT     -0.063000
     14 CAR         4.8410    0.4560   -6.6000 c1        1 EBT     -0.062000
     15 CAS         6.5370    6.7940   -2.0880 c1        1 EBT     -0.184000
     16 CAT         5.2090    1.2420   -5.7740 c1        1 EBT     -0.313000
     17 CAU         6.8860    6.2890   -1.0600 c1        1 EBT     -0.209000
     18 CAV         5.7410    2.1890   -4.8390 c3        1 EBT      0.094000
     19 CD1         0.6510   -2.1230    4.5500 c3        1 EBT     -0.214000
     20 CD2         2.9310   -3.1190    4.4310 c3        1 EBT     -0.214000
     21 OXT         4.4940   -0.5340    0.2440 o         1 EBT     -0.360000
     22 HN          3.0850    1.0450   -1.5050 hn        1 EBT      0.302000
     23 HA          1.5950   -0.0690    0.7860 ho        1 EBT      0.252000
     24 HB          3.9670   -2.2260    2.2550 ha        1 EBT      0.183000
     25 HBA         1.6230   -0.2580    2.9130 ha        1 EBT      0.120000
     26 HG          2.4770   -1.1390    5.1490 hc        1 EBT      0.120000
     27 HOAA        3.2340    2.4620   -5.4500 ho        1 EBT      0.231000
     28 HNAF        3.4360    5.6760   -4.6260 h1        1 EBT      0.091000
     29 HNAA        5.3740    3.2330   -5.0420 h1        1 EBT      0.154500
     30 HAJ         5.4310    4.6770   -2.7160 hn        1 EBT      0.163500
     31 HAK         5.2180    5.4650   -4.9480 h1        1 EBT      0.091000
     32 HAR         4.5090   -0.2410   -7.3360 ha        1 EBT      0.253000
     33 HAS         6.3010    8.5420   -3.2030 hc        1 EBT      0.111000
     34 HAT         6.8380    7.0870   -4.1410 hc        1 EBT      0.111000
     35 HAU         6.8740    2.1690   -4.8300 h1        1 EBT      0.154500
     36 HAV         7.2070    5.8600   -0.1440 ha        1 EBT      0.229000
     37 HD1         0.0570   -1.1790    4.5140 hc        1 EBT      0.086833
     38 HD1A        0.2650   -2.8210    3.7700 hc        1 EBT      0.086833
     39 HD1B        0.5040   -2.5960    5.5510 hc        1 EBT      0.086833
     40 HD2         2.7090   -3.6280    5.4000 hc        1 EBT      0.086833
     41 HD2A        2.6710   -3.8170    3.5990 hc        1 EBT      0.086833
     42 HD2B        4.0260   -2.9030    4.3910 hc        1 EBT      0.086833
     43 H2          4.7230    0.5500   -1.5420 hn        1 EBT      0.302000
     44 HAF3        3.8530    4.9250   -2.4010 hn        1 EBT      0.163500
     45 CAL         4.7100    7.1700   -3.7100 c3        1 EBT     -0.189000
     46 HAL         4.0290    7.4350   -2.8600 hc        1 EBT      0.103000
     47 HALA        4.4530    7.8460   -4.5690 hc        1 EBT      0.103000
@<TRIPOS>BOND
     1    1    3 1   
     2    1    4 1   
     3    1   21 1   
     4    2   12 1   
     5    2   22 1   
     6    2   43 1   
     7    3   23 1   
     8    4    5 1   
     9    4   24 1   
    10    5    6 1   
    11    5   25 1   
    12    6   19 1   
    13    6   20 1   
    14    6   26 1   
    15    7   11 1   
    16    7   27 1   
    17    8   12 1   
    18    8   18 1   
    19    9   10 1   
    20    9   30 1   
    21    9   44 1   
    22   10   28 1   
    23   10   31 1   
    24   10   45 1   
    25   11   12 1   
    26   13   15 1   
    27   13   33 1   
    28   13   34 1   
    29   13   45 1   
    30   14   16 1   
    31   14   32 1   
    32   15   17 1   
    33   16   18 1   
    34   17   36 1   
    35   18   29 1   
    36   18   35 1   
    37   19   37 1   
    38   19   38 1   
    39   19   39 1   
    40   20   40 1   
    41   20   41 1   
    42   20   42 1   
    43   45   46 1   
    44   45   47 1   
@<TRIPOS>SUBSTRUCTURE
     1 EBT         1 TEMP              0 ****  ****    0 ROOT
