@<TRIPOS>MOLECULE
EBT
   45    45     1     0     0
SMALL
bcc


@<TRIPOS>ATOM
      1 C          -4.0740   -0.6900   -1.2990 c         1 EBT      0.912600
      2 N          -1.7630   -0.4340   -0.3780 n         1 EBT     -0.504900
      3 O          -3.5360   -1.3570   -2.2280 o         1 EBT     -0.826300
      4 CA         -3.1310    0.0400   -0.2640 c3        1 EBT     -0.060300
      5 CB         -3.2760    1.5440   -0.5130 c3        1 EBT     -0.067400
      6 CG         -2.5800    2.4300    0.5060 c3        1 EBT     -0.064700
      7 OAA         0.7200   -2.2380    1.5690 oh        1 EBT     -0.603800
      8 OAB        -1.2580   -0.4690    1.8880 o         1 EBT     -0.655100
      9 NAF         1.0810    0.5340   -0.8970 n3        1 EBT     -0.910800
     10 CAJ         1.4520   -0.4750    0.0690 c3        1 EBT      0.153500
     11 CAK         0.3340   -1.4990    0.4270 c3        1 EBT      0.027100
     12 CAM        -0.9970   -0.7730    0.6990 c         1 EBT      0.607100
     13 CAP         3.9350   -0.4920   -0.3440 ca        1 EBT     -0.059300
     14 CAR         4.8210   -0.6240    0.7330 ca        1 EBT     -0.118000
     15 CAS         4.2550    0.3860   -1.3870 ca        1 EBT     -0.118000
     16 CAT         6.0060    0.1080    0.7650 ca        1 EBT     -0.138000
     17 CAU         5.4410    1.1170   -1.3520 ca        1 EBT     -0.138000
     18 CAV         6.3200    0.9790   -0.2780 ca        1 EBT     -0.142000
     19 CD1        -2.6700    3.8800    0.0720 c3        1 EBT     -0.089600
     20 CD2        -3.1680    2.2590    1.8910 c3        1 EBT     -0.089600
     21 OXT        -5.3090   -0.5480   -1.1180 o         1 EBT     -0.826300
     22 HN         -1.5950   -0.9170   -1.2420 hn        1 EBT      0.327500
     23 HA         -3.5150   -0.1930    0.7710 h1        1 EBT      0.067700
     24 HB         -2.8900    1.7910   -1.5370 hc        1 EBT      0.051200
     25 HBA        -4.3800    1.7570   -0.5080 hc        1 EBT      0.051200
     26 HG         -1.4910    2.1430    0.5520 hc        1 EBT      0.037700
     27 HOAA        0.4520   -1.7310    2.3510 ho        1 EBT      0.426000
     28 HNAF        0.7010    0.1160   -1.7240 hn        1 EBT      0.360300
     29 HNAA        0.4040    1.1620   -0.5070 hn        1 EBT      0.360300
     30 HAJ         1.7240    0.0590    1.0280 h1        1 EBT      0.067700
     31 HAK         0.2250   -2.2650   -0.3910 h1        1 EBT      0.081700
     32 HAR         4.5750   -1.3070    1.5600 ha        1 EBT      0.137500
     33 HAS         3.5540    0.5080   -2.2270 ha        1 EBT      0.137500
     34 HAT         6.6940   -0.0010    1.6160 ha        1 EBT      0.121500
     35 HAU         5.6810    1.8080   -2.1730 ha        1 EBT      0.121500
     36 HAV         7.2540    1.5560   -0.2520 ha        1 EBT      0.119000
     37 HD1        -3.7370    4.2040    0.0160 hc        1 EBT      0.027700
     38 HD1A       -2.1380    4.5400    0.7980 hc        1 EBT      0.027700
     39 HD1B       -2.2070    4.0160   -0.9350 hc        1 EBT      0.027700
     40 HD2        -2.9170    1.2430    2.2880 hc        1 EBT      0.027700
     41 HD2A       -2.7500    3.0250    2.5890 hc        1 EBT      0.027700
     42 HD2B       -4.2780    2.3710    1.8650 hc        1 EBT      0.027700
     43 CAL         2.6800   -1.2900   -0.3820 c3        1 EBT     -0.036100
     44 HAL         2.7680   -2.1730    0.3080 hc        1 EBT      0.057200
     45 HALA        2.5150   -1.6850   -1.4200 hc        1 EBT      0.057200
@<TRIPOS>BOND
     1    1    3 1   
     2    1    4 1   
     3    1   21 1   
     4    2    4 1   
     5    2   12 1   
     6    2   22 1   
     7    4    5 1   
     8    4   23 1   
     9    5    6 1   
    10    5   24 1   
    11    5   25 1   
    12    6   19 1   
    13    6   20 1   
    14    6   26 1   
    15    7   11 1   
    16    7   27 1   
    17    8   12 2   
    18    9   10 1   
    19    9   28 1   
    20    9   29 1   
    21   10   11 1   
    22   10   30 1   
    23   10   43 1   
    24   11   12 1   
    25   11   31 1   
    26   13   14 ar  
    27   13   15 ar  
    28   13   43 1   
    29   14   16 ar  
    30   14   32 1   
    31   15   17 ar  
    32   15   33 1   
    33   16   18 ar  
    34   16   34 1   
    35   17   18 ar  
    36   17   35 1   
    37   18   36 1   
    38   19   37 1   
    39   19   38 1   
    40   19   39 1   
    41   20   40 1   
    42   20   41 1   
    43   20   42 1   
    44   43   44 1   
    45   43   45 1   
@<TRIPOS>SUBSTRUCTURE
     1 EBT         1 TEMP              0 ****  ****    0 ROOT
