@<TRIPOS>MOLECULE
EBW
   68    69     1     0     0
SMALL
bcc


@<TRIPOS>ATOM
      1 C1          0.1970    0.0030    0.3410 c         1 EBW      0.561100
      2 C2          1.6980   -0.0900    0.4050 c3        1 EBW     -0.177400
      3 C5         -0.5000    0.0930    1.6730 c3        1 EBW     -0.177400
      4 C6          2.2700   -0.7320   -0.8460 c3        1 EBW     -0.054100
      5 C7          3.7310   -0.4980   -1.0020 ca        1 EBW     -0.024300
      6 C8          4.6390   -1.5590   -0.9040 ca        1 EBW     -0.110500
      7 C9          5.9980   -1.3590   -1.1210 ca        1 EBW     -0.102500
      8 C10         6.4820   -0.0740   -1.4440 ca        1 EBW     -0.035400
      9 C11         5.5770    0.9980   -1.5270 ca        1 EBW     -0.102500
     10 N1         -5.4410   -0.0990    6.0180 n4        1 EBW     -0.477200
     11 N2          7.9350    0.0970   -1.6960 n4        1 EBW     -0.477200
     12 C12         4.2190    0.7780   -1.3070 ca        1 EBW     -0.110500
     13 C13        -1.8670    0.7380    1.5430 c3        1 EBW     -0.054100
     14 C14        -2.7350    0.5010    2.7280 ca        1 EBW     -0.024300
     15 C15        -3.1030    1.5610    3.5670 ca        1 EBW     -0.110500
     16 C16        -3.9710    1.3590    4.6340 ca        1 EBW     -0.102500
     17 C17        -4.4960    0.0740    4.8870 ca        1 EBW     -0.035400
     18 C18        -4.1160   -0.9960    4.0590 ca        1 EBW     -0.102500
     19 C19        -3.2450   -0.7740    2.9940 ca        1 EBW     -0.110500
     20 C20        -6.6010    0.8290    5.8280 c3        1 EBW      0.094600
     21 C21        -4.7390    0.2340    7.2960 c3        1 EBW      0.094600
     22 C22        -5.9650   -1.5200    6.0950 c3        1 EBW      0.164000
     23 C23        -6.9130   -1.7540    7.2210 c2        1 EBW     -0.264200
     24 C24         8.2660    1.5180   -2.1060 c3        1 EBW      0.164000
     25 C25         8.6880   -0.2420   -0.4490 c3        1 EBW      0.094600
     26 C26         8.3490   -0.8290   -2.7980 c3        1 EBW      0.094600
     27 C27         9.7160    1.7510   -2.3620 c2        1 EBW     -0.264200
     28 C28        10.1960    2.0590   -3.5670 c2        1 EBW     -0.114000
     29 C29        -8.1970   -2.0590    7.0320 c2        1 EBW     -0.114000
     30 O1         -0.4190    0.0050   -0.7280 o         1 EBW     -0.510100
     31 H22         2.0980    0.9540    0.5230 hc        1 EBW      0.072700
     32 H21         2.0010   -0.6730    1.3140 hc        1 EBW      0.072700
     33 H52        -0.5990   -0.9520    2.0740 hc        1 EBW      0.072700
     34 H51         0.1360    0.6720    2.3920 hc        1 EBW      0.072700
     35 H62         2.0560   -1.8350   -0.8230 hc        1 EBW      0.084700
     36 H61         1.7380   -0.3150   -1.7480 hc        1 EBW      0.084700
     37 H8          4.2770   -2.5730   -0.6630 ha        1 EBW      0.165500
     38 H9          6.6740   -2.2260   -1.0400 ha        1 EBW      0.154000
     39 H11         5.8930    2.0250   -1.7700 ha        1 EBW      0.154000
     40 H12         3.5180    1.6260   -1.3890 ha        1 EBW      0.165500
     41 H132       -1.7390    1.8400    1.3720 hc        1 EBW      0.084700
     42 H131       -2.3830    0.3240    0.6290 hc        1 EBW      0.084700
     43 H15        -2.7120    2.5750    3.3770 ha        1 EBW      0.165500
     44 H16        -4.2380    2.2240    5.2630 ha        1 EBW      0.154000
     45 H18        -4.4860   -2.0230    4.2080 ha        1 EBW      0.154000
     46 H19        -2.9670   -1.6210    2.3440 ha        1 EBW      0.165500
     47 H203       -6.2550    1.8920    5.9110 hx        1 EBW      0.099867
     48 H202       -7.3680    0.6210    6.6220 hx        1 EBW      0.099867
     49 H201       -7.0470    0.6570    4.8130 hx        1 EBW      0.099867
     50 H213       -5.4760    0.2030    8.1410 hx        1 EBW      0.099867
     51 H212       -4.2940    1.2620    7.2280 hx        1 EBW      0.099867
     52 H211       -3.9220   -0.5140    7.4730 hx        1 EBW      0.099867
     53 H222       -5.0710   -2.1970    6.2300 hx        1 EBW      0.100200
     54 H221       -6.4610   -1.7410    5.1060 hx        1 EBW      0.100200
     55 H23        -6.4680   -1.7470    8.2310 ha        1 EBW      0.151000
     56 H242        7.6590    1.7440   -3.0300 hx        1 EBW      0.100200
     57 H241        7.9370    2.1940   -1.2630 hx        1 EBW      0.100200
     58 H253        8.4350    0.5050    0.3490 hx        1 EBW      0.099867
     59 H252        8.4050   -1.2700   -0.1010 hx        1 EBW      0.099867
     60 H251        9.7900   -0.2120   -0.6640 hx        1 EBW      0.099867
     61 H263        9.4210   -0.6210   -3.0640 hx        1 EBW      0.099867
     62 H262        8.2460   -1.8930   -2.4600 hx        1 EBW      0.099867
     63 H261        7.6940   -0.6530   -3.6920 hx        1 EBW      0.099867
     64 H27        10.3670    1.7400   -1.4720 ha        1 EBW      0.151000
     65 H282        9.5760    2.1020   -4.4740 ha        1 EBW      0.143500
     66 H281       11.2590    2.3050   -3.7200 ha        1 EBW      0.143500
     67 H292       -8.6720   -2.0980    6.0400 ha        1 EBW      0.143500
     68 H291       -8.8630   -2.3060    7.8750 ha        1 EBW      0.143500
@<TRIPOS>BOND
     1    1    2 1   
     2    1    3 1   
     3    1   30 2   
     4    2    4 1   
     5    2   31 1   
     6    2   32 1   
     7    3   13 1   
     8    3   33 1   
     9    3   34 1   
    10    4    5 1   
    11    4   35 1   
    12    4   36 1   
    13    5    6 ar  
    14    5   12 ar  
    15    6    7 ar  
    16    6   37 1   
    17    7    8 ar  
    18    7   38 1   
    19    8    9 ar  
    20    8   11 1   
    21    9   12 ar  
    22    9   39 1   
    23   10   17 1   
    24   10   20 1   
    25   10   21 1   
    26   10   22 1   
    27   11   24 1   
    28   11   25 1   
    29   11   26 1   
    30   12   40 1   
    31   13   14 1   
    32   13   41 1   
    33   13   42 1   
    34   14   15 ar  
    35   14   19 ar  
    36   15   16 ar  
    37   15   43 1   
    38   16   17 ar  
    39   16   44 1   
    40   17   18 ar  
    41   18   19 ar  
    42   18   45 1   
    43   19   46 1   
    44   20   47 1   
    45   20   48 1   
    46   20   49 1   
    47   21   50 1   
    48   21   51 1   
    49   21   52 1   
    50   22   23 1   
    51   22   53 1   
    52   22   54 1   
    53   23   29 2   
    54   23   55 1   
    55   24   27 1   
    56   24   56 1   
    57   24   57 1   
    58   25   58 1   
    59   25   59 1   
    60   25   60 1   
    61   26   61 1   
    62   26   62 1   
    63   26   63 1   
    64   27   28 2   
    65   27   64 1   
    66   28   65 1   
    67   28   66 1   
    68   29   67 1   
    69   29   68 1   
@<TRIPOS>SUBSTRUCTURE
     1 EBW         1 TEMP              0 ****  ****    0 ROOT
