@<TRIPOS>MOLECULE
EBW
   68    62     1     0     0
SMALL
bcc


@<TRIPOS>ATOM
      1 C1         -2.5150    0.1050   -2.5160 c1        1 EBW      0.224000
      2 C2         -0.9260    0.3540   -2.6090 c2        1 EBW     -0.206000
      3 C5         -3.2380    0.3800   -1.2450 c3        1 EBW     -0.208000
      4 C6         -0.4550    0.0720   -4.0020 c3        1 EBW     -0.140000
      5 C7          1.0630   -0.4390   -3.9530 c2        1 EBW     -0.017000
      6 C8          2.0950    0.4730   -3.9360 c1        1 EBW     -0.110000
      7 C9          3.4220    0.0320   -3.8360 c1        1 EBW     -0.101000
      8 C10         3.6970   -1.3460   -3.7520 c1        1 EBW     -0.118500
      9 C11         2.6330   -2.2780   -3.7700 c1        1 EBW     -0.106000
     10 N1         -3.4770    1.8140    5.1980 n4        1 EBW      0.079500
     11 N2          5.0680   -1.8180   -3.7160 n4        1 EBW      0.079500
     12 C12         1.3400   -1.8370   -3.8680 c2        1 EBW     -0.110000
     13 C13        -2.5210   -0.4260   -0.0250 c3        1 EBW     -0.142000
     14 C14        -2.8040    0.3080    1.3330 c2        1 EBW     -0.011000
     15 C15        -1.7480    0.7960    2.0910 c2        1 EBW     -0.120000
     16 C16        -1.9860    1.2960    3.4060 c1        1 EBW     -0.096000
     17 C17        -3.2400    1.2930    3.9130 c1        1 EBW     -0.118500
     18 C18        -4.3200    0.7960    3.1430 c1        1 EBW     -0.101000
     19 C19        -4.0970    0.3090    1.8670 c1        1 EBW     -0.108000
     20 C20        -4.3340    0.9090    5.9230 c3        1 EBW     -0.181500
     21 C21        -2.2190    1.9570    5.9090 c3        1 EBW     -0.181500
     22 C22        -4.1090    3.0930    5.0800 c3        1 EBW     -0.075000
     23 C23        -4.3070    3.7190    6.5040 c2        1 EBW     -0.259500
     24 C24         5.1520   -3.0020   -2.8700 c3        1 EBW     -0.075000
     25 C25         5.8950   -0.8040   -3.2020 c3        1 EBW     -0.181500
     26 C26         5.5100   -2.1610   -5.0880 c3        1 EBW     -0.181500
     27 C27         6.5750   -3.4750   -2.8210 c2        1 EBW     -0.259500
     28 C28         6.8580   -4.7850   -2.9890 c1        1 EBW     -0.114500
     29 C29        -5.4090    4.5750    6.7510 c1        1 EBW     -0.114500
     30 O1         -3.1100   -0.2640   -3.4630 o         1 EBW     -0.272000
     31 H22        -0.4760   -0.2260   -1.9990 ha        1 EBW      0.111000
     32 H21        -0.7040    1.3880   -2.3530 ha        1 EBW      0.111000
     33 H52        -3.2160    1.3310   -1.0640 hc        1 EBW      0.112000
     34 H51        -4.1880    0.0770   -1.3300 hc        1 EBW      0.112000
     35 H62        -0.5090    0.8740   -4.5270 hc        1 EBW      0.124000
     36 H61        -1.0620   -0.6720   -4.4340 hc        1 EBW      0.124000
     37 H8          1.8920    1.4650   -3.9950 ha        1 EBW      0.165000
     38 H9          4.1920    0.7150   -3.8230 ha        1 EBW      0.155000
     39 H11         2.8140   -3.2160   -3.7130 ha        1 EBW      0.151000
     40 H12         0.5720   -2.5070   -3.8830 ha        1 EBW      0.165000
     41 H132       -1.4970   -0.4650   -0.1900 hc        1 EBW      0.128000
     42 H131       -2.8780   -1.3250    0.0180 hc        1 EBW      0.128000
     43 H15        -0.8690    0.7990    1.7350 ha        1 EBW      0.158000
     44 H16        -1.2800    1.6220    3.9170 ha        1 EBW      0.154000
     45 H18        -5.2210    0.7940    3.5140 ha        1 EBW      0.155000
     46 H19        -4.8970   -0.0570    1.3020 ha        1 EBW      0.170000
     47 H203       -5.1810    0.8570    5.4880 hx        1 EBW      0.139667
     48 H202       -3.9140    0.0020    5.9430 hx        1 EBW      0.139667
     49 H201       -4.4710    1.2730    6.9520 hx        1 EBW      0.139667
     50 H213       -1.7560    2.7000    5.5760 hx        1 EBW      0.139667
     51 H212       -2.3990    2.0850    6.8670 hx        1 EBW      0.139667
     52 H211       -1.6470    1.1090    5.7790 hx        1 EBW      0.139667
     53 H222       -4.9960    2.9830    4.6390 hx        1 EBW      0.139000
     54 H221       -3.5690    3.6680    4.5580 hx        1 EBW      0.139000
     55 H23        -3.6820    3.5240    7.2050 ha        1 EBW      0.150500
     56 H242        4.8510   -2.7820   -1.9710 hx        1 EBW      0.139000
     57 H241        4.5910   -3.6990   -3.2350 hx        1 EBW      0.139000
     58 H253        6.8100   -1.1600   -3.0610 hx        1 EBW      0.139667
     59 H252        5.5220   -0.4780   -2.3250 hx        1 EBW      0.139667
     60 H251        5.9300   -0.0480   -3.8490 hx        1 EBW      0.139667
     61 H263        6.5400   -2.2710   -5.1030 hx        1 EBW      0.139667
     62 H262        5.2510   -1.4530   -5.6930 hx        1 EBW      0.139667
     63 H261        5.1100   -2.9640   -5.3550 hx        1 EBW      0.139667
     64 H27         7.3420   -2.7950   -2.6600 ha        1 EBW      0.150500
     65 H282        6.1760   -5.3910   -3.1340 DU        1 EBW      0.129500
     66 H281        7.8440   -5.1120   -2.9520 ha        1 EBW      0.156000
     67 H292       -5.9870    4.7550    6.0970 DU        1 EBW      0.129500
     68 H291       -5.5320    4.9520    7.6010 ha        1 EBW      0.156000
@<TRIPOS>BOND
     1    1    3 1   
     2    1   30 1   
     3    2    4 1   
     4    2   31 1   
     5    2   32 1   
     6    3   13 1   
     7    3   33 1   
     8    3   34 1   
     9    4    5 1   
    10    4   35 1   
    11    4   36 1   
    12    5    6 1   
    13    5   12 1   
    14    6   37 1   
    15    7    8 1   
    16    7   38 1   
    17    8   11 1   
    18    9   12 1   
    19    9   39 1   
    20   10   17 1   
    21   10   20 1   
    22   10   21 1   
    23   10   22 1   
    24   11   24 1   
    25   11   25 1   
    26   11   26 1   
    27   12   40 1   
    28   13   14 1   
    29   13   41 1   
    30   13   42 1   
    31   14   15 1   
    32   14   19 1   
    33   15   16 1   
    34   15   43 1   
    35   16   44 1   
    36   17   18 1   
    37   18   45 1   
    38   19   46 1   
    39   20   47 1   
    40   20   48 1   
    41   20   49 1   
    42   21   50 1   
    43   21   51 1   
    44   21   52 1   
    45   22   23 1   
    46   22   53 1   
    47   22   54 1   
    48   23   29 1   
    49   23   55 1   
    50   24   27 1   
    51   24   56 1   
    52   24   57 1   
    53   25   58 1   
    54   25   59 1   
    55   25   60 1   
    56   26   61 1   
    57   26   62 1   
    58   26   63 1   
    59   27   28 1   
    60   27   64 1   
    61   28   66 1   
    62   29   68 1   
@<TRIPOS>SUBSTRUCTURE
     1 EBW         1 TEMP              0 ****  ****    0 ROOT
