@<TRIPOS>MOLECULE
EBW
   68    69     1     0     0
SMALL
bcc


@<TRIPOS>ATOM
      1 C1          0.2000   -0.0050    0.3450 c         1 EBW      0.561100
      2 C2          1.7010   -0.0930    0.4090 c3        1 EBW     -0.177400
      3 C5         -0.4970    0.0870    1.6770 c3        1 EBW     -0.177400
      4 C6          2.2750   -0.7390   -0.8380 c3        1 EBW     -0.054100
      5 C7          3.7340   -0.4990   -0.9980 ca        1 EBW     -0.024300
      6 C8          4.6480   -1.5560   -0.8950 ca        1 EBW     -0.110500
      7 C9          6.0050   -1.3490   -1.1140 ca        1 EBW     -0.102500
      8 C10         6.4830   -0.0640   -1.4450 ca        1 EBW     -0.035400
      9 C11         5.5730    1.0030   -1.5320 ca        1 EBW     -0.102500
     10 N1         -5.4420   -0.1070    6.0190 n4        1 EBW     -0.477200
     11 N2          7.9340    0.1130   -1.7000 n4        1 EBW     -0.477200
     12 C12         4.2160    0.7770   -1.3090 ca        1 EBW     -0.110500
     13 C13        -1.8670    0.7280    1.5450 c3        1 EBW     -0.054100
     14 C14        -2.7350    0.4920    2.7300 ca        1 EBW     -0.024300
     15 C15        -3.1070    1.5530    3.5650 ca        1 EBW     -0.110500
     16 C16        -3.9760    1.3510    4.6320 ca        1 EBW     -0.102500
     17 C17        -4.4960    0.0650    4.8880 ca        1 EBW     -0.035400
     18 C18        -4.1120   -1.0060    4.0640 ca        1 EBW     -0.102500
     19 C19        -3.2400   -0.7840    3.0000 ca        1 EBW     -0.110500
     20 C20        -6.6050    0.8150    5.8250 c3        1 EBW      0.094600
     21 C21        -4.7420    0.2320    7.2960 c3        1 EBW      0.094600
     22 C22        -5.9600   -1.5300    6.1000 c3        1 EBW      0.164000
     23 C23        -6.9090   -1.7650    7.2260 c2        1 EBW     -0.264200
     24 C24         8.2580    1.5340   -2.1170 c3        1 EBW      0.164000
     25 C25         8.6910   -0.2150   -0.4510 c3        1 EBW      0.094600
     26 C26         8.3520   -0.8160   -2.7970 c3        1 EBW      0.094600
     27 C27         9.7070    1.7720   -2.3770 c2        1 EBW     -0.264200
     28 C28        10.1840    2.0750   -3.5840 c2        1 EBW     -0.114000
     29 C29        -8.1910   -2.0740    7.0370 c2        1 EBW     -0.114000
     30 O1         -0.4170   -0.0100   -0.7230 o         1 EBW     -0.510100
     31 H22         2.0060   -0.6690    1.3210 hc        1 EBW      0.072700
     32 H21         2.0960    0.9530    0.5210 hc        1 EBW      0.072700
     33 H52         0.1370    0.6710    2.3940 hc        1 EBW      0.072700
     34 H51        -0.5940   -0.9570    2.0820 hc        1 EBW      0.072700
     35 H62         2.0660   -1.8430   -0.8090 hc        1 EBW      0.084700
     36 H61         1.7390   -0.3310   -1.7430 hc        1 EBW      0.084700
     37 H8          4.2920   -2.5700   -0.6480 ha        1 EBW      0.165500
     38 H9          6.6860   -2.2130   -1.0290 ha        1 EBW      0.154000
     39 H11         5.8830    2.0310   -1.7810 ha        1 EBW      0.154000
     40 H12         3.5110    1.6210   -1.3960 ha        1 EBW      0.165500
     41 H132       -1.7410    1.8310    1.3710 hc        1 EBW      0.084700
     42 H131       -2.3810    0.3110    0.6310 hc        1 EBW      0.084700
     43 H15        -2.7190    2.5680    3.3730 ha        1 EBW      0.165500
     44 H16        -4.2470    2.2170    5.2580 ha        1 EBW      0.154000
     45 H18        -4.4780   -2.0340    4.2150 ha        1 EBW      0.154000
     46 H19        -2.9590   -1.6320    2.3520 ha        1 EBW      0.165500
     47 H203       -7.3730    0.6060    6.6180 hx        1 EBW      0.099867
     48 H202       -7.0500    0.6380    4.8100 hx        1 EBW      0.099867
     49 H201       -6.2640    1.8800    5.9050 hx        1 EBW      0.099867
     50 H213       -5.4810    0.2010    8.1410 hx        1 EBW      0.099867
     51 H212       -4.3010    1.2610    7.2250 hx        1 EBW      0.099867
     52 H211       -3.9230   -0.5130    7.4770 hx        1 EBW      0.099867
     53 H222       -5.0640   -2.2040    6.2370 hx        1 EBW      0.100200
     54 H221       -6.4550   -1.7570    5.1110 hx        1 EBW      0.100200
     55 H23        -6.4650   -1.7530    8.2360 ha        1 EBW      0.151000
     56 H242        7.6490    1.7510   -3.0420 hx        1 EBW      0.100200
     57 H241        7.9260    2.2120   -1.2780 hx        1 EBW      0.100200
     58 H253        9.7920   -0.1810   -0.6680 hx        1 EBW      0.099867
     59 H252        8.4340    0.5350    0.3430 hx        1 EBW      0.099867
     60 H251        8.4130   -1.2430   -0.0980 hx        1 EBW      0.099867
     61 H263        8.2550   -1.8790   -2.4530 hx        1 EBW      0.099867
     62 H262        9.4220   -0.6050   -3.0650 hx        1 EBW      0.099867
     63 H261        7.6950   -0.6490   -3.6910 hx        1 EBW      0.099867
     64 H27        10.3590    1.7690   -1.4870 ha        1 EBW      0.151000
     65 H282        9.5620    2.1100   -4.4910 ha        1 EBW      0.143500
     66 H281       11.2450    2.3250   -3.7400 ha        1 EBW      0.143500
     67 H292       -8.6650   -2.1180    6.0440 ha        1 EBW      0.143500
     68 H291       -8.8570   -2.3220    7.8790 ha        1 EBW      0.143500
@<TRIPOS>BOND
     1    1    2 1   
     2    1    3 1   
     3    1   30 2   
     4    2    4 1   
     5    2   31 1   
     6    2   32 1   
     7    3   13 1   
     8    3   33 1   
     9    3   34 1   
    10    4    5 1   
    11    4   35 1   
    12    4   36 1   
    13    5    6 ar  
    14    5   12 ar  
    15    6    7 ar  
    16    6   37 1   
    17    7    8 ar  
    18    7   38 1   
    19    8    9 ar  
    20    8   11 1   
    21    9   12 ar  
    22    9   39 1   
    23   10   17 1   
    24   10   20 1   
    25   10   21 1   
    26   10   22 1   
    27   11   24 1   
    28   11   25 1   
    29   11   26 1   
    30   12   40 1   
    31   13   14 1   
    32   13   41 1   
    33   13   42 1   
    34   14   15 ar  
    35   14   19 ar  
    36   15   16 ar  
    37   15   43 1   
    38   16   17 ar  
    39   16   44 1   
    40   17   18 ar  
    41   18   19 ar  
    42   18   45 1   
    43   19   46 1   
    44   20   47 1   
    45   20   48 1   
    46   20   49 1   
    47   21   50 1   
    48   21   51 1   
    49   21   52 1   
    50   22   23 1   
    51   22   53 1   
    52   22   54 1   
    53   23   29 2   
    54   23   55 1   
    55   24   27 1   
    56   24   56 1   
    57   24   57 1   
    58   25   58 1   
    59   25   59 1   
    60   25   60 1   
    61   26   61 1   
    62   26   62 1   
    63   26   63 1   
    64   27   28 2   
    65   27   64 1   
    66   28   65 1   
    67   28   66 1   
    68   29   67 1   
    69   29   68 1   
@<TRIPOS>SUBSTRUCTURE
     1 EBW         1 TEMP              0 ****  ****    0 ROOT
