@<TRIPOS>MOLECULE
EBW
   68    69     1     0     0
SMALL
bcc


@<TRIPOS>ATOM
      1 C1          0.2010    0.0000    0.3480 c         1 EBW      0.561100
      2 C2          1.7020   -0.0920    0.4120 c3        1 EBW     -0.177400
      3 C5         -0.4960    0.0930    1.6800 c3        1 EBW     -0.177400
      4 C6          2.2740   -0.7400   -0.8360 c3        1 EBW     -0.054100
      5 C7          3.7330   -0.5030   -0.9960 ca        1 EBW     -0.024300
      6 C8          4.6440   -1.5620   -0.8940 ca        1 EBW     -0.110500
      7 C9          6.0030   -1.3590   -1.1140 ca        1 EBW     -0.102500
      8 C10         6.4830   -0.0760   -1.4450 ca        1 EBW     -0.035400
      9 C11         5.5760    0.9940   -1.5310 ca        1 EBW     -0.102500
     10 N1         -5.4440   -0.0970    6.0180 n4        1 EBW     -0.477200
     11 N2          7.9350    0.0970   -1.7000 n4        1 EBW     -0.477200
     12 C12         4.2190    0.7720   -1.3080 ca        1 EBW     -0.110500
     13 C13        -1.8620    0.7400    1.5490 c3        1 EBW     -0.054100
     14 C14        -2.7320    0.5030    2.7320 ca        1 EBW     -0.024300
     15 C15        -3.0990    1.5620    3.5720 ca        1 EBW     -0.110500
     16 C16        -3.9690    1.3600    4.6380 ca        1 EBW     -0.102500
     17 C17        -4.4960    0.0760    4.8880 ca        1 EBW     -0.035400
     18 C18        -4.1170   -0.9940    4.0600 ca        1 EBW     -0.102500
     19 C19        -3.2440   -0.7720    2.9970 ca        1 EBW     -0.110500
     20 C20        -6.6020    0.8330    5.8270 c3        1 EBW      0.094600
     21 C21        -4.7420    0.2330    7.2970 c3        1 EBW      0.094600
     22 C22        -5.9690   -1.5180    6.0930 c3        1 EBW      0.164000
     23 C23        -6.9200   -1.7520    7.2170 c2        1 EBW     -0.264200
     24 C24         8.2630    1.5180   -2.1170 c3        1 EBW      0.164000
     25 C25         8.6920   -0.2320   -0.4520 c3        1 EBW      0.094600
     26 C26         8.3500   -0.8330   -2.7970 c3        1 EBW      0.094600
     27 C27         9.7120    1.7520   -2.3770 c2        1 EBW     -0.264200
     28 C28        10.1890    2.0540   -3.5840 c2        1 EBW     -0.114000
     29 C29        -8.2040   -2.0540    7.0260 c2        1 EBW     -0.114000
     30 O1         -0.4150   -0.0000   -0.7210 o         1 EBW     -0.510100
     31 H22         2.0060   -0.6710    1.3230 hc        1 EBW      0.072700
     32 H21         2.1010    0.9520    0.5250 hc        1 EBW      0.072700
     33 H52         0.1410    0.6720    2.3980 hc        1 EBW      0.072700
     34 H51        -0.5970   -0.9520    2.0820 hc        1 EBW      0.072700
     35 H62         2.0620   -1.8430   -0.8080 hc        1 EBW      0.084700
     36 H61         1.7390   -0.3290   -1.7410 hc        1 EBW      0.084700
     37 H8          4.2860   -2.5760   -0.6470 ha        1 EBW      0.165500
     38 H9          6.6810   -2.2250   -1.0290 ha        1 EBW      0.154000
     39 H11         5.8890    2.0210   -1.7800 ha        1 EBW      0.154000
     40 H12         3.5160    1.6180   -1.3940 ha        1 EBW      0.165500
     41 H132       -1.7320    1.8430    1.3800 hc        1 EBW      0.084700
     42 H131       -2.3770    0.3290    0.6340 hc        1 EBW      0.084700
     43 H15        -2.7060    2.5760    3.3850 ha        1 EBW      0.165500
     44 H16        -4.2360    2.2250    5.2680 ha        1 EBW      0.154000
     45 H18        -4.4890   -2.0210    4.2060 ha        1 EBW      0.154000
     46 H19        -2.9670   -1.6180    2.3450 ha        1 EBW      0.165500
     47 H203       -7.3700    0.6240    6.6200 hx        1 EBW      0.099867
     48 H202       -7.0470    0.6630    4.8120 hx        1 EBW      0.099867
     49 H201       -6.2550    1.8950    5.9130 hx        1 EBW      0.099867
     50 H213       -5.4820    0.2020    8.1410 hx        1 EBW      0.099867
     51 H212       -4.2960    1.2600    7.2310 hx        1 EBW      0.099867
     52 H211       -3.9280   -0.5170    7.4750 hx        1 EBW      0.099867
     53 H222       -5.0770   -2.1960    6.2280 hx        1 EBW      0.100200
     54 H221       -6.4640   -1.7370    5.1030 hx        1 EBW      0.100200
     55 H23        -6.4760   -1.7470    8.2270 ha        1 EBW      0.151000
     56 H242        7.6540    1.7370   -3.0420 hx        1 EBW      0.100200
     57 H241        7.9330    2.1970   -1.2770 hx        1 EBW      0.100200
     58 H253        9.7920   -0.2020   -0.6690 hx        1 EBW      0.099867
     59 H252        8.4370    0.5180    0.3420 hx        1 EBW      0.099867
     60 H251        8.4110   -1.2600   -0.0990 hx        1 EBW      0.099867
     61 H263        8.2500   -1.8950   -2.4540 hx        1 EBW      0.099867
     62 H262        9.4210   -0.6240   -3.0660 hx        1 EBW      0.099867
     63 H261        7.6940   -0.6630   -3.6910 hx        1 EBW      0.099867
     64 H27        10.3640    1.7480   -1.4880 ha        1 EBW      0.151000
     65 H282        9.5670    2.0910   -4.4910 ha        1 EBW      0.143500
     66 H281       11.2510    2.3020   -3.7410 ha        1 EBW      0.143500
     67 H292       -8.6770   -2.0910    6.0330 ha        1 EBW      0.143500
     68 H291       -8.8710   -2.3020    7.8670 ha        1 EBW      0.143500
@<TRIPOS>BOND
     1    1    2 1   
     2    1    3 1   
     3    1   30 2   
     4    2    4 1   
     5    2   31 1   
     6    2   32 1   
     7    3   13 1   
     8    3   33 1   
     9    3   34 1   
    10    4    5 1   
    11    4   35 1   
    12    4   36 1   
    13    5    6 ar  
    14    5   12 ar  
    15    6    7 ar  
    16    6   37 1   
    17    7    8 ar  
    18    7   38 1   
    19    8    9 ar  
    20    8   11 1   
    21    9   12 ar  
    22    9   39 1   
    23   10   17 1   
    24   10   20 1   
    25   10   21 1   
    26   10   22 1   
    27   11   24 1   
    28   11   25 1   
    29   11   26 1   
    30   12   40 1   
    31   13   14 1   
    32   13   41 1   
    33   13   42 1   
    34   14   15 ar  
    35   14   19 ar  
    36   15   16 ar  
    37   15   43 1   
    38   16   17 ar  
    39   16   44 1   
    40   17   18 ar  
    41   18   19 ar  
    42   18   45 1   
    43   19   46 1   
    44   20   47 1   
    45   20   48 1   
    46   20   49 1   
    47   21   50 1   
    48   21   51 1   
    49   21   52 1   
    50   22   23 1   
    51   22   53 1   
    52   22   54 1   
    53   23   29 2   
    54   23   55 1   
    55   24   27 1   
    56   24   56 1   
    57   24   57 1   
    58   25   58 1   
    59   25   59 1   
    60   25   60 1   
    61   26   61 1   
    62   26   62 1   
    63   26   63 1   
    64   27   28 2   
    65   27   64 1   
    66   28   65 1   
    67   28   66 1   
    68   29   67 1   
    69   29   68 1   
@<TRIPOS>SUBSTRUCTURE
     1 EBW         1 TEMP              0 ****  ****    0 ROOT
