@<TRIPOS>MOLECULE
EBW
   68    69     1     0     0
SMALL
bcc


@<TRIPOS>ATOM
      1 C1         -0.0000   -1.2780   -0.0010 c         1 EBW      0.561100
      2 C2         -1.2620   -0.4720   -0.1640 c3        1 EBW     -0.177400
      3 C5          1.2620   -0.4730    0.1630 c3        1 EBW     -0.177400
      4 C6         -2.3420   -1.2670   -0.8740 c3        1 EBW     -0.054100
      5 C7         -3.6970   -0.6770   -0.7130 ca        1 EBW     -0.024300
      6 C8         -4.3750   -0.1320   -1.8110 ca        1 EBW     -0.110500
      7 C9         -5.6700    0.3560   -1.6810 ca        1 EBW     -0.102500
      8 C10        -6.3230    0.3090   -0.4320 ca        1 EBW     -0.035400
      9 C11        -5.6420   -0.2200    0.6780 ca        1 EBW     -0.102500
     10 N1          7.7160    0.8120    0.3370 n4        1 EBW     -0.477200
     11 N2         -7.7160    0.8140   -0.3370 n4        1 EBW     -0.477200
     12 C12        -4.3440   -0.7050    0.5280 ca        1 EBW     -0.110500
     13 C13         2.3420   -1.2690    0.8720 c3        1 EBW     -0.054100
     14 C14         3.6970   -0.6790    0.7110 ca        1 EBW     -0.024300
     15 C15         4.3750   -0.1360    1.8110 ca        1 EBW     -0.110500
     16 C16         5.6710    0.3530    1.6810 ca        1 EBW     -0.102500
     17 C17         6.3230    0.3070    0.4320 ca        1 EBW     -0.035400
     18 C18         5.6420   -0.2210   -0.6780 ca        1 EBW     -0.102500
     19 C19         4.3440   -0.7050   -0.5290 ca        1 EBW     -0.110500
     20 C20         8.5700    0.0670    1.3160 c3        1 EBW      0.094600
     21 C21         7.7290    2.2700    0.6690 c3        1 EBW      0.094600
     22 C22         8.2880    0.6140   -1.0540 c3        1 EBW      0.164000
     23 C23         9.6840    1.1130   -1.2100 c2        1 EBW     -0.264200
     24 C24        -8.2880    0.6150    1.0540 c3        1 EBW      0.164000
     25 C25        -7.7290    2.2730   -0.6660 c3        1 EBW      0.094600
     26 C26        -8.5700    0.0710   -1.3170 c3        1 EBW      0.094600
     27 C27        -9.6830    1.1130    1.2100 c2        1 EBW     -0.264200
     28 C28       -10.7160    0.3060    1.4540 c2        1 EBW     -0.114000
     29 C29        10.7160    0.3060   -1.4540 c2        1 EBW     -0.114000
     30 O1         -0.0000   -2.5120   -0.0020 o         1 EBW     -0.510100
     31 H22        -1.0360    0.4690   -0.7300 hc        1 EBW      0.072700
     32 H21        -1.6090   -0.1760    0.8630 hc        1 EBW      0.072700
     33 H52         1.6090   -0.1750   -0.8630 hc        1 EBW      0.072700
     34 H51         1.0370    0.4680    0.7310 hc        1 EBW      0.072700
     35 H62        -2.3540   -2.3180   -0.4640 hc        1 EBW      0.084700
     36 H61        -2.0820   -1.3480   -1.9640 hc        1 EBW      0.084700
     37 H8         -3.8840   -0.0970   -2.7980 ha        1 EBW      0.165500
     38 H9         -6.1660    0.7700   -2.5750 ha        1 EBW      0.154000
     39 H11        -6.0940   -0.2800    1.6810 ha        1 EBW      0.154000
     40 H12        -3.8270   -1.1320    1.4040 ha        1 EBW      0.165500
     41 H132        2.0830   -1.3510    1.9620 hc        1 EBW      0.084700
     42 H131        2.3540   -2.3190    0.4600 hc        1 EBW      0.084700
     43 H15         3.8850   -0.1020    2.7980 ha        1 EBW      0.165500
     44 H16         6.1670    0.7640    2.5760 ha        1 EBW      0.154000
     45 H18         6.0940   -0.2790   -1.6810 ha        1 EBW      0.154000
     46 H19         3.8270   -1.1300   -1.4060 ha        1 EBW      0.165500
     47 H203        9.6420    0.3700    1.1670 hx        1 EBW      0.099867
     48 H202        8.4570   -1.0350    1.1390 hx        1 EBW      0.099867
     49 H201        8.2530    0.3140    2.3630 hx        1 EBW      0.099867
     50 H213        7.2530    2.4350    1.6710 hx        1 EBW      0.099867
     51 H212        7.1550    2.8320   -0.1140 hx        1 EBW      0.099867
     52 H211        8.7920    2.6320    0.6980 hx        1 EBW      0.099867
     53 H222        7.6210    1.1780   -1.7700 hx        1 EBW      0.100200
     54 H221        8.2340   -0.4900   -1.2770 hx        1 EBW      0.100200
     55 H23         9.8040    2.2100   -1.1970 ha        1 EBW      0.151000
     56 H242       -7.6210    1.1770    1.7720 hx        1 EBW      0.100200
     57 H241       -8.2340   -0.4910    1.2760 hx        1 EBW      0.100200
     58 H253       -7.1550    2.8330    0.1180 hx        1 EBW      0.099867
     59 H252       -8.7910    2.6350   -0.6950 hx        1 EBW      0.099867
     60 H251       -7.2520    2.4390   -1.6680 hx        1 EBW      0.099867
     61 H263       -8.2520    0.3200   -2.3630 hx        1 EBW      0.099867
     62 H262       -9.6420    0.3730   -1.1680 hx        1 EBW      0.099867
     63 H261       -8.4570   -1.0310   -1.1410 hx        1 EBW      0.099867
     64 H27        -9.8040    2.2100    1.2000 ha        1 EBW      0.151000
     65 H282      -11.7260    0.7010    1.6450 ha        1 EBW      0.143500
     66 H281      -10.6320   -0.7900    1.4950 ha        1 EBW      0.143500
     67 H292       11.7260    0.7010   -1.6450 ha        1 EBW      0.143500
     68 H291       10.6320   -0.7900   -1.4970 ha        1 EBW      0.143500
@<TRIPOS>BOND
     1    1    2 1   
     2    1    3 1   
     3    1   30 2   
     4    2    4 1   
     5    2   31 1   
     6    2   32 1   
     7    3   13 1   
     8    3   33 1   
     9    3   34 1   
    10    4    5 1   
    11    4   35 1   
    12    4   36 1   
    13    5    6 ar  
    14    5   12 ar  
    15    6    7 ar  
    16    6   37 1   
    17    7    8 ar  
    18    7   38 1   
    19    8    9 ar  
    20    8   11 1   
    21    9   12 ar  
    22    9   39 1   
    23   10   17 1   
    24   10   20 1   
    25   10   21 1   
    26   10   22 1   
    27   11   24 1   
    28   11   25 1   
    29   11   26 1   
    30   12   40 1   
    31   13   14 1   
    32   13   41 1   
    33   13   42 1   
    34   14   15 ar  
    35   14   19 ar  
    36   15   16 ar  
    37   15   43 1   
    38   16   17 ar  
    39   16   44 1   
    40   17   18 ar  
    41   18   19 ar  
    42   18   45 1   
    43   19   46 1   
    44   20   47 1   
    45   20   48 1   
    46   20   49 1   
    47   21   50 1   
    48   21   51 1   
    49   21   52 1   
    50   22   23 1   
    51   22   53 1   
    52   22   54 1   
    53   23   29 2   
    54   23   55 1   
    55   24   27 1   
    56   24   56 1   
    57   24   57 1   
    58   25   58 1   
    59   25   59 1   
    60   25   60 1   
    61   26   61 1   
    62   26   62 1   
    63   26   63 1   
    64   27   28 2   
    65   27   64 1   
    66   28   65 1   
    67   28   66 1   
    68   29   67 1   
    69   29   68 1   
@<TRIPOS>SUBSTRUCTURE
     1 EBW         1 TEMP              0 ****  ****    0 ROOT
