@<TRIPOS>MOLECULE
EC2
   55    60     1     0     0
SMALL
bcc


@<TRIPOS>ATOM
      1 O23         4.2840   -2.7450    1.0780 o         1 EC2     -0.799800
      2 C21         3.0460   -2.5660    0.9290 c         1 EC2      0.927600
      3 O22         2.1260   -3.2540    1.4230 o         1 EC2     -0.799800
      4 C28         2.6710   -1.3330   -0.0060 c3        1 EC2     -0.062300
      5 C29         3.5680   -0.1420    0.3730 c3        1 EC2      0.047700
      6 C6          4.1810    0.5870   -0.7620 ca        1 EC2     -0.053300
      7 C5          5.4910    1.0740   -0.6300 ca        1 EC2     -0.114000
      8 C4          6.0960    1.7700   -1.6740 ca        1 EC2     -0.139000
      9 C3          5.4050    1.9860   -2.8660 ca        1 EC2     -0.142000
     10 C2          4.1070    1.4980   -3.0090 ca        1 EC2     -0.139000
     11 C1          3.4980    0.8010   -1.9660 ca        1 EC2     -0.114000
     12 S30         2.5110    0.9700    1.3390 ss        1 EC2     -0.246700
     13 N27         1.2750   -0.9040    0.0730 n         1 EC2     -0.306000
     14 C26         0.2140   -1.6370   -0.4960 c         1 EC2      0.721700
     15 O26         0.4260   -2.4680   -1.4000 o         1 EC2     -0.645500
     16 C22         1.0360    0.1760    0.9050 cc        1 EC2      0.204200
     17 C23        -0.2400    0.5700    1.2940 cd        1 EC2     -0.179200
     18 C18        -0.4800    1.7700    2.0990 cx        1 EC2     -0.045500
     19 C20         0.3770    3.0120    2.0210 cx        1 EC2     -0.144400
     20 C19         0.4060    2.1640    3.2570 cx        1 EC2     -0.144400
     21 C24        -1.3360   -0.2640    0.8700 cd        1 EC2      0.025800
     22 C25        -1.1160   -1.2950    0.0040 cc        1 EC2     -0.272200
     23 C17        -2.7280   -0.0870    1.3960 c3        1 EC2     -0.007900
     24 C16        -3.6640    0.5200    0.4010 ca        1 EC2     -0.043300
     25 C7         -3.6280    1.8860    0.2020 ca        1 EC2     -0.131000
     26 C8         -4.5210    2.5240   -0.6860 ca        1 EC2     -0.123000
     27 C9         -5.4560    1.7890   -1.3700 ca        1 EC2     -0.132000
     28 C10        -5.5200    0.3800   -1.2020 ca        1 EC2     -0.036000
     29 C15        -4.6130   -0.2700   -0.3220 ca        1 EC2     -0.024000
     30 C11        -6.4810   -0.3880   -1.9170 ca        1 EC2     -0.126000
     31 C12        -6.5350   -1.7510   -1.7760 ca        1 EC2     -0.130000
     32 C13        -5.6240   -2.4070   -0.9150 ca        1 EC2     -0.135000
     33 C14        -4.6900   -1.6880   -0.2110 ca        1 EC2     -0.109000
     34 H28         2.8640   -1.6740   -1.0620 h1        1 EC2      0.097700
     35 H29         4.3730   -0.5270    1.0630 h1        1 EC2      0.144700
     36 H5          6.0470    0.8920    0.3020 ha        1 EC2      0.141500
     37 H1          2.4750    0.4130   -2.0940 ha        1 EC2      0.141500
     38 H4          7.1230    2.1440   -1.5580 ha        1 EC2      0.120500
     39 H3          5.8830    2.5340   -3.6900 ha        1 EC2      0.116000
     40 H2          3.5590    1.6570   -3.9490 ha        1 EC2      0.120500
     41 H25        -1.9260   -1.9500   -0.3470 ha        1 EC2      0.146000
     42 H18        -1.5620    1.9800    2.2420 hc        1 EC2      0.065700
     43 H201        1.2600    3.0300    1.3550 hc        1 EC2      0.073200
     44 H202       -0.1300    3.9930    2.0540 hc        1 EC2      0.073200
     45 H191       -0.0710    2.5370    4.1800 hc        1 EC2      0.073200
     46 H192        1.3080    1.5600    3.4710 hc        1 EC2      0.073200
     47 H171       -3.1030   -1.0950    1.7260 hc        1 EC2      0.058700
     48 H172       -2.7320    0.5430    2.3260 hc        1 EC2      0.058700
     49 H7         -2.8860    2.5010    0.7340 ha        1 EC2      0.140000
     50 H8         -4.4540    3.6140   -0.8190 ha        1 EC2      0.125000
     51 H9         -6.1630    2.2720   -2.0610 ha        1 EC2      0.124000
     52 H11        -7.1760    0.1380   -2.5890 ha        1 EC2      0.123000
     53 H14        -3.9760   -2.2220    0.4360 ha        1 EC2      0.145000
     54 H12        -7.2750   -2.3470   -2.3290 ha        1 EC2      0.124000
     55 H13        -5.6670   -3.5020   -0.8260 ha        1 EC2      0.131000
@<TRIPOS>BOND
     1    1    2 1   
     2    2    3 1   
     3    2    4 1   
     4    4    5 1   
     5    4   13 1   
     6    4   34 1   
     7    5    6 1   
     8    5   12 1   
     9    5   35 1   
    10    6    7 ar  
    11    6   11 ar  
    12    7    8 ar  
    13    7   36 1   
    14    8    9 ar  
    15    8   38 1   
    16    9   10 ar  
    17    9   39 1   
    18   10   11 ar  
    19   10   40 1   
    20   11   37 1   
    21   12   16 1   
    22   13   14 1   
    23   13   16 1   
    24   14   15 2   
    25   14   22 1   
    26   16   17 2   
    27   17   18 1   
    28   17   21 1   
    29   18   19 1   
    30   18   20 1   
    31   18   42 1   
    32   19   20 1   
    33   19   43 1   
    34   19   44 1   
    35   20   45 1   
    36   20   46 1   
    37   21   22 2   
    38   21   23 1   
    39   22   41 1   
    40   23   24 1   
    41   23   47 1   
    42   23   48 1   
    43   24   25 ar  
    44   24   29 ar  
    45   25   26 ar  
    46   25   49 1   
    47   26   27 ar  
    48   26   50 1   
    49   27   28 ar  
    50   27   51 1   
    51   28   29 ar  
    52   28   30 ar  
    53   29   33 ar  
    54   30   31 ar  
    55   30   52 1   
    56   31   32 ar  
    57   31   54 1   
    58   32   33 ar  
    59   32   55 1   
    60   33   53 1   
@<TRIPOS>SUBSTRUCTURE
     1 EC2         1 TEMP              0 ****  ****    0 ROOT
