@<TRIPOS>MOLECULE
EC2
   55    60     1     0     0
SMALL
bcc


@<TRIPOS>ATOM
      1 O23         0.4070    0.7320   -0.4970 o         1 EC2     -0.799800
      2 C21         1.3970   -0.0180   -0.2900 c         1 EC2      0.927600
      3 O22         1.9850   -0.7310   -1.1330 o         1 EC2     -0.799800
      4 C28         1.9010   -0.0350    1.2200 c3        1 EC2     -0.062300
      5 C29         1.9240    1.4130    1.7420 c3        1 EC2      0.047700
      6 C6          1.3360    1.6190    3.0870 ca        1 EC2     -0.053300
      7 C5          0.6010    2.7880    3.3350 ca        1 EC2     -0.114000
      8 C4          0.0410    3.0190    4.5900 ca        1 EC2     -0.139000
      9 C3          0.2010    2.0840    5.6120 ca        1 EC2     -0.142000
     10 C2          0.9220    0.9150    5.3710 ca        1 EC2     -0.139000
     11 C1          1.4850    0.6820    4.1170 ca        1 EC2     -0.114000
     12 S30         3.6710    1.8990    1.7370 ss        1 EC2     -0.246700
     13 N27         3.2270   -0.6200    1.4190 n         1 EC2     -0.306000
     14 C26         3.4740   -2.0050    1.3390 c         1 EC2      0.721700
     15 O26         2.5460   -2.8260    1.4690 o         1 EC2     -0.645500
     16 C22         4.2660    0.2910    1.5080 cc        1 EC2      0.204200
     17 C23         5.6060   -0.0760    1.4540 cd        1 EC2     -0.179200
     18 C18         6.6930    0.8890    1.6430 cx        1 EC2     -0.045500
     19 C20         6.5870    2.0990    2.5400 cx        1 EC2     -0.144400
     20 C19         6.6590    2.2790    1.0540 cx        1 EC2     -0.144400
     21 C24         5.8910   -1.4650    1.1970 cd        1 EC2      0.025800
     22 C25         4.8770   -2.3770    1.1670 cc        1 EC2     -0.272200
     23 C17         7.2740   -1.9570    0.8950 c3        1 EC2     -0.007900
     24 C16         7.8920   -2.7170    2.0250 ca        1 EC2     -0.043300
     25 C7          8.4370   -2.0130    3.0800 ca        1 EC2     -0.131000
     26 C8          9.0800   -2.6710    4.1510 ca        1 EC2     -0.123000
     27 C9          9.1810   -4.0390    4.1570 ca        1 EC2     -0.132000
     28 C10         8.6250   -4.8030    3.0960 ca        1 EC2     -0.036000
     29 C15         7.9620   -4.1460    2.0230 ca        1 EC2     -0.024000
     30 C11         8.7190   -6.2220    3.1040 ca        1 EC2     -0.126000
     31 C12         8.1660   -6.9670    2.0930 ca        1 EC2     -0.130000
     32 C13         7.4890   -6.3220    1.0320 ca        1 EC2     -0.135000
     33 C14         7.3890   -4.9520    0.9990 ca        1 EC2     -0.109000
     34 H28         1.1620   -0.6660    1.7880 h1        1 EC2      0.097700
     35 H29         1.3910    2.0570    0.9860 h1        1 EC2      0.144700
     36 H5          0.4570    3.5220    2.5270 ha        1 EC2      0.141500
     37 H1          2.0450   -0.2490    3.9370 ha        1 EC2      0.141500
     38 H4         -0.5340    3.9380    4.7700 ha        1 EC2      0.120500
     39 H3         -0.2420    2.2660    6.6000 ha        1 EC2      0.116000
     40 H2          1.0450    0.1700    6.1700 ha        1 EC2      0.120500
     41 H25         5.0530   -3.4460    0.9800 ha        1 EC2      0.146000
     42 H18         7.6950    0.4080    1.6550 hc        1 EC2      0.065700
     43 H201        7.4650    2.3650    3.1560 hc        1 EC2      0.073200
     44 H202        5.6380    2.3120    3.0680 hc        1 EC2      0.073200
     45 H191        5.7530    2.6080    0.5100 hc        1 EC2      0.073200
     46 H192        7.5820    2.6810    0.6010 hc        1 EC2      0.073200
     47 H171        7.2180   -2.5990   -0.0270 hc        1 EC2      0.058700
     48 H172        7.9540   -1.1080    0.6160 hc        1 EC2      0.058700
     49 H7          8.3670   -0.9140    3.1030 ha        1 EC2      0.140000
     50 H8          9.4950   -2.0720    4.9740 ha        1 EC2      0.125000
     51 H9          9.6840   -4.5670    4.9810 ha        1 EC2      0.124000
     52 H11         9.2400   -6.7080    3.9420 ha        1 EC2      0.123000
     53 H14         6.8380   -4.4730    0.1740 ha        1 EC2      0.145000
     54 H12         8.2340   -8.0640    2.0980 ha        1 EC2      0.124000
     55 H13         7.0350   -6.9320    0.2370 ha        1 EC2      0.131000
@<TRIPOS>BOND
     1    1    2 1   
     2    2    3 1   
     3    2    4 1   
     4    4    5 1   
     5    4   13 1   
     6    4   34 1   
     7    5    6 1   
     8    5   12 1   
     9    5   35 1   
    10    6    7 ar  
    11    6   11 ar  
    12    7    8 ar  
    13    7   36 1   
    14    8    9 ar  
    15    8   38 1   
    16    9   10 ar  
    17    9   39 1   
    18   10   11 ar  
    19   10   40 1   
    20   11   37 1   
    21   12   16 1   
    22   13   14 1   
    23   13   16 1   
    24   14   15 2   
    25   14   22 1   
    26   16   17 2   
    27   17   18 1   
    28   17   21 1   
    29   18   19 1   
    30   18   20 1   
    31   18   42 1   
    32   19   20 1   
    33   19   43 1   
    34   19   44 1   
    35   20   45 1   
    36   20   46 1   
    37   21   22 2   
    38   21   23 1   
    39   22   41 1   
    40   23   24 1   
    41   23   47 1   
    42   23   48 1   
    43   24   25 ar  
    44   24   29 ar  
    45   25   26 ar  
    46   25   49 1   
    47   26   27 ar  
    48   26   50 1   
    49   27   28 ar  
    50   27   51 1   
    51   28   29 ar  
    52   28   30 ar  
    53   29   33 ar  
    54   30   31 ar  
    55   30   52 1   
    56   31   32 ar  
    57   31   54 1   
    58   32   33 ar  
    59   32   55 1   
    60   33   53 1   
@<TRIPOS>SUBSTRUCTURE
     1 EC2         1 TEMP              0 ****  ****    0 ROOT
