@<TRIPOS>MOLECULE
EC2
   55    60     1     0     0
SMALL
bcc


@<TRIPOS>ATOM
      1 O23         0.4110    0.7640   -0.5050 o         1 EC2     -0.799800
      2 C21         1.4030    0.0140   -0.3010 c         1 EC2      0.927600
      3 O22         1.9950   -0.6920   -1.1470 o         1 EC2     -0.799800
      4 C28         1.9030   -0.0120    1.2110 c3        1 EC2     -0.062300
      5 C29         1.9220    1.4320    1.7430 c3        1 EC2      0.047700
      6 C6          1.3300    1.6290    3.0870 ca        1 EC2     -0.053300
      7 C5          0.5920    2.7940    3.3420 ca        1 EC2     -0.114000
      8 C4          0.0270    3.0160    4.5960 ca        1 EC2     -0.139000
      9 C3          0.1870    2.0740    5.6120 ca        1 EC2     -0.142000
     10 C2          0.9100    0.9080    5.3650 ca        1 EC2     -0.139000
     11 C1          1.4780    0.6840    4.1120 ca        1 EC2     -0.114000
     12 S30         3.6680    1.9210    1.7460 ss        1 EC2     -0.246700
     13 N27         3.2300   -0.5960    1.4090 n         1 EC2     -0.306000
     14 C26         3.4790   -1.9800    1.3200 c         1 EC2      0.721700
     15 O26         2.5520   -2.8040    1.4420 o         1 EC2     -0.645500
     16 C22         4.2670    0.3160    1.5080 cc        1 EC2      0.204200
     17 C23         5.6070   -0.0480    1.4540 cd        1 EC2     -0.179200
     18 C18         6.6920    0.9170    1.6540 cx        1 EC2     -0.045500
     19 C20         6.5820    2.1210    2.5590 cx        1 EC2     -0.144400
     20 C19         6.6580    2.3110    1.0740 cx        1 EC2     -0.144400
     21 C24         5.8960   -1.4350    1.1880 cd        1 EC2      0.025800
     22 C25         4.8830   -2.3490    1.1480 cc        1 EC2     -0.272200
     23 C17         7.2800   -1.9230    0.8860 c3        1 EC2     -0.007900
     24 C16         7.8960   -2.6910    2.0100 ca        1 EC2     -0.043300
     25 C7          8.4380   -1.9940    3.0720 ca        1 EC2     -0.131000
     26 C8          9.0790   -2.6610    4.1390 ca        1 EC2     -0.123000
     27 C9          9.1820   -4.0290    4.1350 ca        1 EC2     -0.132000
     28 C10         8.6300   -4.7840    3.0650 ca        1 EC2     -0.036000
     29 C15         7.9680   -4.1200    1.9960 ca        1 EC2     -0.024000
     30 C11         8.7260   -6.2040    3.0610 ca        1 EC2     -0.126000
     31 C12         8.1760   -6.9410    2.0430 ca        1 EC2     -0.130000
     32 C13         7.5010   -6.2870    0.9860 ca        1 EC2     -0.135000
     33 C14         7.3990   -4.9180    0.9640 ca        1 EC2     -0.109000
     34 H28         1.1630   -0.6480    1.7720 h1        1 EC2      0.097700
     35 H29         1.3900    2.0810    0.9890 h1        1 EC2      0.144700
     36 H5          0.4490    3.5330    2.5380 ha        1 EC2      0.141500
     37 H1          2.0400   -0.2440    3.9270 ha        1 EC2      0.141500
     38 H4         -0.5500    3.9320    4.7810 ha        1 EC2      0.120500
     39 H3         -0.2600    2.2480    6.6010 ha        1 EC2      0.116000
     40 H2          1.0330    0.1580    6.1600 ha        1 EC2      0.120500
     41 H25         5.0620   -3.4150    0.9540 ha        1 EC2      0.146000
     42 H18         7.6950    0.4370    1.6660 hc        1 EC2      0.065700
     43 H201        7.4570    2.3830    3.1800 hc        1 EC2      0.073200
     44 H202        5.6300    2.3290    3.0850 hc        1 EC2      0.073200
     45 H191        5.7530    2.6420    0.5290 hc        1 EC2      0.073200
     46 H192        7.5810    2.7170    0.6270 hc        1 EC2      0.073200
     47 H171        7.9590   -1.0700    0.6160 hc        1 EC2      0.058700
     48 H172        7.2270   -2.5560   -0.0420 hc        1 EC2      0.058700
     49 H7          8.3660   -0.8960    3.1050 ha        1 EC2      0.140000
     50 H8          9.4910   -2.0680    4.9680 ha        1 EC2      0.125000
     51 H9          9.6840   -4.5630    4.9550 ha        1 EC2      0.124000
     52 H11         9.2450   -6.6960    3.8970 ha        1 EC2      0.123000
     53 H14         6.8500   -4.4320    0.1420 ha        1 EC2      0.145000
     54 H12         8.2460   -8.0380    2.0390 ha        1 EC2      0.124000
     55 H13         7.0500   -6.8920    0.1850 ha        1 EC2      0.131000
@<TRIPOS>BOND
     1    1    2 1   
     2    2    3 1   
     3    2    4 1   
     4    4    5 1   
     5    4   13 1   
     6    4   34 1   
     7    5    6 1   
     8    5   12 1   
     9    5   35 1   
    10    6    7 ar  
    11    6   11 ar  
    12    7    8 ar  
    13    7   36 1   
    14    8    9 ar  
    15    8   38 1   
    16    9   10 ar  
    17    9   39 1   
    18   10   11 ar  
    19   10   40 1   
    20   11   37 1   
    21   12   16 1   
    22   13   14 1   
    23   13   16 1   
    24   14   15 2   
    25   14   22 1   
    26   16   17 2   
    27   17   18 1   
    28   17   21 1   
    29   18   19 1   
    30   18   20 1   
    31   18   42 1   
    32   19   20 1   
    33   19   43 1   
    34   19   44 1   
    35   20   45 1   
    36   20   46 1   
    37   21   22 2   
    38   21   23 1   
    39   22   41 1   
    40   23   24 1   
    41   23   47 1   
    42   23   48 1   
    43   24   25 ar  
    44   24   29 ar  
    45   25   26 ar  
    46   25   49 1   
    47   26   27 ar  
    48   26   50 1   
    49   27   28 ar  
    50   27   51 1   
    51   28   29 ar  
    52   28   30 ar  
    53   29   33 ar  
    54   30   31 ar  
    55   30   52 1   
    56   31   32 ar  
    57   31   54 1   
    58   32   33 ar  
    59   32   55 1   
    60   33   53 1   
@<TRIPOS>SUBSTRUCTURE
     1 EC2         1 TEMP              0 ****  ****    0 ROOT
