@<TRIPOS>MOLECULE
EC2
   55    53     1     0     0
SMALL
bcc


@<TRIPOS>ATOM
      1 O23        -3.2900    0.7010   -2.3660 o         1 EC2     -0.534500
      2 C21        -4.0330    0.2460   -1.4520 c2        1 EC2      0.348000
      3 O22        -5.0160   -0.4880   -1.7460 o         1 EC2     -0.534500
      4 C28        -3.7700    0.5250   -0.1810 c3        1 EC2     -0.088000
      5 C29        -3.6930    1.8370   -0.0180 c3        1 EC2     -0.178000
      6 C6         -4.1160    2.2290    1.4970 c2        1 EC2     -0.046000
      7 C5         -4.3080    3.5650    1.8400 c2        1 EC2     -0.117000
      8 C4         -4.7880    3.8980    3.1030 c1        1 EC2     -0.140000
      9 C3         -5.0760    2.8960    4.0230 c1        1 EC2     -0.137000
     10 C2         -4.8850    1.5620    3.6810 c1        1 EC2     -0.137000
     11 C1         -4.4040    1.2290    2.4170 c1        1 EC2     -0.110000
     12 S30        -1.9790    2.3070   -0.3160 ss        1 EC2      0.182000
     13 N27        -2.0410   -0.0110    0.2340 n         1 EC2     -0.199000
     14 C26        -1.4090   -1.3030    0.0320 c2        1 EC2      0.359000
     15 O26        -2.0830   -2.3190    0.0460 o         1 EC2     -0.370000
     16 C22        -1.1720    1.2820    0.2840 c2        1 EC2     -0.036000
     17 C23         0.3080    1.2070   -0.0210 c1        1 EC2     -0.200000
     18 C18         1.1140    2.4230   -0.0240 cu        1 EC2     -0.096000
     19 C20         0.3830    3.2380   -1.0710 cx        1 EC2     -0.212000
     20 C19         1.5420    2.4690   -1.4760 cx        1 EC2     -0.212000
     21 C24         0.9680   -0.1270   -0.1760 c2        1 EC2      0.027000
     22 C25         0.1210   -1.3920   -0.2000 c2        1 EC2     -0.250000
     23 C17         2.5100   -0.2340   -0.1280 c3        1 EC2     -0.098000
     24 C16         2.9600   -1.5150   -0.8550 c2        1 EC2     -0.037000
     25 C7          2.8430   -1.1170   -2.1840 c2        1 EC2     -0.134000
     26 C8          3.4290   -1.8830   -3.2000 c1        1 EC2     -0.122000
     27 C9          4.1310   -3.0460   -2.8810 c1        1 EC2     -0.129000
     28 C10         4.2520   -3.4520   -1.5330 c1        1 EC2     -0.035000
     29 C15         3.6740   -2.6960   -0.5300 c1        1 EC2     -0.026000
     30 C11         4.9790   -4.6170   -1.2070 c1        1 EC2     -0.129000
     31 C12         5.1140   -5.0060    0.1250 c1        1 EC2     -0.137000
     32 C13         4.5290   -4.2420    1.1390 c1        1 EC2     -0.137000
     33 C14         3.8110   -3.0910    0.8190 c1        1 EC2     -0.104000
     34 H28        -4.5100    0.0560    0.2710 h1        1 EC2      0.136000
     35 H29        -4.2830    2.2910   -0.6610 h1        1 EC2      0.182000
     36 H5         -4.1170    4.2720    1.1860 ha        1 EC2      0.135000
     37 H1         -5.3600    1.1640    2.2240 ha        1 EC2      0.148000
     38 H4         -4.9510    4.8360    3.3340 ha        1 EC2      0.119000
     39 H3         -5.4190    3.1300    4.9090 ha        1 EC2      0.122500
     40 H2         -5.0860    0.8560    4.3300 ha        1 EC2      0.122500
     41 H25         0.5490   -2.2670   -0.3130 ha        1 EC2      0.151000
     42 H18         1.4500    2.4420    0.9000 ha        1 EC2      0.104000
     43 H201       -0.4830    2.8820   -1.3570 hc        1 EC2      0.110500
     44 H202        0.5150    4.2120   -1.0200 hc        1 EC2      0.110500
     45 H191        2.3540    2.9920   -1.6640 hc        1 EC2      0.110500
     46 H192        1.3520    1.6610   -2.0020 hc        1 EC2      0.110500
     47 H171        2.9060    0.5490   -0.5680 hc        1 EC2      0.101000
     48 H172        2.8070   -0.2680    0.8100 hc        1 EC2      0.101000
     49 H7          3.5930   -0.5050   -2.3450 ha        1 EC2      0.137000
     50 H8          3.6000   -1.6180   -4.1310 ha        1 EC2      0.126000
     51 H9          4.4640   -3.5590   -3.6480 ha        1 EC2      0.123500
     52 H11         5.4600   -5.2130   -1.8180 ha        1 EC2      0.123500
     53 H14         4.2090   -2.5350    1.5240 ha        1 EC2      0.151000
     54 H12         5.5800   -5.8410    0.3490 ha        1 EC2      0.122500
     55 H13         4.7660   -4.6110    2.0180 ha        1 EC2      0.122500
@<TRIPOS>BOND
     1    1    2 1   
     2    2    3 1   
     3    2    4 1   
     4    4    5 1   
     5    4   13 1   
     6    4   34 1   
     7    5    6 1   
     8    5   12 1   
     9    5   35 1   
    10    6    7 1   
    11    6   11 1   
    12    7    8 1   
    13    7   36 1   
    14    8   38 1   
    15    9   10 1   
    16    9   39 1   
    17   10   40 1   
    18   11   37 1   
    19   12   16 1   
    20   13   14 1   
    21   13   16 1   
    22   14   15 1   
    23   14   22 1   
    24   16   17 1   
    25   17   21 1   
    26   18   19 1   
    27   18   20 1   
    28   18   42 1   
    29   19   20 1   
    30   19   43 1   
    31   19   44 1   
    32   20   45 1   
    33   20   46 1   
    34   21   22 1   
    35   21   23 1   
    36   22   41 1   
    37   23   24 1   
    38   23   47 1   
    39   23   48 1   
    40   24   25 1   
    41   24   29 1   
    42   25   26 1   
    43   25   49 1   
    44   26   50 1   
    45   27   28 1   
    46   27   51 1   
    47   28   30 1   
    48   29   33 1   
    49   30   52 1   
    50   31   32 1   
    51   31   54 1   
    52   32   55 1   
    53   33   53 1   
@<TRIPOS>SUBSTRUCTURE
     1 EC2         1 TEMP              0 ****  ****    0 ROOT
