@<TRIPOS>MOLECULE
EC2
   55    60     1     0     0
SMALL
bcc


@<TRIPOS>ATOM
      1 O23         0.4260    0.7480   -0.5170 o         1 EC2     -0.799300
      2 C21         1.4180   -0.0010   -0.3090 c         1 EC2      0.927600
      3 O22         2.0130   -0.7060   -1.1540 o         1 EC2     -0.799300
      4 C28         1.9140   -0.0260    1.2030 c3        1 EC2     -0.062300
      5 C29         1.9290    1.4180    1.7350 c3        1 EC2      0.047700
      6 C6          1.3340    1.6140    3.0780 ca        1 EC2     -0.053300
      7 C5          0.5950    2.7790    3.3310 ca        1 EC2     -0.114000
      8 C4          0.0270    3.0000    4.5840 ca        1 EC2     -0.139000
      9 C3          0.1840    2.0580    5.6010 ca        1 EC2     -0.142000
     10 C2          0.9090    0.8920    5.3550 ca        1 EC2     -0.139000
     11 C1          1.4790    0.6690    4.1030 ca        1 EC2     -0.114000
     12 S30         3.6750    1.9100    1.7420 ss        1 EC2     -0.246700
     13 N27         3.2410   -0.6080    1.4050 n         1 EC2     -0.306000
     14 C26         3.4940   -1.9910    1.3180 c         1 EC2      0.721700
     15 O26         2.5670   -2.8170    1.4370 o         1 EC2     -0.645500
     16 C22         4.2770    0.3060    1.5060 cc        1 EC2      0.204200
     17 C23         5.6180   -0.0570    1.4570 cd        1 EC2     -0.179200
     18 C18         6.7010    0.9110    1.6580 cx        1 EC2     -0.045500
     19 C20         6.5860    2.1150    2.5630 cx        1 EC2     -0.144400
     20 C19         6.6650    2.3050    1.0780 cx        1 EC2     -0.144400
     21 C24         5.9090   -1.4430    1.1930 cd        1 EC2      0.025800
     22 C25         4.8980   -2.3580    1.1510 cc        1 EC2     -0.272200
     23 C17         7.2950   -1.9290    0.8950 c3        1 EC2     -0.007900
     24 C16         7.9100   -2.6930    2.0230 ca        1 EC2     -0.043300
     25 C7          8.4460   -1.9930    3.0860 ca        1 EC2     -0.131000
     26 C8          9.0850   -2.6570    4.1560 ca        1 EC2     -0.123000
     27 C9          9.1910   -4.0240    4.1550 ca        1 EC2     -0.132000
     28 C10         8.6440   -4.7830    3.0860 ca        1 EC2     -0.036000
     29 C15         7.9850   -4.1220    2.0130 ca        1 EC2     -0.024000
     30 C11         8.7430   -6.2020    3.0850 ca        1 EC2     -0.126000
     31 C12         8.1990   -6.9420    2.0670 ca        1 EC2     -0.130000
     32 C13         7.5260   -6.2930    1.0060 ca        1 EC2     -0.135000
     33 C14         7.4200   -4.9240    0.9810 ca        1 EC2     -0.109000
     34 H28         1.1740   -0.6630    1.7630 h1        1 EC2      0.097700
     35 H29         1.3980    2.0660    0.9800 h1        1 EC2      0.144700
     36 H5          0.4540    3.5180    2.5280 ha        1 EC2      0.141500
     37 H1          2.0420   -0.2590    3.9180 ha        1 EC2      0.141500
     38 H4         -0.5510    3.9160    4.7690 ha        1 EC2      0.120500
     39 H3         -0.2650    2.2310    6.5880 ha        1 EC2      0.116000
     40 H2          1.0290    0.1420    6.1490 ha        1 EC2      0.120500
     41 H25         5.0790   -3.4250    0.9580 ha        1 EC2      0.146000
     42 H18         7.7040    0.4330    1.6710 hc        1 EC2      0.065700
     43 H201        5.6340    2.3210    3.0870 hc        1 EC2      0.073200
     44 H202        7.4590    2.3790    3.1850 hc        1 EC2      0.073200
     45 H191        7.5880    2.7130    0.6330 hc        1 EC2      0.073200
     46 H192        5.7600    2.6340    0.5310 hc        1 EC2      0.073200
     47 H171        7.9740   -1.0750    0.6250 hc        1 EC2      0.058700
     48 H172        7.2470   -2.5640   -0.0310 hc        1 EC2      0.058700
     49 H7          8.3720   -0.8950    3.1160 ha        1 EC2      0.140000
     50 H8          9.4930   -2.0610    4.9860 ha        1 EC2      0.125000
     51 H9          9.6920   -4.5550    4.9780 ha        1 EC2      0.124000
     52 H11         9.2620   -6.6910    3.9230 ha        1 EC2      0.123000
     53 H14         6.8730   -4.4410    0.1560 ha        1 EC2      0.145000
     54 H12         8.2710   -8.0390    2.0650 ha        1 EC2      0.124000
     55 H13         7.0790   -6.9000    0.2050 ha        1 EC2      0.131000
@<TRIPOS>BOND
     1    1    2 1   
     2    2    3 1   
     3    2    4 1   
     4    4    5 1   
     5    4   13 1   
     6    4   34 1   
     7    5    6 1   
     8    5   12 1   
     9    5   35 1   
    10    6    7 ar  
    11    6   11 ar  
    12    7    8 ar  
    13    7   36 1   
    14    8    9 ar  
    15    8   38 1   
    16    9   10 ar  
    17    9   39 1   
    18   10   11 ar  
    19   10   40 1   
    20   11   37 1   
    21   12   16 1   
    22   13   14 1   
    23   13   16 1   
    24   14   15 2   
    25   14   22 1   
    26   16   17 2   
    27   17   18 1   
    28   17   21 1   
    29   18   19 1   
    30   18   20 1   
    31   18   42 1   
    32   19   20 1   
    33   19   43 1   
    34   19   44 1   
    35   20   45 1   
    36   20   46 1   
    37   21   22 2   
    38   21   23 1   
    39   22   41 1   
    40   23   24 1   
    41   23   47 1   
    42   23   48 1   
    43   24   25 ar  
    44   24   29 ar  
    45   25   26 ar  
    46   25   49 1   
    47   26   27 ar  
    48   26   50 1   
    49   27   28 ar  
    50   27   51 1   
    51   28   29 ar  
    52   28   30 ar  
    53   29   33 ar  
    54   30   31 ar  
    55   30   52 1   
    56   31   32 ar  
    57   31   54 1   
    58   32   33 ar  
    59   32   55 1   
    60   33   53 1   
@<TRIPOS>SUBSTRUCTURE
     1 EC2         1 TEMP              0 ****  ****    0 ROOT
