@<TRIPOS>MOLECULE
EC5
   58    62     1     0     0
SMALL
bcc


@<TRIPOS>ATOM
      1 O26         0.1570    0.8330   -0.0950 o         1 EC5     -0.662500
      2 C26         1.3580    0.4850   -0.0620 c         1 EC5      0.699700
      3 N27         2.0160    0.1840    1.1640 n         1 EC5     -0.262000
      4 C28         1.2790    0.1870    2.4320 c3        1 EC5     -0.054300
      5 C29         0.2810    1.3330    2.6280 c3        1 EC5     -0.046100
      6 C6          0.9120    2.6790    2.6150 ca        1 EC5     -0.054300
      7 C5          0.7320    3.5370    1.5210 ca        1 EC5     -0.130000
      8 C4          1.2970    4.8110    1.5230 ca        1 EC5     -0.140000
      9 C3          2.0480    5.2430    2.6150 ca        1 EC5     -0.154000
     10 C2          2.2360    4.3940    3.7050 ca        1 EC5     -0.140000
     11 C1          1.6720    3.1210    3.7070 ca        1 EC5     -0.130000
     12 C21         0.5530   -1.1860    2.7160 c         1 EC5      0.923600
     13 O23        -0.6500   -1.1590    3.0610 o         1 EC5     -0.813300
     14 O22         1.2670   -2.2290    2.6360 o         1 EC5     -0.813300
     15 C25         2.1410    0.4050   -1.2880 cc        1 EC5     -0.311200
     16 C24         3.4610    0.0560   -1.2890 cd        1 EC5      0.049800
     17 C23         4.1000   -0.1930   -0.0420 cd        1 EC5     -0.232200
     18 C18         5.5390   -0.4820    0.0220 cx        1 EC5     -0.047500
     19 C20         6.4360    0.1740    1.0490 cx        1 EC5     -0.136900
     20 C19         6.5510    0.5620   -0.3920 cx        1 EC5     -0.136900
     21 C22         3.3300   -0.2190    1.1350 cc        1 EC5      0.185200
     22 S30         4.3000   -0.8020    2.4310 ss        1 EC5      0.094200
     23 O56         3.4210   -1.1560    3.8270 oh        1 EC5     -0.572800
     24 C17         4.2020   -0.0230   -2.5860 c3        1 EC5     -0.002900
     25 C16         4.5650   -1.4040   -3.0310 ca        1 EC5     -0.036300
     26 C7          5.8760   -1.8210   -2.9080 ca        1 EC5     -0.139000
     27 C8          6.2920   -3.0910   -3.3650 ca        1 EC5     -0.128000
     28 C9          5.3920   -3.9400   -3.9570 ca        1 EC5     -0.128000
     29 C10         4.0340   -3.5490   -4.1080 ca        1 EC5     -0.035000
     30 C15         3.6090   -2.2770   -3.6390 ca        1 EC5     -0.023000
     31 C11         3.0940   -4.4220   -4.7220 ca        1 EC5     -0.129000
     32 C12         1.7800   -4.0510   -4.8620 ca        1 EC5     -0.126000
     33 C13         1.3500   -2.7880   -4.3900 ca        1 EC5     -0.132000
     34 C14         2.2390   -1.9270   -3.7970 ca        1 EC5     -0.104000
     35 H25         1.5820    0.6430   -2.2020 ha        1 EC5      0.140000
     36 H291       -0.1870    1.1490    3.6360 hc        1 EC5      0.090700
     37 H292       -0.5490    1.2620    1.8770 hc        1 EC5      0.090700
     38 HA          0.1500    3.1800    0.6550 ha        1 EC5      0.144500
     39 HB          1.8230    2.4500    4.5660 ha        1 EC5      0.144500
     40 HC          1.1510    5.4740    0.6590 ha        1 EC5      0.115500
     41 HD          2.4930    6.2480    2.6150 ha        1 EC5      0.112000
     42 HE          2.8320    4.7300    4.5660 ha        1 EC5      0.115500
     43 H171        3.5860    0.4600   -3.3950 hc        1 EC5      0.053700
     44 H172        5.1440    0.5870   -2.4840 hc        1 EC5      0.053700
     45 H18         5.7640   -1.5390   -0.2440 hc        1 EC5      0.086700
     46 H201        6.0090    0.9050    1.7610 hc        1 EC5      0.068950
     47 H202        7.2330   -0.4350    1.5100 hc        1 EC5      0.068950
     48 H191        6.1950    1.5600   -0.7020 hc        1 EC5      0.068950
     49 H192        7.4390    0.2430   -0.9670 hc        1 EC5      0.068950
     50 H56         2.8420   -1.9230    3.6600 ho        1 EC5      0.481000
     51 H7          6.6210   -1.1600   -2.4380 ha        1 EC5      0.133000
     52 H8          7.3430   -3.3850   -3.2360 ha        1 EC5      0.122000
     53 H9          5.7000   -4.9320   -4.3180 ha        1 EC5      0.123000
     54 H11         3.4430   -5.4040   -5.0740 ha        1 EC5      0.122000
     55 H14         1.8920   -0.9570   -3.4100 ha        1 EC5      0.150000
     56 H12         1.0500   -4.7270   -5.3280 ha        1 EC5      0.124000
     57 H13         0.2900   -2.5110   -4.4920 ha        1 EC5      0.133000
     58 H28         2.0470    0.3250    3.2530 h1        1 EC5      0.061700
@<TRIPOS>BOND
     1    1    2 2   
     2    2    3 1   
     3    2   15 1   
     4    3    4 1   
     5    3   21 1   
     6    4    5 1   
     7    4   12 1   
     8    4   58 1   
     9    5    6 1   
    10    5   36 1   
    11    5   37 1   
    12    6    7 ar  
    13    6   11 ar  
    14    7    8 ar  
    15    7   38 1   
    16    8    9 ar  
    17    8   40 1   
    18    9   10 ar  
    19    9   41 1   
    20   10   11 ar  
    21   10   42 1   
    22   11   39 1   
    23   12   13 1   
    24   12   14 1   
    25   15   16 2   
    26   15   35 1   
    27   16   17 1   
    28   16   24 1   
    29   17   18 1   
    30   17   21 2   
    31   18   19 1   
    32   18   20 1   
    33   18   45 1   
    34   19   20 1   
    35   19   46 1   
    36   19   47 1   
    37   20   48 1   
    38   20   49 1   
    39   21   22 1   
    40   22   23 1   
    41   23   50 1   
    42   24   25 1   
    43   24   43 1   
    44   24   44 1   
    45   25   26 ar  
    46   25   30 ar  
    47   26   27 ar  
    48   26   51 1   
    49   27   28 ar  
    50   27   52 1   
    51   28   29 ar  
    52   28   53 1   
    53   29   30 ar  
    54   29   31 ar  
    55   30   34 ar  
    56   31   32 ar  
    57   31   54 1   
    58   32   33 ar  
    59   32   56 1   
    60   33   34 ar  
    61   33   57 1   
    62   34   55 1   
@<TRIPOS>SUBSTRUCTURE
     1 EC5         1 TEMP              0 ****  ****    0 ROOT
