@<TRIPOS>MOLECULE
EC5
   58    62     1     0     0
SMALL
bcc


@<TRIPOS>ATOM
      1 O26         0.1550    0.8300   -0.0840 o         1 EC5     -0.662500
      2 C26         1.3570    0.4840   -0.0560 c         1 EC5      0.699700
      3 N27         2.0220    0.1860    1.1660 n         1 EC5     -0.262000
      4 C28         1.2910    0.1900    2.4380 c3        1 EC5     -0.054300
      5 C29         0.2930    1.3330    2.6390 c3        1 EC5     -0.046100
      6 C6          0.9210    2.6810    2.6210 ca        1 EC5     -0.054300
      7 C5          0.7350    3.5370    1.5270 ca        1 EC5     -0.130000
      8 C4          1.2970    4.8110    1.5250 ca        1 EC5     -0.140000
      9 C3          2.0530    5.2470    2.6130 ca        1 EC5     -0.154000
     10 C2          2.2480    4.3990    3.7040 ca        1 EC5     -0.140000
     11 C1          1.6850    3.1250    3.7080 ca        1 EC5     -0.130000
     12 C21         0.5690   -1.1850    2.7280 c         1 EC5      0.923600
     13 O23        -0.6320   -1.1600    3.0790 o         1 EC5     -0.813300
     14 O22         1.2860   -2.2270    2.6460 o         1 EC5     -0.813300
     15 C25         2.1330    0.4030   -1.2860 cc        1 EC5     -0.311200
     16 C24         3.4530    0.0560   -1.2940 cd        1 EC5      0.049800
     17 C23         4.1000   -0.1890   -0.0500 cd        1 EC5     -0.232200
     18 C18         5.5400   -0.4740    0.0060 cx        1 EC5     -0.047500
     19 C20         6.4410    0.1850    1.0270 cx        1 EC5     -0.136900
     20 C19         6.5470    0.5720   -0.4150 cx        1 EC5     -0.136900
     21 C22         3.3360   -0.2150    1.1310 cc        1 EC5      0.185200
     22 S30         4.3150   -0.7940    2.4220 ss        1 EC5      0.094200
     23 O56         3.4440   -1.1480    3.8240 oh        1 EC5     -0.572800
     24 C17         4.1870   -0.0240   -2.5950 c3        1 EC5     -0.002900
     25 C16         4.5530   -1.4050   -3.0370 ca        1 EC5     -0.036300
     26 C7          5.8670   -1.8150   -2.9240 ca        1 EC5     -0.139000
     27 C8          6.2860   -3.0850   -3.3800 ca        1 EC5     -0.128000
     28 C9          5.3850   -3.9400   -3.9610 ca        1 EC5     -0.128000
     29 C10         4.0250   -3.5570   -4.1020 ca        1 EC5     -0.035000
     30 C15         3.5970   -2.2850   -3.6350 ca        1 EC5     -0.023000
     31 C11         3.0830   -4.4370   -4.7050 ca        1 EC5     -0.129000
     32 C12         1.7670   -4.0720   -4.8350 ca        1 EC5     -0.126000
     33 C13         1.3340   -2.8100   -4.3640 ca        1 EC5     -0.132000
     34 C14         2.2240   -1.9420   -3.7820 ca        1 EC5     -0.104000
     35 H25         1.5690    0.6380   -2.1980 ha        1 EC5      0.140000
     36 H291       -0.5410    1.2600    1.8920 hc        1 EC5      0.090700
     37 H292       -0.1700    1.1490    3.6490 hc        1 EC5      0.090700
     38 HA          0.1490    3.1780    0.6640 ha        1 EC5      0.144500
     39 HB          1.8410    2.4550    4.5680 ha        1 EC5      0.144500
     40 HC          1.1460    5.4740    0.6610 ha        1 EC5      0.115500
     41 HD          2.4960    6.2520    2.6100 ha        1 EC5      0.112000
     42 HE          2.8470    4.7370    4.5610 ha        1 EC5      0.115500
     43 H171        3.5650    0.4540   -3.4020 hc        1 EC5      0.053700
     44 H172        5.1270    0.5900   -2.5010 hc        1 EC5      0.053700
     45 H18         5.7670   -1.5300   -0.2600 hc        1 EC5      0.086700
     46 H201        7.2430   -0.4210    1.4840 hc        1 EC5      0.068950
     47 H202        6.0160    0.9150    1.7420 hc        1 EC5      0.068950
     48 H191        6.1860    1.5690   -0.7230 hc        1 EC5      0.068950
     49 H192        7.4330    0.2550   -0.9940 hc        1 EC5      0.068950
     50 H56         2.8650   -1.9170    3.6610 ho        1 EC5      0.481000
     51 H7          6.6130   -1.1490   -2.4620 ha        1 EC5      0.133000
     52 H8          7.3400   -3.3730   -3.2590 ha        1 EC5      0.122000
     53 H9          5.6960   -4.9320   -4.3210 ha        1 EC5      0.123000
     54 H11         3.4340   -5.4180   -5.0560 ha        1 EC5      0.122000
     55 H14         1.8750   -0.9720   -3.3950 ha        1 EC5      0.150000
     56 H12         1.0360   -4.7540   -5.2920 ha        1 EC5      0.124000
     57 H13         0.2720   -2.5390   -4.4580 ha        1 EC5      0.133000
     58 H28         2.0640    0.3290    3.2550 h1        1 EC5      0.061700
@<TRIPOS>BOND
     1    1    2 2   
     2    2    3 1   
     3    2   15 1   
     4    3    4 1   
     5    3   21 1   
     6    4    5 1   
     7    4   12 1   
     8    4   58 1   
     9    5    6 1   
    10    5   36 1   
    11    5   37 1   
    12    6    7 ar  
    13    6   11 ar  
    14    7    8 ar  
    15    7   38 1   
    16    8    9 ar  
    17    8   40 1   
    18    9   10 ar  
    19    9   41 1   
    20   10   11 ar  
    21   10   42 1   
    22   11   39 1   
    23   12   13 1   
    24   12   14 1   
    25   15   16 2   
    26   15   35 1   
    27   16   17 1   
    28   16   24 1   
    29   17   18 1   
    30   17   21 2   
    31   18   19 1   
    32   18   20 1   
    33   18   45 1   
    34   19   20 1   
    35   19   46 1   
    36   19   47 1   
    37   20   48 1   
    38   20   49 1   
    39   21   22 1   
    40   22   23 1   
    41   23   50 1   
    42   24   25 1   
    43   24   43 1   
    44   24   44 1   
    45   25   26 ar  
    46   25   30 ar  
    47   26   27 ar  
    48   26   51 1   
    49   27   28 ar  
    50   27   52 1   
    51   28   29 ar  
    52   28   53 1   
    53   29   30 ar  
    54   29   31 ar  
    55   30   34 ar  
    56   31   32 ar  
    57   31   54 1   
    58   32   33 ar  
    59   32   56 1   
    60   33   34 ar  
    61   33   57 1   
    62   34   55 1   
@<TRIPOS>SUBSTRUCTURE
     1 EC5         1 TEMP              0 ****  ****    0 ROOT
