@<TRIPOS>MOLECULE
EC5
   58    62     1     0     0
SMALL
bcc


@<TRIPOS>ATOM
      1 O26         1.1760   -1.9810    1.9880 o         1 EC5     -0.656500
      2 C26         0.7200   -1.0730    1.2580 c         1 EC5      0.687700
      3 N27         1.3550   -0.6830    0.0550 n         1 EC5     -0.256000
      4 C28         2.5030   -1.4340   -0.4610 c3        1 EC5     -0.058300
      5 C29         3.6090   -1.7090    0.5620 c3        1 EC5     -0.048100
      6 C6          4.2010   -0.4760    1.1460 ca        1 EC5     -0.052300
      7 C5          3.8610   -0.0740    2.4440 ca        1 EC5     -0.131000
      8 C4          4.4350    1.0660    3.0030 ca        1 EC5     -0.139500
      9 C3          5.3550    1.8180    2.2730 ca        1 EC5     -0.154000
     10 C2          5.6960    1.4270    0.9790 ca        1 EC5     -0.139500
     11 C1          5.1240    0.2870    0.4180 ca        1 EC5     -0.131000
     12 C21         2.1050   -2.7850   -1.1720 c         1 EC5      0.925600
     13 O23         2.7440   -3.8190   -0.8670 o         1 EC5     -0.812800
     14 O22         1.2170   -2.7170   -2.0700 o         1 EC5     -0.812800
     15 C25        -0.4880   -0.3450    1.6450 cc        1 EC5     -0.267200
     16 C24        -0.9650    0.7090    0.9270 cd        1 EC5      0.011800
     17 C23        -0.2310    1.1410   -0.2270 cd        1 EC5     -0.136200
     18 C18        -0.6430    2.3680   -0.9240 cx        1 EC5     -0.051500
     19 C20         0.3600    3.3940   -1.3830 cx        1 EC5     -0.129400
     20 C19        -0.5370    3.7080   -0.2270 cx        1 EC5     -0.129400
     21 C22         0.8420    0.3760   -0.6710 cc        1 EC5      0.150200
     22 S30         1.5630    0.8020   -2.2080 ss        1 EC5     -0.017800
     23 O56         0.7600   -0.2200   -3.2970 oh        1 EC5     -0.535800
     24 C17        -2.2080    1.4090    1.3770 c3        1 EC5     -0.001900
     25 C16        -3.3990    1.2420    0.4890 ca        1 EC5     -0.041300
     26 C7         -3.8120    2.3130   -0.2800 ca        1 EC5     -0.137000
     27 C8         -4.9660    2.2360   -1.0900 ca        1 EC5     -0.129000
     28 C9         -5.7120    1.0850   -1.1220 ca        1 EC5     -0.126000
     29 C10        -5.3250   -0.0390   -0.3440 ca        1 EC5     -0.035000
     30 C15        -4.1590    0.0310    0.4660 ca        1 EC5     -0.022000
     31 C11        -6.0910   -1.2370   -0.3700 ca        1 EC5     -0.128000
     32 C12        -5.7140   -2.3260    0.3740 ca        1 EC5     -0.125000
     33 C13        -4.5510   -2.2650    1.1770 ca        1 EC5     -0.129000
     34 C14        -3.7960   -1.1190    1.2220 ca        1 EC5     -0.106000
     35 H25        -0.9730   -0.7200    2.5570 ha        1 EC5      0.143000
     36 H291        3.2220   -2.3920    1.3650 hc        1 EC5      0.089200
     37 H292        4.4010   -2.2850    0.0060 hc        1 EC5      0.089200
     38 HA          3.1240   -0.6690    3.0100 ha        1 EC5      0.142000
     39 HB          5.3910   -0.0210   -0.6040 ha        1 EC5      0.142000
     40 HC          4.1600    1.3730    4.0220 ha        1 EC5      0.115500
     41 HD          5.8070    2.7170    2.7140 ha        1 EC5      0.112000
     42 HE          6.4180    2.0190    0.3980 ha        1 EC5      0.115500
     43 H171       -2.4840    1.0490    2.4070 hc        1 EC5      0.054700
     44 H172       -1.9690    2.5070    1.4670 hc        1 EC5      0.054700
     45 H18        -1.5320    2.1980   -1.5710 hc        1 EC5      0.091700
     46 H201        1.4350    3.2170   -1.1950 hc        1 EC5      0.065950
     47 H202        0.1910    3.8940   -2.3530 hc        1 EC5      0.065950
     48 H191       -1.3530    4.4400   -0.3590 hc        1 EC5      0.065950
     49 H192       -0.1030    3.7510    0.7870 hc        1 EC5      0.065950
     50 H56         1.0400   -1.1390   -3.1220 ho        1 EC5      0.480000
     51 H7         -3.2330    3.2500   -0.2740 ha        1 EC5      0.133000
     52 H8         -5.2520    3.1090   -1.6940 ha        1 EC5      0.123000
     53 H9         -6.6120    1.0090   -1.7490 ha        1 EC5      0.124000
     54 H11        -6.9870   -1.2720   -1.0070 ha        1 EC5      0.123000
     55 H14        -2.8780   -1.0860    1.8300 ha        1 EC5      0.148000
     56 H12        -6.2990   -3.2560    0.3490 ha        1 EC5      0.125000
     57 H13        -4.2490   -3.1520    1.7540 ha        1 EC5      0.135000
     58 H28         2.9720   -0.8050   -1.2820 h1        1 EC5      0.064700
@<TRIPOS>BOND
     1    1    2 2   
     2    2    3 1   
     3    2   15 1   
     4    3    4 1   
     5    3   21 1   
     6    4    5 1   
     7    4   12 1   
     8    4   58 1   
     9    5    6 1   
    10    5   36 1   
    11    5   37 1   
    12    6    7 ar  
    13    6   11 ar  
    14    7    8 ar  
    15    7   38 1   
    16    8    9 ar  
    17    8   40 1   
    18    9   10 ar  
    19    9   41 1   
    20   10   11 ar  
    21   10   42 1   
    22   11   39 1   
    23   12   13 1   
    24   12   14 1   
    25   15   16 2   
    26   15   35 1   
    27   16   17 1   
    28   16   24 1   
    29   17   18 1   
    30   17   21 2   
    31   18   19 1   
    32   18   20 1   
    33   18   45 1   
    34   19   20 1   
    35   19   46 1   
    36   19   47 1   
    37   20   48 1   
    38   20   49 1   
    39   21   22 1   
    40   22   23 1   
    41   23   50 1   
    42   24   25 1   
    43   24   43 1   
    44   24   44 1   
    45   25   26 ar  
    46   25   30 ar  
    47   26   27 ar  
    48   26   51 1   
    49   27   28 ar  
    50   27   52 1   
    51   28   29 ar  
    52   28   53 1   
    53   29   30 ar  
    54   29   31 ar  
    55   30   34 ar  
    56   31   32 ar  
    57   31   54 1   
    58   32   33 ar  
    59   32   56 1   
    60   33   34 ar  
    61   33   57 1   
    62   34   55 1   
@<TRIPOS>SUBSTRUCTURE
     1 EC5         1 TEMP              0 ****  ****    0 ROOT
