@<TRIPOS>MOLECULE
EC5
   58    62     1     0     0
SMALL
bcc


@<TRIPOS>ATOM
      1 O26         0.1500    0.8430   -0.0930 o         1 EC5     -0.662500
      2 C26         1.3500    0.4900   -0.0610 c         1 EC5      0.699700
      3 N27         2.0070    0.1860    1.1650 n         1 EC5     -0.262000
      4 C28         1.2700    0.1910    2.4330 c3        1 EC5     -0.054300
      5 C29         0.2780    1.3410    2.6310 c3        1 EC5     -0.046100
      6 C6          0.9140    2.6850    2.6180 ca        1 EC5     -0.054300
      7 C5          0.7380    3.5430    1.5240 ca        1 EC5     -0.130000
      8 C4          1.3070    4.8150    1.5270 ca        1 EC5     -0.140000
      9 C3          2.0610    5.2440    2.6190 ca        1 EC5     -0.154000
     10 C2          2.2460    4.3940    3.7090 ca        1 EC5     -0.140000
     11 C1          1.6760    3.1220    3.7090 ca        1 EC5     -0.130000
     12 C21         0.5390   -1.1790    2.7160 c         1 EC5      0.923600
     13 O23        -0.6640   -1.1480    3.0620 o         1 EC5     -0.813300
     14 O22         1.2490   -2.2250    2.6360 o         1 EC5     -0.813300
     15 C25         2.1320    0.4070   -1.2870 cc        1 EC5     -0.311200
     16 C24         3.4500    0.0530   -1.2880 cd        1 EC5      0.049800
     17 C23         4.0890   -0.1990   -0.0420 cd        1 EC5     -0.232200
     18 C18         5.5270   -0.4930    0.0210 cx        1 EC5     -0.047500
     19 C20         6.4260    0.1590    1.0470 cx        1 EC5     -0.136900
     20 C19         6.5430    0.5470   -0.3930 cx        1 EC5     -0.136900
     21 C22         3.3190   -0.2230    1.1350 cc        1 EC5      0.185200
     22 S30         4.2880   -0.8100    2.4300 ss        1 EC5      0.094200
     23 O56         3.4080   -1.1620    3.8270 oh        1 EC5     -0.572800
     24 C17         4.1900   -0.0290   -2.5860 c3        1 EC5     -0.002900
     25 C16         4.5490   -1.4110   -3.0310 ca        1 EC5     -0.036300
     26 C7          5.8590   -1.8310   -2.9100 ca        1 EC5     -0.139000
     27 C8          6.2710   -3.1020   -3.3670 ca        1 EC5     -0.128000
     28 C9          5.3690   -3.9490   -3.9570 ca        1 EC5     -0.128000
     29 C10         4.0120   -3.5550   -4.1060 ca        1 EC5     -0.035000
     30 C15         3.5900   -2.2820   -3.6370 ca        1 EC5     -0.023000
     31 C11         3.0680   -4.4270   -4.7170 ca        1 EC5     -0.129000
     32 C12         1.7550   -4.0520   -4.8540 ca        1 EC5     -0.126000
     33 C13         1.3280   -2.7890   -4.3830 ca        1 EC5     -0.132000
     34 C14         2.2210   -1.9290   -3.7920 ca        1 EC5     -0.104000
     35 H25         1.5730    0.6470   -2.2010 ha        1 EC5      0.140000
     36 H291       -0.5530    1.2730    1.8790 hc        1 EC5      0.090700
     37 H292       -0.1910    1.1580    3.6390 hc        1 EC5      0.090700
     38 HA          0.1530    3.1890    0.6580 ha        1 EC5      0.144500
     39 HB          1.8240    2.4500    4.5680 ha        1 EC5      0.144500
     40 HC          1.1640    5.4790    0.6630 ha        1 EC5      0.115500
     41 HD          2.5100    6.2460    2.6200 ha        1 EC5      0.112000
     42 HE          2.8430    4.7260    4.5700 ha        1 EC5      0.115500
     43 H171        3.5750    0.4560   -3.3950 hc        1 EC5      0.053700
     44 H172        5.1340    0.5790   -2.4850 hc        1 EC5      0.053700
     45 H18         5.7490   -1.5500   -0.2460 hc        1 EC5      0.086700
     46 H201        6.0030    0.8900    1.7610 hc        1 EC5      0.068950
     47 H202        7.2230   -0.4530    1.5080 hc        1 EC5      0.068950
     48 H191        7.4290    0.2260   -0.9680 hc        1 EC5      0.068950
     49 H192        6.1900    1.5470   -0.7010 hc        1 EC5      0.068950
     50 H56         2.8260   -1.9260    3.6590 ho        1 EC5      0.481000
     51 H7          6.6070   -1.1710   -2.4420 ha        1 EC5      0.133000
     52 H8          7.3230   -3.3980   -3.2410 ha        1 EC5      0.122000
     53 H9          5.6740   -4.9420   -4.3180 ha        1 EC5      0.123000
     54 H11         3.4140   -5.4100   -5.0690 ha        1 EC5      0.122000
     55 H14         1.8760   -0.9570   -3.4040 ha        1 EC5      0.150000
     56 H12         1.0220   -4.7270   -5.3190 ha        1 EC5      0.124000
     57 H13         0.2690   -2.5090   -4.4820 ha        1 EC5      0.133000
     58 H28         2.0400    0.3250    3.2540 h1        1 EC5      0.061700
@<TRIPOS>BOND
     1    1    2 2   
     2    2    3 1   
     3    2   15 1   
     4    3    4 1   
     5    3   21 1   
     6    4    5 1   
     7    4   12 1   
     8    4   58 1   
     9    5    6 1   
    10    5   36 1   
    11    5   37 1   
    12    6    7 ar  
    13    6   11 ar  
    14    7    8 ar  
    15    7   38 1   
    16    8    9 ar  
    17    8   40 1   
    18    9   10 ar  
    19    9   41 1   
    20   10   11 ar  
    21   10   42 1   
    22   11   39 1   
    23   12   13 1   
    24   12   14 1   
    25   15   16 2   
    26   15   35 1   
    27   16   17 1   
    28   16   24 1   
    29   17   18 1   
    30   17   21 2   
    31   18   19 1   
    32   18   20 1   
    33   18   45 1   
    34   19   20 1   
    35   19   46 1   
    36   19   47 1   
    37   20   48 1   
    38   20   49 1   
    39   21   22 1   
    40   22   23 1   
    41   23   50 1   
    42   24   25 1   
    43   24   43 1   
    44   24   44 1   
    45   25   26 ar  
    46   25   30 ar  
    47   26   27 ar  
    48   26   51 1   
    49   27   28 ar  
    50   27   52 1   
    51   28   29 ar  
    52   28   53 1   
    53   29   30 ar  
    54   29   31 ar  
    55   30   34 ar  
    56   31   32 ar  
    57   31   54 1   
    58   32   33 ar  
    59   32   56 1   
    60   33   34 ar  
    61   33   57 1   
    62   34   55 1   
@<TRIPOS>SUBSTRUCTURE
     1 EC5         1 TEMP              0 ****  ****    0 ROOT
