@<TRIPOS>MOLECULE
ECA
   72    75     1     0     0
SMALL
bcc


@<TRIPOS>ATOM
      1 O20         1.3770   -0.8980    0.8070 oh        1 ECA     -0.495433
      2 C17         2.6350   -0.5270    0.4070 ca        1 ECA      0.067100
      3 C18         3.4690   -0.0480    1.4590 ca        1 ECA      0.220433
      4 O19         3.0630    0.0070    2.7550 oh        1 ECA     -0.483767
      5 C16         3.1150   -0.6010   -0.8940 ca        1 ECA     -0.096000
      6 C15         4.4360   -0.2080   -1.1700 ca        1 ECA     -0.096000
      7 C14         5.2630    0.2540   -0.1640 ca        1 ECA     -0.117333
      8 C13         4.7880    0.3480    1.1630 ca        1 ECA     -0.244600
      9 C11         5.5880    0.9250    2.2290 c         1 ECA      0.615033
     10 O12         5.3250    1.7220    3.1090 o         1 ECA     -0.427100
     11 N10         7.0650    0.4340    2.2460 n4        1 ECA     -0.697133
     12 C9          7.4840    0.0110    3.6120 c3        1 ECA      0.158433
     13 C2          8.9680   -0.0050    3.8160 ca        1 ECA     -0.146633
     14 C1          9.6620    1.1980    3.9870 ca        1 ECA     -0.051333
     15 C3          9.6500   -1.2230    3.9020 ca        1 ECA     -0.051333
     16 C4         11.0240   -1.2400    4.1750 ca        1 ECA     -0.146633
     17 C8         11.7830   -2.5330    4.1420 c3        1 ECA      0.158433
     18 N21        11.5590   -3.4260    5.3190 n4        1 ECA     -0.697133
     19 C22        10.5980   -4.6030    5.0190 c         1 ECA      0.615033
     20 O23         9.6070   -4.2870    4.3810 o         1 ECA     -0.427100
     21 C24        11.0430   -5.8830    5.5360 ca        1 ECA     -0.244600
     22 C25        11.6580   -6.0160    6.8030 ca        1 ECA     -0.117333
     23 C26        12.0080   -7.2620    7.2840 ca        1 ECA     -0.096000
     24 C27        11.7700   -8.4220    6.5240 ca        1 ECA     -0.096000
     25 C28        11.1720   -8.3130    5.2760 ca        1 ECA      0.067100
     26 O31        10.8930   -9.3610    4.4370 oh        1 ECA     -0.495433
     27 C29        10.7950   -7.0370    4.7630 ca        1 ECA      0.220433
     28 O30        10.2370   -6.8730    3.5350 oh        1 ECA     -0.483767
     29 C5         11.7130   -0.0360    4.3610 ca        1 ECA     -0.051333
     30 C6         11.0360    1.1860    4.2570 ca        1 ECA     -0.146633
     31 C7         11.8120    2.4670    4.3130 c3        1 ECA      0.158433
     32 N32        11.4760    3.3600    5.4630 n4        1 ECA     -0.697133
     33 C33        10.6040    4.5740    5.0590 c         1 ECA      0.615033
     34 O34         9.6830    4.2940    4.3080 o         1 ECA     -0.427100
     35 C35        11.0320    5.8370    5.6270 ca        1 ECA     -0.244600
     36 C36        11.5140    5.9480    6.9530 ca        1 ECA     -0.117333
     37 C37        11.8500    7.1810    7.4750 ca        1 ECA     -0.096000
     38 C38        11.7310    8.3500    6.7000 ca        1 ECA     -0.096000
     39 C39        11.2650    8.2620    5.3950 ca        1 ECA      0.067100
     40 O42        11.1100    9.3200    4.5370 oh        1 ECA     -0.495433
     41 C40        10.9050    7.0000    4.8390 ca        1 ECA      0.220433
     42 O41        10.4750    6.8570    3.5580 oh        1 ECA     -0.483767
     43 H20         0.8370   -1.0870    0.0210 ho        1 ECA      0.470000
     44 H19         2.1080   -0.1950    2.8040 ho        1 ECA      0.488333
     45 H16         2.4660   -0.9620   -1.7110 ha        1 ECA      0.185000
     46 H15         4.8040   -0.2620   -2.2090 ha        1 ECA      0.180000
     47 H14         6.2800    0.5930   -0.4140 ha        1 ECA      0.130000
     48 H10         7.1610   -0.3460    1.5880 hn        1 ECA      0.457300
     49 H9C1        7.0170    0.7340    4.3530 hx        1 ECA      0.125700
     50 H9C2        7.0440   -1.0120    3.8040 hx        1 ECA      0.125700
     51 H1          9.1270    2.1630    3.9050 ha        1 ECA      0.175000
     52 H3          9.1100   -2.1770    3.7510 ha        1 ECA      0.175000
     53 H8C1       12.8930   -2.3220    4.0810 hx        1 ECA      0.125700
     54 H8C2       11.4890   -3.1070    3.2110 hx        1 ECA      0.125700
     55 H21        12.4590   -3.8260    5.6140 hn        1 ECA      0.457300
     56 H25        11.8210   -5.1330    7.4380 ha        1 ECA      0.130000
     57 H26        12.4750   -7.3630    8.2790 ha        1 ECA      0.180000
     58 H27        12.0570   -9.4100    6.9240 ha        1 ECA      0.185000
     59 H31        11.1300  -10.1940    4.8790 ho        1 ECA      0.470000
     60 H30        10.0830   -7.7500    3.1300 ho        1 ECA      0.488333
     61 H5         12.7990   -0.0480    4.5600 ha        1 ECA      0.175000
     62 H7C1       11.6240    3.0480    3.3570 hx        1 ECA      0.125700
     63 H7C2       12.9190    2.2430    4.3670 hx        1 ECA      0.125700
     64 H32        10.9760    2.8320    6.1830 hn        1 ECA      0.457300
     65 H36        11.5800    5.0590    7.5980 ha        1 ECA      0.130000
     66 H37        12.2120    7.2650    8.5140 ha        1 ECA      0.180000
     67 H38        12.0050    9.3270    7.1340 ha        1 ECA      0.185000
     68 H42        11.3210   10.1450    5.0070 ho        1 ECA      0.470000
     69 H41        10.3910    7.7390    3.1440 ho        1 ECA      0.488333
     70 H102        7.6610    1.2030    1.9270 hn        1 ECA      0.457300
     71 H212       11.1730   -2.8890    6.1000 hn        1 ECA      0.457300
     72 H322       12.3470    3.7230    5.8730 hn        1 ECA      0.457300
@<TRIPOS>BOND
     1    1    2 1   
     2    1   43 1   
     3    2    3 ar  
     4    2    5 ar  
     5    3    4 1   
     6    3    8 ar  
     7    4   44 1   
     8    5    6 ar  
     9    5   45 1   
    10    6    7 ar  
    11    6   46 1   
    12    7    8 ar  
    13    7   47 1   
    14    8    9 1   
    15    9   10 2   
    16    9   11 1   
    17   11   12 1   
    18   11   48 1   
    19   11   70 1   
    20   12   13 1   
    21   12   49 1   
    22   12   50 1   
    23   13   14 ar  
    24   13   15 ar  
    25   14   30 ar  
    26   14   51 1   
    27   15   16 ar  
    28   15   52 1   
    29   16   17 1   
    30   16   29 ar  
    31   17   18 1   
    32   17   53 1   
    33   17   54 1   
    34   18   19 1   
    35   18   55 1   
    36   18   71 1   
    37   19   20 2   
    38   19   21 1   
    39   21   22 ar  
    40   21   27 ar  
    41   22   23 ar  
    42   22   56 1   
    43   23   24 ar  
    44   23   57 1   
    45   24   25 ar  
    46   24   58 1   
    47   25   26 1   
    48   25   27 ar  
    49   26   59 1   
    50   27   28 1   
    51   28   60 1   
    52   29   30 ar  
    53   29   61 1   
    54   30   31 1   
    55   31   32 1   
    56   31   62 1   
    57   31   63 1   
    58   32   33 1   
    59   32   64 1   
    60   32   72 1   
    61   33   34 2   
    62   33   35 1   
    63   35   36 ar  
    64   35   41 ar  
    65   36   37 ar  
    66   36   65 1   
    67   37   38 ar  
    68   37   66 1   
    69   38   39 ar  
    70   38   67 1   
    71   39   40 1   
    72   39   41 ar  
    73   40   68 1   
    74   41   42 1   
    75   42   69 1   
@<TRIPOS>SUBSTRUCTURE
     1 ECA         1 TEMP              0 ****  ****    0 ROOT
