@<TRIPOS>MOLECULE
ECA
   69    72     1     0     0
SMALL
bcc


@<TRIPOS>ATOM
      1 O20         9.4950   -0.9730    0.7560 oh        1 ECA     -0.493100
      2 C17         8.3700   -0.5180    0.1110 ca        1 ECA      0.099100
      3 C18         7.1010   -0.4720    0.7420 ca        1 ECA      0.112433
      4 O19         7.0880   -0.9130    2.0410 oh        1 ECA     -0.525100
      5 C16         8.5160   -0.0900   -1.2110 ca        1 ECA     -0.114000
      6 C15         7.3990    0.3790   -1.9040 ca        1 ECA     -0.135333
      7 C14         6.1540    0.4360   -1.2900 ca        1 ECA     -0.112333
      8 C13         5.9920    0.0260    0.0420 ca        1 ECA     -0.187267
      9 C11         4.6600    0.0840    0.7050 c         1 ECA      0.678033
     10 O12         4.3060   -0.7920    1.5300 o         1 ECA     -0.646767
     11 N10         3.8500    1.1660    0.4330 n         1 ECA     -0.543900
     12 C9          2.5060    1.2620    0.9400 c3        1 ECA      0.132633
     13 C2          1.4550    0.6480    0.0580 ca        1 ECA     -0.133300
     14 C1          1.3770   -0.7450   -0.0550 ca        1 ECA     -0.095000
     15 C3          0.5440    1.4540   -0.6250 ca        1 ECA     -0.095000
     16 C4         -0.4520    0.8690   -1.4180 ca        1 ECA     -0.133300
     17 C8         -1.4080    1.7500   -2.1740 c3        1 ECA      0.132633
     18 N21        -2.3980    2.4040   -1.3590 n         1 ECA     -0.543900
     19 C22        -2.1710    3.6290   -0.7700 c         1 ECA      0.678033
     20 O23        -1.1390    4.2890   -1.0400 o         1 ECA     -0.646767
     21 C24        -3.2160    4.1710    0.1400 ca        1 ECA     -0.187267
     22 C25        -3.9230    3.3290    1.0120 ca        1 ECA     -0.112333
     23 C26        -4.8980    3.8400    1.8600 ca        1 ECA     -0.135333
     24 C27        -5.1960    5.2040    1.8640 ca        1 ECA     -0.114000
     25 C28        -4.4910    6.0610    1.0150 ca        1 ECA      0.099100
     26 O31        -4.8150    7.3950    1.0520 oh        1 ECA     -0.493100
     27 C29        -3.4870    5.5480    0.1540 ca        1 ECA      0.112433
     28 O30        -2.8730    6.4870   -0.6360 oh        1 ECA     -0.525100
     29 C5         -0.5310   -0.5190   -1.5260 ca        1 ECA     -0.095000
     30 C6          0.3890   -1.3280   -0.8470 ca        1 ECA     -0.133300
     31 C7          0.3110   -2.8220   -1.0000 c3        1 ECA      0.132633
     32 N32        -0.7240   -3.4520   -0.2230 n         1 ECA     -0.543900
     33 C33        -2.0130   -3.5870   -0.6940 c         1 ECA      0.678033
     34 O34        -2.2960   -3.3010   -1.8820 o         1 ECA     -0.646767
     35 C35        -3.0390   -4.1470    0.2280 ca        1 ECA     -0.187267
     36 C36        -3.0440   -3.8130    1.5910 ca        1 ECA     -0.112333
     37 C37        -4.0040   -4.3380    2.4470 ca        1 ECA     -0.135333
     38 C38        -4.9860   -5.2080    1.9710 ca        1 ECA     -0.114000
     39 C39        -5.0060   -5.5400    0.6150 ca        1 ECA      0.099100
     40 O42        -5.9900   -6.3980    0.1880 oh        1 ECA     -0.493100
     41 C40        -4.0360   -5.0010   -0.2690 ca        1 ECA      0.112433
     42 O41        -4.1570   -5.4070   -1.5730 oh        1 ECA     -0.525100
     43 H20         9.2330   -1.2820    1.6380 ho        1 ECA      0.442000
     44 H19         6.1700   -1.0810    2.3160 ho        1 ECA      0.468000
     45 H16         9.5060   -0.1340   -1.6870 ha        1 ECA      0.157333
     46 H15         7.5100    0.7030   -2.9500 ha        1 ECA      0.142000
     47 H14         5.2880    0.7900   -1.8700 ha        1 ECA      0.134333
     48 H10         4.0960    1.7720   -0.3140 hn        1 ECA      0.316167
     49 H9C1        2.4700    0.7510    1.9470 h1        1 ECA      0.073367
     50 H9C2        2.2790    2.3580    1.0870 h1        1 ECA      0.073367
     51 H1          2.1090   -1.3700    0.4870 ha        1 ECA      0.156667
     52 H3          0.5920    2.5540   -0.5470 ha        1 ECA      0.156667
     53 H8C1       -0.8110    2.5450   -2.7120 h1        1 ECA      0.073367
     54 H8C2       -1.9570    1.1330   -2.9430 h1        1 ECA      0.073367
     55 H21        -3.1550    1.8490   -1.0340 hn        1 ECA      0.316167
     56 H25        -3.6960    2.2520    1.0470 ha        1 ECA      0.134333
     57 H26        -5.4430    3.1670    2.5380 ha        1 ECA      0.142000
     58 H27        -5.9700    5.6170    2.5280 ha        1 ECA      0.157333
     59 H31        -4.2150    7.8690    0.4540 ho        1 ECA      0.442000
     60 H30        -2.0550    6.1120   -1.0070 ho        1 ECA      0.468000
     61 H5         -1.3130   -0.9950   -2.1430 ha        1 ECA      0.156667
     62 H7C1        0.1330   -3.0630   -2.0890 h1        1 ECA      0.073367
     63 H7C2        1.2940   -3.2810   -0.6880 h1        1 ECA      0.073367
     64 H32        -0.5570   -3.5640    0.7490 hn        1 ECA      0.316167
     65 H36        -2.2960   -3.1140    1.9930 ha        1 ECA      0.134333
     66 H37        -3.9950   -4.0660    3.5140 ha        1 ECA      0.142000
     67 H38        -5.7470   -5.6330    2.6430 ha        1 ECA      0.157333
     68 H42        -5.9080   -6.5000   -0.7740 ho        1 ECA      0.442000
     69 H41        -3.6200   -4.8300   -2.1440 ho        1 ECA      0.468000
@<TRIPOS>BOND
     1    1    2 1   
     2    1   43 1   
     3    2    3 ar  
     4    2    5 ar  
     5    3    4 1   
     6    3    8 ar  
     7    4   44 1   
     8    5    6 ar  
     9    5   45 1   
    10    6    7 ar  
    11    6   46 1   
    12    7    8 ar  
    13    7   47 1   
    14    8    9 1   
    15    9   10 2   
    16    9   11 1   
    17   11   12 1   
    18   11   48 1   
    19   12   13 1   
    20   12   49 1   
    21   12   50 1   
    22   13   14 ar  
    23   13   15 ar  
    24   14   30 ar  
    25   14   51 1   
    26   15   16 ar  
    27   15   52 1   
    28   16   17 1   
    29   16   29 ar  
    30   17   18 1   
    31   17   53 1   
    32   17   54 1   
    33   18   19 1   
    34   18   55 1   
    35   19   20 2   
    36   19   21 1   
    37   21   22 ar  
    38   21   27 ar  
    39   22   23 ar  
    40   22   56 1   
    41   23   24 ar  
    42   23   57 1   
    43   24   25 ar  
    44   24   58 1   
    45   25   26 1   
    46   25   27 ar  
    47   26   59 1   
    48   27   28 1   
    49   28   60 1   
    50   29   30 ar  
    51   29   61 1   
    52   30   31 1   
    53   31   32 1   
    54   31   62 1   
    55   31   63 1   
    56   32   33 1   
    57   32   64 1   
    58   33   34 2   
    59   33   35 1   
    60   35   36 ar  
    61   35   41 ar  
    62   36   37 ar  
    63   36   65 1   
    64   37   38 ar  
    65   37   66 1   
    66   38   39 ar  
    67   38   67 1   
    68   39   40 1   
    69   39   41 ar  
    70   40   68 1   
    71   41   42 1   
    72   42   69 1   
@<TRIPOS>SUBSTRUCTURE
     1 ECA         1 TEMP              0 ****  ****    0 ROOT
