@<TRIPOS>MOLECULE
ECA
   72    75     1     0     0
SMALL
bcc


@<TRIPOS>ATOM
      1 O20         1.4080   -0.9070    0.7290 oh        1 ECA     -0.495433
      2 C17         2.6700   -0.5390    0.3380 ca        1 ECA      0.067100
      3 C18         3.4940   -0.0550    1.3950 ca        1 ECA      0.220433
      4 O19         3.0780    0.0050    2.6880 oh        1 ECA     -0.483767
      5 C16         3.1620   -0.6180   -0.9580 ca        1 ECA     -0.096000
      6 C15         4.4860   -0.2260   -1.2240 ca        1 ECA     -0.096000
      7 C14         5.3040    0.2390   -0.2120 ca        1 ECA     -0.117333
      8 C13         4.8160    0.3390    1.1100 ca        1 ECA     -0.244600
      9 C11         5.6070    0.9210    2.1800 c         1 ECA      0.615033
     10 O12         5.3370    1.7220    3.0540 o         1 ECA     -0.426767
     11 N10         7.0840    0.4280    2.2130 n4        1 ECA     -0.697133
     12 C9          7.4900    0.0130    3.5850 c3        1 ECA      0.158433
     13 C2          8.9720   -0.0050    3.8010 ca        1 ECA     -0.146633
     14 C1          9.6680    1.1980    3.9720 ca        1 ECA     -0.051667
     15 C3          9.6520   -1.2240    3.9000 ca        1 ECA     -0.051667
     16 C4         11.0230   -1.2420    4.1840 ca        1 ECA     -0.146633
     17 C8         11.7800   -2.5360    4.1650 c3        1 ECA      0.158433
     18 N21        11.5500   -3.4200    5.3480 n4        1 ECA     -0.697133
     19 C22        10.5850   -4.5950    5.0560 c         1 ECA      0.615033
     20 O23         9.6000   -4.2820    4.4060 o         1 ECA     -0.426767
     21 C24        11.0180   -5.8710    5.5920 ca        1 ECA     -0.244600
     22 C25        11.6270   -5.9900    6.8630 ca        1 ECA     -0.117333
     23 C26        11.9670   -7.2320    7.3620 ca        1 ECA     -0.096000
     24 C27        11.7250   -8.4010    6.6170 ca        1 ECA     -0.096000
     25 C28        11.1320   -8.3040    5.3650 ca        1 ECA      0.067100
     26 O31        10.8490   -9.3620    4.5400 oh        1 ECA     -0.495433
     27 C29        10.7660   -7.0330    4.8340 ca        1 ECA      0.220433
     28 O30        10.2130   -6.8820    3.6020 oh        1 ECA     -0.483767
     29 C5         11.7130   -0.0380    4.3700 ca        1 ECA     -0.051667
     30 C6         11.0380    1.1850    4.2540 ca        1 ECA     -0.146633
     31 C7         11.8160    2.4650    4.3090 c3        1 ECA      0.158433
     32 N32        11.4770    3.3620    5.4560 n4        1 ECA     -0.697133
     33 C33        10.6060    4.5740    5.0450 c         1 ECA      0.615033
     34 O34         9.6910    4.2930    4.2870 o         1 ECA     -0.426767
     35 C35        11.0270    5.8380    5.6170 ca        1 ECA     -0.244600
     36 C36        11.5000    5.9480    6.9470 ca        1 ECA     -0.117333
     37 C37        11.8310    7.1810    7.4720 ca        1 ECA     -0.096000
     38 C38        11.7130    8.3510    6.6980 ca        1 ECA     -0.096000
     39 C39        11.2550    8.2640    5.3900 ca        1 ECA      0.067100
     40 O42        11.1030    9.3220    4.5320 oh        1 ECA     -0.495433
     41 C40        10.9020    7.0010    4.8300 ca        1 ECA      0.220433
     42 O41        10.4790    6.8580    3.5460 oh        1 ECA     -0.483767
     43 H20         0.8750   -1.0990   -0.0610 ho        1 ECA      0.470000
     44 H19         2.1220   -0.1960    2.7290 ho        1 ECA      0.488333
     45 H16         2.5200   -0.9810   -1.7790 ha        1 ECA      0.185000
     46 H15         4.8630   -0.2850   -2.2600 ha        1 ECA      0.180000
     47 H14         6.3220    0.5770   -0.4550 ha        1 ECA      0.129333
     48 H10         7.1850   -0.3540    1.5600 hn        1 ECA      0.457300
     49 H9C1        7.0190    0.7400    4.3180 hx        1 ECA      0.125867
     50 H9C2        7.0470   -1.0080    3.7790 hx        1 ECA      0.125867
     51 H1          9.1340    2.1630    3.8800 ha        1 ECA      0.175000
     52 H3          9.1110   -2.1780    3.7490 ha        1 ECA      0.175000
     53 H8C1       12.8900   -2.3280    4.1060 hx        1 ECA      0.125867
     54 H8C2       11.4880   -3.1170    3.2370 hx        1 ECA      0.125867
     55 H21        11.1650   -2.8750    6.1240 hn        1 ECA      0.457300
     56 H25        11.7940   -5.1000    7.4870 ha        1 ECA      0.129333
     57 H26        12.4300   -7.3220    8.3610 ha        1 ECA      0.180000
     58 H27        12.0040   -9.3850    7.0320 ha        1 ECA      0.185000
     59 H31        11.0790  -10.1910    4.9940 ho        1 ECA      0.470000
     60 H30        10.0560   -7.7640    3.2070 ho        1 ECA      0.488333
     61 H5         12.7970   -0.0500    4.5780 ha        1 ECA      0.175000
     62 H7C1       11.6330    3.0430    3.3520 hx        1 ECA      0.125867
     63 H7C2       12.9230    2.2400    4.3690 hx        1 ECA      0.125867
     64 H32        10.9750    2.8360    6.1760 hn        1 ECA      0.457300
     65 H36        11.5660    5.0590    7.5910 ha        1 ECA      0.129333
     66 H37        12.1860    7.2650    8.5140 ha        1 ECA      0.180000
     67 H38        11.9830    9.3280    7.1340 ha        1 ECA      0.185000
     68 H42        11.3090   10.1470    5.0040 ho        1 ECA      0.470000
     69 H41        10.3960    7.7410    3.1330 ho        1 ECA      0.488333
     70 H102        7.6830    1.1960    1.8950 hn        1 ECA      0.457300
     71 H212       12.4470   -3.8210    5.6470 hn        1 ECA      0.457300
     72 H322       12.3460    3.7260    5.8670 hn        1 ECA      0.457300
@<TRIPOS>BOND
     1    1    2 1   
     2    1   43 1   
     3    2    3 ar  
     4    2    5 ar  
     5    3    4 1   
     6    3    8 ar  
     7    4   44 1   
     8    5    6 ar  
     9    5   45 1   
    10    6    7 ar  
    11    6   46 1   
    12    7    8 ar  
    13    7   47 1   
    14    8    9 1   
    15    9   10 2   
    16    9   11 1   
    17   11   12 1   
    18   11   48 1   
    19   11   70 1   
    20   12   13 1   
    21   12   49 1   
    22   12   50 1   
    23   13   14 ar  
    24   13   15 ar  
    25   14   30 ar  
    26   14   51 1   
    27   15   16 ar  
    28   15   52 1   
    29   16   17 1   
    30   16   29 ar  
    31   17   18 1   
    32   17   53 1   
    33   17   54 1   
    34   18   19 1   
    35   18   55 1   
    36   18   71 1   
    37   19   20 2   
    38   19   21 1   
    39   21   22 ar  
    40   21   27 ar  
    41   22   23 ar  
    42   22   56 1   
    43   23   24 ar  
    44   23   57 1   
    45   24   25 ar  
    46   24   58 1   
    47   25   26 1   
    48   25   27 ar  
    49   26   59 1   
    50   27   28 1   
    51   28   60 1   
    52   29   30 ar  
    53   29   61 1   
    54   30   31 1   
    55   31   32 1   
    56   31   62 1   
    57   31   63 1   
    58   32   33 1   
    59   32   64 1   
    60   32   72 1   
    61   33   34 2   
    62   33   35 1   
    63   35   36 ar  
    64   35   41 ar  
    65   36   37 ar  
    66   36   65 1   
    67   37   38 ar  
    68   37   66 1   
    69   38   39 ar  
    70   38   67 1   
    71   39   40 1   
    72   39   41 ar  
    73   40   68 1   
    74   41   42 1   
    75   42   69 1   
@<TRIPOS>SUBSTRUCTURE
     1 ECA         1 TEMP              0 ****  ****    0 ROOT
