@<TRIPOS>MOLECULE
ECA
   72    75     1     0     0
SMALL
bcc


@<TRIPOS>ATOM
      1 O20         1.4140   -0.9080    0.7170 oh        1 ECA     -0.495433
      2 C17         2.6750   -0.5330    0.3300 ca        1 ECA      0.067100
      3 C18         3.4960   -0.0550    1.3910 ca        1 ECA      0.220433
      4 O19         3.0780   -0.0040    2.6840 oh        1 ECA     -0.483767
      5 C16         3.1680   -0.6020   -0.9660 ca        1 ECA     -0.096000
      6 C15         4.4910   -0.2040   -1.2280 ca        1 ECA     -0.096000
      7 C14         5.3070    0.2560   -0.2120 ca        1 ECA     -0.117333
      8 C13         4.8170    0.3450    1.1100 ca        1 ECA     -0.244600
      9 C11         5.6050    0.9220    2.1850 c         1 ECA      0.615033
     10 O12         5.3310    1.7160    3.0650 o         1 ECA     -0.426767
     11 N10         7.0830    0.4340    2.2160 ny        1 ECA     -0.697133
     12 C9          7.4890    0.0100    3.5860 c3        1 ECA      0.158433
     13 C2          8.9710   -0.0050    3.8040 ca        1 ECA     -0.146633
     14 C1          9.6630    1.1990    3.9830 ca        1 ECA     -0.051333
     15 C3          9.6550   -1.2220    3.8960 ca        1 ECA     -0.051333
     16 C4         11.0260   -1.2380    4.1820 ca        1 ECA     -0.146633
     17 C8         11.7870   -2.5290    4.1550 c3        1 ECA      0.158433
     18 N21        11.5550   -3.4220    5.3310 ny        1 ECA     -0.697133
     19 C22        10.5970   -4.5990    5.0280 c         1 ECA      0.615033
     20 O23         9.6120   -4.2850    4.3790 o         1 ECA     -0.426767
     21 C24        11.0350   -5.8780    5.5530 ca        1 ECA     -0.244600
     22 C25        11.6400   -6.0050    6.8250 ca        1 ECA     -0.117333
     23 C26        11.9860   -7.2500    7.3140 ca        1 ECA     -0.096000
     24 C27        11.7520   -8.4130    6.5580 ca        1 ECA     -0.096000
     25 C28        11.1630   -8.3080    5.3050 ca        1 ECA      0.067100
     26 O31        10.8880   -9.3600    4.4690 oh        1 ECA     -0.495433
     27 C29        10.7920   -7.0340    4.7840 ca        1 ECA      0.220433
     28 O30        10.2430   -6.8750    3.5510 oh        1 ECA     -0.483767
     29 C5         11.7110   -0.0330    4.3750 ca        1 ECA     -0.051333
     30 C6         11.0330    1.1890    4.2660 ca        1 ECA     -0.146633
     31 C7         11.8070    2.4710    4.3300 c3        1 ECA      0.158433
     32 N32        11.4630    3.3600    5.4820 ny        1 ECA     -0.697133
     33 C33        10.5890    4.5720    5.0770 c         1 ECA      0.615033
     34 O34         9.6760    4.2930    4.3170 o         1 ECA     -0.426767
     35 C35        11.0070    5.8330    5.6560 ca        1 ECA     -0.244600
     36 C36        11.4770    5.9380    6.9870 ca        1 ECA     -0.117333
     37 C37        11.8040    7.1700    7.5190 ca        1 ECA     -0.096000
     38 C38        11.6860    8.3420    6.7510 ca        1 ECA     -0.096000
     39 C39        11.2300    8.2610    5.4420 ca        1 ECA      0.067100
     40 O42        11.0760    9.3230    4.5890 oh        1 ECA     -0.495433
     41 C40        10.8800    7.0010    4.8750 ca        1 ECA      0.220433
     42 O41        10.4600    6.8640    3.5900 oh        1 ECA     -0.483767
     43 H20         0.8810   -1.0960   -0.0750 ho        1 ECA      0.470000
     44 H19         2.1230   -0.2090    2.7230 ho        1 ECA      0.488333
     45 H16         2.5280   -0.9620   -1.7910 ha        1 ECA      0.185000
     46 H15         4.8690   -0.2560   -2.2640 ha        1 ECA      0.180000
     47 H14         6.3240    0.5980   -0.4510 ha        1 ECA      0.130000
     48 H10         7.1870   -0.3450    1.5580 hn        1 ECA      0.457300
     49 H9C1        7.0150    0.7300    4.3230 hx        1 ECA      0.125867
     50 H9C2        7.0490   -1.0140    3.7720 hx        1 ECA      0.125867
     51 H1          9.1270    2.1630    3.8970 ha        1 ECA      0.175000
     52 H3          9.1170   -2.1770    3.7390 ha        1 ECA      0.175000
     53 H8C1       12.8960   -2.3170    4.1010 hx        1 ECA      0.125867
     54 H8C2       11.4990   -3.1050    3.2230 hx        1 ECA      0.125867
     55 H21        11.1660   -2.8840    6.1100 hn        1 ECA      0.457300
     56 H25        11.8000   -5.1200    7.4580 ha        1 ECA      0.130000
     57 H26        12.4450   -7.3470    8.3130 ha        1 ECA      0.180000
     58 H27        12.0350   -9.4000    6.9640 ha        1 ECA      0.185000
     59 H31        11.1220  -10.1910    4.9160 ho        1 ECA      0.470000
     60 H30        10.0910   -7.7530    3.1480 ho        1 ECA      0.488333
     61 H5         12.7960   -0.0430    4.5850 ha        1 ECA      0.175000
     62 H7C1       11.6240    3.0540    3.3760 hx        1 ECA      0.125867
     63 H7C2       12.9140    2.2480    4.3910 hx        1 ECA      0.125867
     64 H32        10.9610    2.8280    6.1980 hn        1 ECA      0.457300
     65 H36        11.5430    5.0450    7.6260 ha        1 ECA      0.130000
     66 H37        12.1580    7.2480    8.5620 ha        1 ECA      0.180000
     67 H38        11.9520    9.3190    7.1930 ha        1 ECA      0.185000
     68 H42        11.2810   10.1470    5.0660 ho        1 ECA      0.470000
     69 H41        10.3760    7.7480    3.1800 ho        1 ECA      0.488333
     70 H102        7.6810    1.2050    1.9040 hn        1 ECA      0.457300
     71 H212       12.4540   -3.8210    5.6310 hn        1 ECA      0.457300
     72 H322       12.3300    3.7230    5.8970 hn        1 ECA      0.457300
@<TRIPOS>BOND
     1    1    2 1   
     2    1   43 1   
     3    2    3 ar  
     4    2    5 ar  
     5    3    4 1   
     6    3    8 ar  
     7    4   44 1   
     8    5    6 ar  
     9    5   45 1   
    10    6    7 ar  
    11    6   46 1   
    12    7    8 ar  
    13    7   47 1   
    14    8    9 1   
    15    9   10 2   
    16    9   11 1   
    17   11   12 1   
    18   11   48 1   
    19   11   70 1   
    20   12   13 1   
    21   12   49 1   
    22   12   50 1   
    23   13   14 ar  
    24   13   15 ar  
    25   14   30 ar  
    26   14   51 1   
    27   15   16 ar  
    28   15   52 1   
    29   16   17 1   
    30   16   29 ar  
    31   17   18 1   
    32   17   53 1   
    33   17   54 1   
    34   18   19 1   
    35   18   55 1   
    36   18   71 1   
    37   19   20 2   
    38   19   21 1   
    39   21   22 ar  
    40   21   27 ar  
    41   22   23 ar  
    42   22   56 1   
    43   23   24 ar  
    44   23   57 1   
    45   24   25 ar  
    46   24   58 1   
    47   25   26 1   
    48   25   27 ar  
    49   26   59 1   
    50   27   28 1   
    51   28   60 1   
    52   29   30 ar  
    53   29   61 1   
    54   30   31 1   
    55   31   32 1   
    56   31   62 1   
    57   31   63 1   
    58   32   33 1   
    59   32   64 1   
    60   32   72 1   
    61   33   34 2   
    62   33   35 1   
    63   35   36 ar  
    64   35   41 ar  
    65   36   37 ar  
    66   36   65 1   
    67   37   38 ar  
    68   37   66 1   
    69   38   39 ar  
    70   38   67 1   
    71   39   40 1   
    72   39   41 ar  
    73   40   68 1   
    74   41   42 1   
    75   42   69 1   
@<TRIPOS>SUBSTRUCTURE
     1 ECA         1 TEMP              0 ****  ****    0 ROOT
