@<TRIPOS>MOLECULE
ECA
   69    64     1     0     0
SMALL
bcc


@<TRIPOS>ATOM
      1 O20        -8.9900    0.3600   -2.2950 oh        1 ECA     -0.273000
      2 C17        -7.5880    0.2850   -2.3060 c2        1 ECA     -0.014000
      3 C18        -6.8730    0.3380   -1.0990 c2        1 ECA      0.095000
      4 O19        -7.5630    0.4800    0.1340 oh        1 ECA     -0.259000
      5 C16        -6.9070    0.1990   -3.5060 c1        1 ECA     -0.150000
      6 C15        -5.4970    0.1670   -3.5110 c1        1 ECA     -0.107500
      7 C14        -4.8030    0.2200   -2.3260 c1        1 ECA     -0.107500
      8 C13        -5.4930    0.3060   -1.1120 c1        1 ECA     -0.120000
      9 C11        -4.7280    0.2340    0.1910 c2        1 ECA      0.352000
     10 O12        -5.3330    0.2040    1.2510 o         1 ECA     -0.378000
     11 N10        -3.2880    0.4030    0.1880 n         1 ECA     -0.362000
     12 C9         -2.5670    0.3830    1.4190 c3        1 ECA      0.015000
     13 C2         -1.0450    0.3660    1.1270 c2        1 ECA     -0.104000
     14 C1         -0.3370    1.5520    1.0800 c2        1 ECA     -0.106000
     15 C3         -0.3810   -0.8500    0.9670 c1        1 ECA     -0.091000
     16 C4          0.9910   -0.8720    0.7590 c1        1 ECA     -0.105000
     17 C8          1.7220   -2.2240    0.5520 c3        1 ECA      0.011000
     18 N21         1.6930   -2.9710    1.7720 n         1 ECA     -0.363000
     19 C22         2.4130   -4.2550    1.8700 c2        1 ECA      0.356000
     20 O23         3.2190   -4.5770    0.9980 o         1 ECA     -0.382000
     21 C24         2.1340   -5.2200    3.0690 c2        1 ECA     -0.122000
     22 C25         0.8570   -5.7010    3.2930 c2        1 ECA     -0.077000
     23 C26         0.6050   -6.5200    4.4040 c1        1 ECA     -0.139000
     24 C27         1.6300   -6.8440    5.2700 c1        1 ECA     -0.150000
     25 C28         2.9040   -6.3660    5.0480 c1        1 ECA     -0.014000
     26 O31         3.9580   -6.7050    5.9550 o         1 ECA     -0.273500
     27 C29         3.1650   -5.5540    3.9500 c2        1 ECA      0.096000
     28 O30         4.4390   -5.0070    3.7810 oh        1 ECA     -0.258000
     29 C5          1.7060    0.3190    0.7100 c1        1 ECA     -0.098000
     30 C6          1.0450    1.5330    0.8700 c1        1 ECA     -0.114000
     31 C7          1.8440    2.8830    0.7570 c3        1 ECA      0.017000
     32 N32         2.1710    3.1460   -0.6540 n         1 ECA     -0.363000
     33 C33         2.9090    4.3290   -1.0100 c2        1 ECA      0.357000
     34 O34         3.0530    5.2330   -0.1870 o         1 ECA     -0.387000
     35 C35         3.3970    4.5220   -2.4500 c2        1 ECA     -0.124000
     36 C36         4.4150    3.7330   -2.9450 c2        1 ECA     -0.077000
     37 C37         4.9480    3.9970   -4.1890 c1        1 ECA     -0.139000
     38 C38         4.4650    5.0430   -4.9310 c1        1 ECA     -0.148000
     39 C39         3.4580    5.8230   -4.4390 c1        1 ECA     -0.016000
     40 O42         3.0140    6.9560   -5.1730 o         1 ECA     -0.273500
     41 C40         2.9220    5.5580   -3.1900 c2        1 ECA      0.098000
     42 O41         1.9520    6.4380   -2.6320 oh        1 ECA     -0.258000
     43 H20        -9.3370   -0.4620   -2.4130 ho        1 ECA      0.232000
     44 H19        -7.9640    1.2920    0.1650 ho        1 ECA      0.247000
     45 H16        -7.4100    0.1610   -4.3660 ha        1 ECA      0.139000
     46 H15        -5.0210    0.1090   -4.3400 ha        1 ECA      0.153000
     47 H14        -3.7960    0.1970   -2.3300 ha        1 ECA      0.153000
     48 H10        -2.8430    0.5670   -0.6050 hn        1 ECA      0.242000
     49 H9C1       -2.7960    1.2020    1.9550 h1        1 ECA      0.099000
     50 H9C2       -2.8180   -0.4410    1.9410 h1        1 ECA      0.099000
     51 H1         -0.8040    2.4040    1.1890 ha        1 ECA      0.133000
     52 H3         -0.8690   -1.6800    1.0420 ha        1 ECA      0.149000
     53 H8C1        1.2850   -2.7220   -0.1350 h1        1 ECA      0.105500
     54 H8C2        2.6440   -2.0570    0.2950 h1        1 ECA      0.105500
     55 H21         1.2020   -2.6740    2.4710 hn        1 ECA      0.242000
     56 H25         0.1200   -5.4700    2.6710 ha        1 ECA      0.163000
     57 H26        -0.3000   -6.8630    4.5670 ha        1 ECA      0.142000
     58 H27         1.4520   -7.4200    6.0510 ha        1 ECA      0.138000
     59 H31         3.6120   -6.8170    6.7930 ho        1 ECA      0.232000
     60 H30         5.0140   -5.6520    3.6340 ho        1 ECA      0.247000
     61 H5          2.6460    0.3040    0.5670 ha        1 ECA      0.157000
     62 H7C1        1.2860    3.6340    1.1160 h1        1 ECA      0.106000
     63 H7C2        2.6860    2.8150    1.2850 h1        1 ECA      0.106000
     64 H32         1.9440    2.5250   -1.3080 hn        1 ECA      0.241000
     65 H36         4.7620    2.9780   -2.4070 ha        1 ECA      0.165000
     66 H37         5.6650    3.4420   -4.5400 ha        1 ECA      0.144000
     67 H38         4.8430    5.2330   -5.8170 ha        1 ECA      0.139000
     68 H42         3.6990    7.2810   -5.6750 ho        1 ECA      0.232000
     69 H41         1.4610    6.7670   -3.2660 ho        1 ECA      0.247000
@<TRIPOS>BOND
     1    1    2 1   
     2    1   43 1   
     3    2    3 1   
     4    2    5 1   
     5    3    4 1   
     6    3    8 1   
     7    4   44 1   
     8    5   45 1   
     9    6    7 1   
    10    6   46 1   
    11    7   47 1   
    12    8    9 1   
    13    9   10 1   
    14    9   11 1   
    15   11   12 1   
    16   11   48 1   
    17   12   13 1   
    18   12   49 1   
    19   12   50 1   
    20   13   14 1   
    21   13   15 1   
    22   14   30 1   
    23   14   51 1   
    24   15   52 1   
    25   16   17 1   
    26   16   29 1   
    27   17   18 1   
    28   17   53 1   
    29   17   54 1   
    30   18   19 1   
    31   18   55 1   
    32   19   20 1   
    33   19   21 1   
    34   21   22 1   
    35   21   27 1   
    36   22   23 1   
    37   22   56 1   
    38   23   57 1   
    39   24   25 1   
    40   24   58 1   
    41   25   27 1   
    42   26   59 1   
    43   27   28 1   
    44   28   60 1   
    45   29   61 1   
    46   30   31 1   
    47   31   32 1   
    48   31   62 1   
    49   31   63 1   
    50   32   33 1   
    51   32   64 1   
    52   33   34 1   
    53   33   35 1   
    54   35   36 1   
    55   35   41 1   
    56   36   37 1   
    57   36   65 1   
    58   37   66 1   
    59   38   39 1   
    60   38   67 1   
    61   39   41 1   
    62   40   68 1   
    63   41   42 1   
    64   42   69 1   
@<TRIPOS>SUBSTRUCTURE
     1 ECA         1 TEMP              0 ****  ****    0 ROOT
