@<TRIPOS>MOLECULE
ECC
   21    19     1     0     0
SMALL
bcc


@<TRIPOS>ATOM
      1 C          -2.0790    0.3210   -1.0320 c3        1 ECC     -0.064000
      2 N          -0.0990    1.5400   -1.6090 n3        1 ECC     -0.332000
      3 O          -2.5140    0.1210   -2.3590 oh        1 ECC     -0.337000
      4 CA         -0.5680    0.3460   -0.9950 c3        1 ECC     -0.034000
      5 CB         -0.0990    0.2990    0.4410 c3        1 ECC     -0.148000
      6 CD          1.6870   -0.4920    1.9530 c1        1 ECC      0.297000
      7 CG          1.1870   -0.4930    0.5250 c2        1 ECC     -0.171000
      8 OE1         1.4340    0.4440    2.6850 o         1 ECC     -0.382000
      9 NE2         2.4530   -1.5830    2.4370 n3        1 ECC     -0.441000
     10 H          -2.4280    1.1740   -0.7000 h1        1 ECC      0.068500
     11 HA         -2.4080   -0.4090   -0.4670 h1        1 ECC      0.068500
     12 HN          0.2930    1.3370   -2.4120 hn        1 ECC      0.148000
     13 HNA        -0.8030    2.1100   -1.7480 hn        1 ECC      0.148000
     14 HO         -3.3950    0.0040   -2.3680 ho        1 ECC      0.204000
     15 HAA        -0.2180   -0.4280   -1.4780 h1        1 ECC      0.108000
     16 HB          0.0580    1.2100    0.7620 hc        1 ECC      0.099000
     17 HBA        -0.7830   -0.1290    0.9940 hc        1 ECC      0.099000
     18 HG          1.8600   -0.0870   -0.0560 ha        1 ECC      0.111000
     19 HGA         1.0220   -1.4140    0.2390 ha        1 ECC      0.111000
     20 HNE2        2.7560   -1.5820    3.3000 hn        1 ECC      0.223500
     21 HNEA        2.6440   -2.2880    1.8870 hn        1 ECC      0.223500
@<TRIPOS>BOND
     1    1    3 1   
     2    1    4 1   
     3    1   10 1   
     4    1   11 1   
     5    2    4 1   
     6    2   12 1   
     7    2   13 1   
     8    3   14 1   
     9    4    5 1   
    10    4   15 1   
    11    5    7 1   
    12    5   16 1   
    13    5   17 1   
    14    6    8 1   
    15    6    9 1   
    16    7   18 1   
    17    7   19 1   
    18    9   20 1   
    19    9   21 1   
@<TRIPOS>SUBSTRUCTURE
     1 ECC         1 TEMP              0 ****  ****    0 ROOT
