@<TRIPOS>MOLECULE
ECC
   21    20     1     0     0
SMALL
bcc


@<TRIPOS>ATOM
      1 C           2.2520   -0.9580    0.3350 c3        1 ECC      0.141400
      2 N           1.8700    1.1130   -0.9560 n3        1 ECC     -0.911800
      3 O           3.4890   -0.6020    0.9090 oh        1 ECC     -0.599800
      4 CA          1.3490    0.2750    0.1050 c3        1 ECC      0.121500
      5 CB         -0.0920   -0.2240   -0.0860 c3        1 ECC     -0.115400
      6 CD         -2.5030    0.4110   -0.2730 c         1 ECC      0.656100
      7 CG         -1.0820    0.9180   -0.1120 c3        1 ECC     -0.156400
      8 OE1        -3.1420    0.5890   -1.3300 o         1 ECC     -0.611100
      9 NE2        -3.0870   -0.2450    0.7810 n         1 ECC     -0.677000
     10 H           2.4120   -1.5180   -0.6250 h1        1 ECC      0.044200
     11 HA          1.7760   -1.6400    1.0900 h1        1 ECC      0.044200
     12 HN          1.8270    0.6410   -1.8380 hn        1 ECC      0.353800
     13 HNA         1.3510    1.9660   -1.0160 hn        1 ECC      0.353800
     14 HO          3.9100    0.0420    0.3260 ho        1 ECC      0.416000
     15 HAA         1.3840    0.8930    1.0530 h1        1 ECC      0.070700
     16 HB         -0.1680   -0.8130   -1.0380 hc        1 ECC      0.053700
     17 HBA        -0.3400   -0.9200    0.7580 hc        1 ECC      0.053700
     18 HG         -0.9970    1.5270    0.8260 hc        1 ECC      0.069200
     19 HGA        -0.8780    1.5980   -0.9810 hc        1 ECC      0.069200
     20 HNE2       -2.5940   -0.4000    1.6210 hn        1 ECC      0.312000
     21 HNEA       -4.0130   -0.5820    0.6990 hn        1 ECC      0.312000
@<TRIPOS>BOND
     1    1    3 1   
     2    1    4 1   
     3    1   10 1   
     4    1   11 1   
     5    2    4 1   
     6    2   12 1   
     7    2   13 1   
     8    3   14 1   
     9    4    5 1   
    10    4   15 1   
    11    5    7 1   
    12    5   16 1   
    13    5   17 1   
    14    6    7 1   
    15    6    8 2   
    16    6    9 1   
    17    7   18 1   
    18    7   19 1   
    19    9   20 1   
    20    9   21 1   
@<TRIPOS>SUBSTRUCTURE
     1 ECC         1 TEMP              0 ****  ****    0 ROOT
