@<TRIPOS>MOLECULE
ECD
   22    21     1     0     0
SMALL
bcc


@<TRIPOS>ATOM
      1 O01        -0.4170   -1.7300    4.0750 o         1 ECD     -0.571300
      2 C02        -1.1290   -1.7760    3.0100 c         1 ECD      0.889600
      3 O03        -2.3610   -1.9090    3.0920 o         1 ECD     -0.571300
      4 C04        -0.4490   -1.7530    1.6300 c3        1 ECD     -0.161400
      5 C06        -0.3260   -0.2730    1.1310 c3        1 ECD     -0.064400
      6 C07         0.4210   -0.2480   -0.2640 c3        1 ECD      0.136500
      7 C08         1.4980    0.7390   -0.2390 c3        1 ECD      0.127800
      8 N09         1.2400    1.6610   -1.3000 nh        1 ECD     -0.802200
      9 C10         0.0700    1.2300   -1.9880 c2        1 ECD      0.723100
     10 N11        -0.4120    1.7560   -3.0730 n2        1 ECD     -0.839100
     11 N12        -0.4840    0.1150   -1.2750 nh        1 ECD     -0.805200
     12 H04        -1.0020   -2.2840    0.9730 hc        1 ECD      0.070700
     13 H04A        0.4520   -2.1530    1.7000 hc        1 ECD      0.070700
     14 H06        -1.1970    0.1010    1.0300 hc        1 ECD      0.061200
     15 H06A        0.1930    0.2640    1.8000 hc        1 ECD      0.061200
     16 H07         0.8080   -1.1790   -0.4630 h1        1 ECD      0.061700
     17 H08         2.3350    0.2510   -0.4840 h1        1 ECD      0.058700
     18 HN11        0.0280    2.4990   -3.4770 DU        1 ECD      0.201000
     19 HN1A       -1.1720    1.4140   -3.4490 hn        1 ECD      0.454400
     20 H08A        1.4000    1.2420    0.6010 h1        1 ECD      0.058700
     21 HN09        1.7540    2.3860   -1.5190 hn        1 ECD      0.393800
     22 HN12       -1.2480   -0.3530   -1.5110 hn        1 ECD      0.444800
@<TRIPOS>BOND
     1    1    2 1   
     2    2    3 1   
     3    2    4 1   
     4    4    5 1   
     5    4   12 1   
     6    4   13 1   
     7    5    6 1   
     8    5   14 1   
     9    5   15 1   
    10    6    7 1   
    11    6   11 1   
    12    6   16 1   
    13    7    8 1   
    14    7   17 1   
    15    7   20 1   
    16    8    9 1   
    17    8   21 1   
    18    9   10 2   
    19    9   11 1   
    20   10   19 1   
    21   11   22 1   
@<TRIPOS>SUBSTRUCTURE
     1 ECD         1 TEMP              0 ****  ****    0 ROOT
