@<TRIPOS>MOLECULE
ECD
   22    22     1     0     0
SMALL
bcc


@<TRIPOS>ATOM
      1 O01        -2.5890    0.7820    1.1570 o         1 ECD     -0.509000
      2 C02        -1.8810    0.9720    0.1650 c         1 ECD      0.638100
      3 O03        -1.3580    2.2300    0.1020 oh        1 ECD     -0.583100
      4 C04        -1.6170   -0.0140   -0.9360 c3        1 ECD     -0.161400
      5 C06        -0.6140   -1.0680   -0.5160 c3        1 ECD     -0.064400
      6 C07         0.8230   -0.6720   -0.8460 c3        1 ECD      0.103500
      7 C08         1.8290   -1.7300   -0.2590 c3        1 ECD      0.127800
      8 N09         2.7000   -0.9760    0.6460 nh        1 ECD     -0.802200
      9 C10         2.2900    0.4210    0.4920 c2        1 ECD      0.723100
     10 N11         3.0350    1.4380    1.1170 nh        1 ECD     -0.868800
     11 N12         1.2270    0.6200   -0.2860 n2        1 ECD     -0.702900
     12 H04        -2.5960   -0.5100   -1.1790 hc        1 ECD      0.070700
     13 H04A       -1.2640    0.5190   -1.8580 hc        1 ECD      0.070700
     14 H06        -0.7200   -1.2740    0.5820 hc        1 ECD      0.061200
     15 H06A       -0.8340   -2.0230   -1.0630 hc        1 ECD      0.061200
     16 H07         0.9330   -0.6170   -1.9660 h1        1 ECD      0.061700
     17 H08         1.2920   -2.5070    0.3460 h1        1 ECD      0.058700
     18 HN11        3.4500    1.1580    1.9800 hn        1 ECD      0.410300
     19 HN1A        2.5460    2.3060    1.1830 hn        1 ECD      0.410300
     20 H08A        2.3970   -2.2360   -1.0810 h1        1 ECD      0.058700
     21 HN09        3.6750   -1.1230    0.4870 hn        1 ECD      0.393800
     22 HN12       -0.7040    2.2830   -0.6110 ho        1 ECD      0.441000
@<TRIPOS>BOND
     1    1    2 2   
     2    2    3 1   
     3    2    4 1   
     4    3   22 1   
     5    4    5 1   
     6    4   12 1   
     7    4   13 1   
     8    5    6 1   
     9    5   14 1   
    10    5   15 1   
    11    6    7 1   
    12    6   11 1   
    13    6   16 1   
    14    7    8 1   
    15    7   17 1   
    16    7   20 1   
    17    8    9 1   
    18    8   21 1   
    19    9   10 1   
    20    9   11 2   
    21   10   18 1   
    22   10   19 1   
@<TRIPOS>SUBSTRUCTURE
     1 ECD         1 TEMP              0 ****  ****    0 ROOT
