@<TRIPOS>MOLECULE
ECD
   22    22     1     0     0
SMALL
bcc


@<TRIPOS>ATOM
      1 O01         3.6100    1.8970   -0.6260 o         1 ECD     -0.856300
      2 C02         2.6320    1.4790   -1.3280 c         1 ECD      0.887600
      3 O03         2.0430    2.2520   -2.1440 o         1 ECD     -0.856300
      4 C04         2.2830   -0.0040   -1.3470 c3        1 ECD     -0.196400
      5 C06         3.4710   -0.9180   -1.5790 c3        1 ECD     -0.086400
      6 C07         4.5570   -0.4420   -2.5570 c3        1 ECD      0.001000
      7 C08         5.8820   -0.0390   -1.8060 c3        1 ECD     -0.017700
      8 N09         6.0050    1.4170   -1.9560 nh        1 ECD     -0.339100
      9 C10         4.8750    1.8560   -2.7020 cz        1 ECD      0.484300
     10 N11         4.5890    3.1630   -2.9820 nh        1 ECD     -0.411200
     11 N12         4.2360    0.7660   -3.3380 nh        1 ECD     -0.332200
     12 H04         1.5110   -0.1720   -2.1430 hc        1 ECD      0.060700
     13 H04A        1.8170   -0.2660   -0.3620 hc        1 ECD      0.060700
     14 H06         3.0850   -1.9030   -1.9560 hc        1 ECD      0.051700
     15 H06A        3.9590   -1.1150   -0.5880 hc        1 ECD      0.051700
     16 H07         4.7810   -1.2580   -3.2980 h1        1 ECD      0.086700
     17 H08         6.7690   -0.5140   -2.3020 h1        1 ECD      0.079200
     18 HN11        5.0370    3.8510   -2.4130 hn        1 ECD      0.316200
     19 HN1A        3.6150    3.3500   -3.1890 hn        1 ECD      0.316200
     20 H08A        5.8500   -0.3360   -0.7260 h1        1 ECD      0.079200
     21 HN09        6.1520    1.9230   -1.1030 hn        1 ECD      0.298700
     22 HN12        3.2730    0.8960   -3.6020 hn        1 ECD      0.320700
@<TRIPOS>BOND
     1    1    2 1   
     2    2    3 1   
     3    2    4 1   
     4    4    5 1   
     5    4   12 1   
     6    4   13 1   
     7    5    6 1   
     8    5   14 1   
     9    5   15 1   
    10    6    7 1   
    11    6   11 1   
    12    6   16 1   
    13    7    8 1   
    14    7   17 1   
    15    7   20 1   
    16    8    9 2   
    17    8   21 1   
    18    9   10 1   
    19    9   11 1   
    20   10   18 1   
    21   10   19 1   
    22   11   22 1   
@<TRIPOS>SUBSTRUCTURE
     1 ECD         1 TEMP              0 ****  ****    0 ROOT
