@<TRIPOS>MOLECULE
ECE
   18    18     1     0     0
SMALL
bcc


@<TRIPOS>ATOM
      1 C4         -0.0140    0.0100   -0.0940 c3        1 ECE     -0.087400
      2 C5          1.4920   -0.0510    0.0320 c3        1 ECE     -0.119400
      3 C6          1.9580   -0.0100    1.4740 c3        1 ECE      0.150400
      4 C2          0.2380    2.4320    0.6540 c3        1 ECE     -0.160400
      5 C3         -0.5750    1.4170   -0.1170 c3        1 ECE     -0.072400
      6 O7          1.8650    1.2600    2.1140 os        1 ECE     -0.456900
      7 C1          0.6710    1.9540    2.0050 c         1 ECE      0.726600
      8 O           0.1630    2.2340    3.0870 o         1 ECE     -0.561500
      9 H1         -0.3240   -0.5110   -1.0390 hc        1 ECE      0.048700
     10 H2         -0.4780   -0.5600    0.7560 hc        1 ECE      0.048700
     11 H3          1.8550   -1.0180   -0.4080 hc        1 ECE      0.056700
     12 H4          1.9700    0.7790   -0.5500 hc        1 ECE      0.056700
     13 H5          1.3860   -0.7530    2.0940 h1        1 ECE      0.056700
     14 H6          3.0590   -0.2370    1.5380 h1        1 ECE      0.056700
     15 H7          1.1580    2.7130    0.0740 hc        1 ECE      0.076700
     16 H8         -0.3750    3.3630    0.7970 hc        1 ECE      0.076700
     17 H9         -0.6440    1.7730   -1.1810 hc        1 ECE      0.052200
     18 H10        -1.6220    1.3940    0.2890 hc        1 ECE      0.052200
@<TRIPOS>BOND
     1    1    2 1   
     2    1    5 1   
     3    1    9 1   
     4    1   10 1   
     5    2    3 1   
     6    2   11 1   
     7    2   12 1   
     8    3    6 1   
     9    3   13 1   
    10    3   14 1   
    11    4    5 1   
    12    4    7 1   
    13    4   15 1   
    14    4   16 1   
    15    5   17 1   
    16    5   18 1   
    17    6    7 1   
    18    7    8 2   
@<TRIPOS>SUBSTRUCTURE
     1 ECE         1 TEMP              0 ****  ****    0 ROOT
