@<TRIPOS>MOLECULE
ECE
   18    18     1     0     0
SMALL
bcc


@<TRIPOS>ATOM
      1 C4         -0.0190    0.0160   -0.0940 c3        1 ECE     -0.087400
      2 C5          1.4870   -0.0550    0.0360 c3        1 ECE     -0.119400
      3 C6          1.9510   -0.0090    1.4790 c3        1 ECE      0.150400
      4 C2          0.2510    2.4400    0.6410 c3        1 ECE     -0.160400
      5 C3         -0.5700    1.4270   -0.1250 c3        1 ECE     -0.072400
      6 O7          1.8660    1.2640    2.1110 os        1 ECE     -0.456900
      7 C1          0.6780    1.9680    1.9960 c         1 ECE      0.726600
      8 O           0.1710    2.2590    3.0760 o         1 ECE     -0.561500
      9 H1         -0.4880   -0.5470    0.7570 hc        1 ECE      0.048700
     10 H2         -0.3300   -0.5070   -1.0370 hc        1 ECE      0.048700
     11 H3          1.8440   -1.0280   -0.3980 hc        1 ECE      0.056700
     12 H4          1.9720    0.7680   -0.5500 hc        1 ECE      0.056700
     13 H5          3.0490   -0.2450    1.5460 h1        1 ECE      0.056700
     14 H6          1.3710   -0.7450    2.1010 h1        1 ECE      0.056700
     15 H7         -0.3550    3.3770    0.7770 hc        1 ECE      0.076700
     16 H8          1.1730    2.7100    0.0610 hc        1 ECE      0.076700
     17 H9         -1.6170    1.4140    0.2810 hc        1 ECE      0.052200
     18 H10        -0.6350    1.7780   -1.1900 hc        1 ECE      0.052200
@<TRIPOS>BOND
     1    1    2 1   
     2    1    5 1   
     3    1    9 1   
     4    1   10 1   
     5    2    3 1   
     6    2   11 1   
     7    2   12 1   
     8    3    6 1   
     9    3   13 1   
    10    3   14 1   
    11    4    5 1   
    12    4    7 1   
    13    4   15 1   
    14    4   16 1   
    15    5   17 1   
    16    5   18 1   
    17    6    7 1   
    18    7    8 2   
@<TRIPOS>SUBSTRUCTURE
     1 ECE         1 TEMP              0 ****  ****    0 ROOT
