@<TRIPOS>MOLECULE
ECG
   31    32     1     0     0
SMALL
bcc


@<TRIPOS>ATOM
      1 C21        -0.2060   -0.0700    0.0640 c3        1 ECG     -0.112400
      2 C24         1.3310    0.0530    0.2730 c3        1 ECG      0.156500
      3 C26         1.6460   -0.0220    1.7740 c3        1 ECG     -0.099400
      4 C29         1.0630   -1.2970    2.3900 c3        1 ECG      0.162100
      5 O1          1.5230   -1.5010    3.7100 oh        1 ECG     -0.601800
      6 C18        -0.4410   -1.5760   -0.0890 c3        1 ECG     -0.108400
      7 C10         0.9810   -2.1940    0.0240 c3        1 ECG      0.160500
      8 N12         1.9370   -1.1350   -0.3780 n3        1 ECG     -0.695600
      9 C8          1.2640   -2.5420    1.5070 c3        1 ECG     -0.126700
     10 C6          2.6200   -3.1870    1.5820 c         1 ECG      0.656100
     11 O5          3.5870   -2.4660    2.2280 os        1 ECG     -0.445900
     12 C1          4.8910   -3.0470    2.2830 c3        1 ECG      0.128700
     13 O7          2.9370   -4.2880    1.1250 o         1 ECG     -0.550000
     14 C14         2.0970   -1.0050   -1.8050 c3        1 ECG      0.143100
     15 H211       -0.7650    0.3540    0.9300 hc        1 ECG      0.051700
     16 H212       -0.5180    0.4800   -0.8560 hc        1 ECG      0.051700
     17 H24         1.7360    1.0020   -0.1630 h1        1 ECG      0.069700
     18 H261        1.2090    0.8690    2.2900 hc        1 ECG      0.061700
     19 H262        2.7560   -0.0080    1.9310 hc        1 ECG      0.061700
     20 H29        -0.0530   -1.1640    2.5260 h1        1 ECG      0.070700
     21 HO1         2.4880   -1.4620    3.7060 ho        1 ECG      0.419000
     22 H181       -1.1230   -1.9770    0.6960 hc        1 ECG      0.053200
     23 H182       -0.8820   -1.8150   -1.0870 hc        1 ECG      0.053200
     24 H10         1.0960   -3.1120   -0.6090 h1        1 ECG      0.085700
     25 H8          0.5290   -3.3300    1.8370 hc        1 ECG      0.090700
     26 H11         5.4950   -2.2880    2.8380 h1        1 ECG      0.051367
     27 H12         4.8510   -4.0200    2.8300 h1        1 ECG      0.051367
     28 H13         5.2810   -3.2040    1.2490 h1        1 ECG      0.051367
     29 H141        2.8200   -0.1700   -2.0050 h1        1 ECG      0.037033
     30 H142        2.5290   -1.9600   -2.2040 h1        1 ECG      0.037033
     31 H143        1.1400   -0.7880   -2.3530 h1        1 ECG      0.037033
@<TRIPOS>BOND
     1    1    2 1   
     2    1    6 1   
     3    1   15 1   
     4    1   16 1   
     5    2    3 1   
     6    2    8 1   
     7    2   17 1   
     8    3    4 1   
     9    3   18 1   
    10    3   19 1   
    11    4    5 1   
    12    4    9 1   
    13    4   20 1   
    14    5   21 1   
    15    6    7 1   
    16    6   22 1   
    17    6   23 1   
    18    7    8 1   
    19    7    9 1   
    20    7   24 1   
    21    8   14 1   
    22    9   10 1   
    23    9   25 1   
    24   10   11 1   
    25   10   13 2   
    26   11   12 1   
    27   12   26 1   
    28   12   27 1   
    29   12   28 1   
    30   14   29 1   
    31   14   30 1   
    32   14   31 1   
@<TRIPOS>SUBSTRUCTURE
     1 ECG         1 TEMP              0 ****  ****    0 ROOT
