@<TRIPOS>MOLECULE
ECG
   31    32     1     0     0
SMALL
bcc


@<TRIPOS>ATOM
      1 C21        -0.3080   -0.1050    0.0060 c3        1 ECG     -0.112400
      2 C24         1.2250    0.1420   -0.0750 c3        1 ECG      0.153500
      3 C26         1.7880    0.3360    1.3390 c3        1 ECG     -0.066400
      4 C29         1.4830   -0.8730    2.2320 c3        1 ECG      0.168100
      5 O1          2.3780   -0.7750    3.3260 oh        1 ECG     -0.597800
      6 C18        -0.4370   -1.6270    0.1020 c3        1 ECG     -0.111400
      7 C10         1.0340   -2.1340    0.0680 c3        1 ECG      0.169500
      8 N12         1.8250   -1.0950   -0.6270 n3        1 ECG     -0.682600
      9 C8          1.5460   -2.2440    1.5220 c3        1 ECG     -0.131700
     10 C6          2.9070   -2.8780    1.5480 c         1 ECG      0.648100
     11 O5          3.3090   -3.1880    2.8270 os        1 ECG     -0.462900
     12 C1          4.6050   -3.7660    2.9710 c3        1 ECG      0.130700
     13 O7          3.6470   -3.2130    0.6260 o         1 ECG     -0.516000
     14 C14         1.7810   -1.1880   -2.0650 c3        1 ECG      0.147100
     15 H211       -0.7510    0.4070    0.8920 hc        1 ECG      0.051200
     16 H212       -0.8130    0.2840   -0.9110 hc        1 ECG      0.051200
     17 H24         1.4690    1.0300   -0.7120 h1        1 ECG      0.070700
     18 H261        2.8970    0.4920    1.2940 hc        1 ECG      0.065200
     19 H262        1.3310    1.2480    1.8000 hc        1 ECG      0.065200
     20 H29         0.4260   -0.7720    2.6230 h1        1 ECG      0.027700
     21 HO1         2.2960   -1.5850    3.8460 ho        1 ECG      0.417000
     22 H181       -1.0010   -2.0400   -0.7680 hc        1 ECG      0.050700
     23 H182       -0.9570   -1.9430    1.0360 hc        1 ECG      0.050700
     24 H10         1.1320   -3.1250   -0.4450 h1        1 ECG      0.080700
     25 H8          0.8640   -2.9480    2.0790 hc        1 ECG      0.074700
     26 H11         4.6430   -4.7480    2.4410 h1        1 ECG      0.050033
     27 H12         4.7200   -3.8910    4.0760 h1        1 ECG      0.050033
     28 H13         5.3790   -3.0770    2.5550 h1        1 ECG      0.050033
     29 H141        2.2510   -2.1600   -2.3710 h1        1 ECG      0.036700
     30 H142        2.3840   -0.3450   -2.4930 h1        1 ECG      0.036700
     31 H143        0.7420   -1.1380   -2.4920 h1        1 ECG      0.036700
@<TRIPOS>BOND
     1    1    2 1   
     2    1    6 1   
     3    1   15 1   
     4    1   16 1   
     5    2    3 1   
     6    2    8 1   
     7    2   17 1   
     8    3    4 1   
     9    3   18 1   
    10    3   19 1   
    11    4    5 1   
    12    4    9 1   
    13    4   20 1   
    14    5   21 1   
    15    6    7 1   
    16    6   22 1   
    17    6   23 1   
    18    7    8 1   
    19    7    9 1   
    20    7   24 1   
    21    8   14 1   
    22    9   10 1   
    23    9   25 1   
    24   10   11 1   
    25   10   13 2   
    26   11   12 1   
    27   12   26 1   
    28   12   27 1   
    29   12   28 1   
    30   14   29 1   
    31   14   30 1   
    32   14   31 1   
@<TRIPOS>SUBSTRUCTURE
     1 ECG         1 TEMP              0 ****  ****    0 ROOT
