@<TRIPOS>MOLECULE
ECG
   31    32     1     0     0
SMALL
bcc


@<TRIPOS>ATOM
      1 C21        -2.7050    0.9330   -0.0260 c3        1 ECG     -0.112400
      2 C24        -1.6630    0.4020   -1.0530 c3        1 ECG      0.156500
      3 C26        -0.4910    1.3910   -1.1420 c3        1 ECG     -0.099400
      4 C29         0.1140    1.6450    0.2410 c3        1 ECG      0.162100
      5 O1          1.3230    2.3700    0.1610 oh        1 ECG     -0.601800
      6 C18        -2.2550    0.3270    1.3070 c3        1 ECG     -0.108400
      7 C10        -1.0050   -0.5180    0.9360 c3        1 ECG      0.160500
      8 N12        -1.1410   -0.8720   -0.4960 n3        1 ECG     -0.695600
      9 C8          0.2620    0.3630    1.0820 c3        1 ECG     -0.126700
     10 C6          1.4600   -0.4900    0.7720 c         1 ECG      0.656100
     11 O5          2.1400   -0.1680   -0.3710 os        1 ECG     -0.445900
     12 C1          3.2640   -0.9860   -0.7020 c3        1 ECG      0.128700
     13 O7          1.8810   -1.4370    1.4400 o         1 ECG     -0.550000
     14 C14        -1.9920   -2.0100   -0.7380 c3        1 ECG      0.143100
     15 H211       -2.7110    2.0470    0.0010 hc        1 ECG      0.051700
     16 H212       -3.7300    0.5850   -0.2990 hc        1 ECG      0.051700
     17 H24        -2.1170    0.2440   -2.0640 h1        1 ECG      0.069700
     18 H261       -0.8540    2.3590   -1.5690 hc        1 ECG      0.061700
     19 H262        0.3000    0.9820   -1.8240 hc        1 ECG      0.061700
     20 H29        -0.5650    2.3430    0.8180 h1        1 ECG      0.070700
     21 HO1         1.9110    1.9160   -0.4570 ho        1 ECG      0.419000
     22 H181       -2.0090    1.1090    2.0620 hc        1 ECG      0.053200
     23 H182       -3.0470   -0.3330    1.7360 hc        1 ECG      0.053200
     24 H10        -0.9050   -1.4330    1.5760 h1        1 ECG      0.085700
     25 H8          0.3680    0.6620    2.1630 hc        1 ECG      0.090700
     26 H11         4.0290   -0.9260    0.1100 h1        1 ECG      0.051367
     27 H12         2.9350   -2.0430   -0.8410 h1        1 ECG      0.051367
     28 H13         3.6410   -0.5430   -1.6560 h1        1 ECG      0.051367
     29 H141       -3.0380   -1.8880   -0.3440 h1        1 ECG      0.037033
     30 H142       -2.0460   -2.1830   -1.8450 h1        1 ECG      0.037033
     31 H143       -1.5300   -2.9100   -0.2540 h1        1 ECG      0.037033
@<TRIPOS>BOND
     1    1    2 1   
     2    1    6 1   
     3    1   15 1   
     4    1   16 1   
     5    2    3 1   
     6    2    8 1   
     7    2   17 1   
     8    3    4 1   
     9    3   18 1   
    10    3   19 1   
    11    4    5 1   
    12    4    9 1   
    13    4   20 1   
    14    5   21 1   
    15    6    7 1   
    16    6   22 1   
    17    6   23 1   
    18    7    8 1   
    19    7    9 1   
    20    7   24 1   
    21    8   14 1   
    22    9   10 1   
    23    9   25 1   
    24   10   11 1   
    25   10   13 2   
    26   11   12 1   
    27   12   26 1   
    28   12   27 1   
    29   12   28 1   
    30   14   29 1   
    31   14   30 1   
    32   14   31 1   
@<TRIPOS>SUBSTRUCTURE
     1 ECG         1 TEMP              0 ****  ****    0 ROOT
