@<TRIPOS>MOLECULE
ECG
   31    32     1     0     0
SMALL
bcc


@<TRIPOS>ATOM
      1 C21        -1.6490    1.9190   -0.5580 c3        1 ECG     -0.112400
      2 C24        -0.0990    1.9190   -0.5580 c3        1 ECG      0.156500
      3 C26         0.3230    1.9190    0.9030 c3        1 ECG     -0.102400
      4 C29         0.2670    0.5280    1.5970 c3        1 ECG      0.161100
      5 O1          1.5450    0.2200    2.0700 oh        1 ECG     -0.604800
      6 C18        -1.9610    0.3470   -0.6840 c3        1 ECG     -0.109400
      7 C10        -0.5450   -0.2350   -0.7280 c3        1 ECG      0.162500
      8 N12         0.1190    0.8250   -1.2080 n3        1 ECG     -0.695600
      9 C8         -0.2120   -0.6370    0.6840 c3        1 ECG     -0.128700
     10 C6          0.8970   -1.7040    0.6370 c         1 ECG      0.659100
     11 O5          0.7270   -2.9380    1.3240 os        1 ECG     -0.441900
     12 C1          1.7380   -3.9000    1.0390 c3        1 ECG      0.126700
     13 O7          1.9300   -1.4820    0.0310 o         1 ECG     -0.555000
     14 C14        -0.2190    1.0170   -2.6020 c3        1 ECG      0.144100
     15 H211       -1.9990    2.2790    0.2790 hc        1 ECG      0.052200
     16 H212       -1.9990    2.4090   -1.3270 hc        1 ECG      0.052200
     17 H24         0.2540    2.6950   -1.0340 h1        1 ECG      0.070700
     18 H261       -0.2600    2.5310    1.3920 hc        1 ECG      0.062700
     19 H262        1.2380    2.2540    0.9590 hc        1 ECG      0.062700
     20 H29        -0.3390    0.5900    2.3600 h1        1 ECG      0.070700
     21 HO1         1.6180    0.4810    2.9150 ho        1 ECG      0.427000
     22 H181       -2.4460    0.1510   -1.5090 hc        1 ECG      0.052700
     23 H182       -2.4490    0.0230    0.0970 hc        1 ECG      0.052700
     24 H10        -0.4950   -0.9940   -1.3400 h1        1 ECG      0.084700
     25 H8         -1.0070   -1.0360    1.0860 hc        1 ECG      0.090700
     26 H11         1.7860   -4.0450    0.0750 h1        1 ECG      0.050700
     27 H12         2.5990   -3.5720    1.3610 h1        1 ECG      0.050700
     28 H13         1.5220   -4.7410    1.4850 h1        1 ECG      0.050700
     29 H141        0.5800    0.8950   -3.1490 h1        1 ECG      0.036367
     30 H142       -0.8960    0.3650   -2.8650 h1        1 ECG      0.036367
     31 H143       -0.5670    1.9190   -2.7310 h1        1 ECG      0.036367
@<TRIPOS>BOND
     1    1    2 1   
     2    1    6 1   
     3    1   15 1   
     4    1   16 1   
     5    2    3 1   
     6    2    8 1   
     7    2   17 1   
     8    3    4 1   
     9    3   18 1   
    10    3   19 1   
    11    4    5 1   
    12    4    9 1   
    13    4   20 1   
    14    5   21 1   
    15    6    7 1   
    16    6   22 1   
    17    6   23 1   
    18    7    8 1   
    19    7    9 1   
    20    7   24 1   
    21    8   14 1   
    22    9   10 1   
    23    9   25 1   
    24   10   11 1   
    25   10   13 2   
    26   11   12 1   
    27   12   26 1   
    28   12   27 1   
    29   12   28 1   
    30   14   29 1   
    31   14   30 1   
    32   14   31 1   
@<TRIPOS>SUBSTRUCTURE
     1 ECG         1 TEMP              0 ****  ****    0 ROOT
