@<TRIPOS>MOLECULE
ECG
   31    32     1     0     0
SMALL
bcc


@<TRIPOS>ATOM
      1 C21        -0.3040   -0.1010    0.0010 c3        1 ECG     -0.112400
      2 C24         1.2300    0.1480   -0.0670 c3        1 ECG      0.153500
      3 C26         1.7830    0.3320    1.3520 c3        1 ECG     -0.066400
      4 C29         1.4730   -0.8820    2.2340 c3        1 ECG      0.168100
      5 O1          2.3610   -0.7920    3.3350 oh        1 ECG     -0.597800
      6 C18        -0.4320   -1.6240    0.0860 c3        1 ECG     -0.111400
      7 C10         1.0400   -2.1290    0.0590 c3        1 ECG      0.169500
      8 N12         1.8350   -1.0850   -0.6240 n3        1 ECG     -0.682600
      9 C8          1.5420   -2.2480    1.5160 c3        1 ECG     -0.131700
     10 C6          2.9030   -2.8820    1.5470 c         1 ECG      0.648100
     11 O5          3.2960   -3.2000    2.8260 os        1 ECG     -0.462900
     12 C1          4.5930   -3.7780    2.9750 c3        1 ECG      0.130700
     13 O7          3.6500   -3.2110    0.6270 o         1 ECG     -0.516000
     14 C14         1.8000   -1.1690   -2.0620 c3        1 ECG      0.147100
     15 H211       -0.8020    0.2940   -0.9160 hc        1 ECG      0.051200
     16 H212       -0.7530    0.4050    0.8880 hc        1 ECG      0.051200
     17 H24         1.4780    1.0400   -0.6960 h1        1 ECG      0.070700
     18 H261        2.8920    0.4900    1.3160 hc        1 ECG      0.065200
     19 H262        1.3220    1.2410    1.8150 hc        1 ECG      0.065200
     20 H29         0.4130   -0.7850    2.6190 h1        1 ECG      0.027700
     21 HO1         2.2760   -1.6050    3.8500 ho        1 ECG      0.417000
     22 H181       -0.9900   -2.0310   -0.7900 hc        1 ECG      0.050700
     23 H182       -0.9580   -1.9460    1.0140 hc        1 ECG      0.050700
     24 H10         1.1420   -3.1170   -0.4590 h1        1 ECG      0.080700
     25 H8          0.8560   -2.9580    2.0640 hc        1 ECG      0.074700
     26 H11         4.7000   -3.9100    4.0800 h1        1 ECG      0.050033
     27 H12         4.6340   -4.7570    2.4400 h1        1 ECG      0.050033
     28 H13         5.3680   -3.0860    2.5680 h1        1 ECG      0.050033
     29 H141        2.2730   -2.1380   -2.3710 h1        1 ECG      0.036700
     30 H142        0.7640   -1.1170   -2.4960 h1        1 ECG      0.036700
     31 H143        2.4060   -0.3220   -2.4800 h1        1 ECG      0.036700
@<TRIPOS>BOND
     1    1    2 1   
     2    1    6 1   
     3    1   15 1   
     4    1   16 1   
     5    2    3 1   
     6    2    8 1   
     7    2   17 1   
     8    3    4 1   
     9    3   18 1   
    10    3   19 1   
    11    4    5 1   
    12    4    9 1   
    13    4   20 1   
    14    5   21 1   
    15    6    7 1   
    16    6   22 1   
    17    6   23 1   
    18    7    8 1   
    19    7    9 1   
    20    7   24 1   
    21    8   14 1   
    22    9   10 1   
    23    9   25 1   
    24   10   11 1   
    25   10   13 2   
    26   11   12 1   
    27   12   26 1   
    28   12   27 1   
    29   12   28 1   
    30   14   29 1   
    31   14   30 1   
    32   14   31 1   
@<TRIPOS>SUBSTRUCTURE
     1 ECG         1 TEMP              0 ****  ****    0 ROOT
