@<TRIPOS>MOLECULE
ECH
   95    86     1     0     0
SMALL
bcc


@<TRIPOS>ATOM
      1 C1          3.0150  -10.0640    0.5620 c3        1 ECH     -0.011000
      2 C2          4.6150   -9.8520    0.6870 c3        1 ECH     -0.148000
      3 C3          5.0320   -9.5260    1.8100 c3        1 ECH     -0.155000
      4 C4          4.3910   -8.1560    2.4390 c3        1 ECH     -0.126000
      5 C5          2.9540   -8.1580    2.4020 c2        1 ECH     -0.084000
      6 C6          2.2630   -8.9360    1.0910 c2        1 ECH     -0.087000
      7 C7          0.7160   -8.8500    0.8600 c2        1 ECH     -0.101000
      8 C8          0.1470   -7.7250    0.1360 c1        1 ECH     -0.142000
      9 C9          1.0690   -6.6010   -0.4110 c1        1 ECH     -0.056000
     10 C10         0.7030   -5.2600   -0.2570 c1        1 ECH     -0.145000
     11 C11        -0.6080   -4.9020    0.4540 c1        1 ECH     -0.124750
     12 C12        -1.3380   -3.7890    0.0530 c1        1 ECH     -0.124750
     13 C13        -0.8400   -2.9250   -1.0880 c1        1 ECH     -0.056000
     14 C14        -0.6170   -1.6090   -0.8880 c1        1 ECH     -0.145000
     15 C15        -0.8660   -0.9960    0.4850 c1        1 ECH     -0.124750
     16 C16        -1.0640    0.3600    0.6100 c1        1 ECH     -0.124750
     17 C17        -1.0330    1.2670   -0.6440 c1        1 ECH     -0.133500
     18 C18        -0.3630    2.4680   -0.6080 c1        1 ECH     -0.069000
     19 C19        -0.3310    3.3840   -1.8730 c2        1 ECH     -0.115000
     20 C20        -0.8790    4.6850   -1.8180 c1        1 ECH     -0.130500
     21 C21        -1.5050    5.1980   -0.5230 c1        1 ECH     -0.133500
     22 C22        -1.2180    6.4790   -0.0700 c1        1 ECH     -0.069000
     23 C23        -1.8580    6.9970    1.2460 c2        1 ECH     -0.115000
     24 C24        -2.3920    8.2920    1.3050 c1        1 ECH     -0.130500
     25 C25        -2.3450    9.2090    0.0560 c1        1 ECH     -0.001000
     26 C26        -1.1050   10.1690   -0.1740 c1        1 ECH     -0.173000
     27 C27        -1.2770   11.3530   -1.1830 c2        1 ECH      0.264000
     28 O27        -0.4520   12.2510   -1.2170 o         1 ECH     -0.298000
     29 C28        -2.6120   11.5230   -1.8700 c3        1 ECH     -0.209000
     30 C29        -3.3780   10.2660   -1.9610 c3        1 ECH     -0.146000
     31 C30        -3.6230    9.5130   -0.7080 c3        1 ECH     -0.024000
     32 C31         2.5800  -11.3700    1.2660 c3        1 ECH     -0.202500
     33 C32         2.6320  -10.3720   -0.8690 c3        1 ECH     -0.202500
     34 C33         2.1620   -7.0950    3.1750 c3        1 ECH     -0.189000
     35 C34         2.3540   -6.9540   -1.1080 c3        1 ECH     -0.184000
     36 C35        -0.5920   -3.5400   -2.4560 c3        1 ECH     -0.184000
     37 C36         0.3380    2.8960    0.6440 c2        1 ECH     -0.183000
     38 C37        -0.2760    7.3780   -0.8660 c2        1 ECH     -0.183000
     39 C38         0.0260   10.1960    0.8370 c2        1 ECH     -0.183000
     40 C39        -4.4380    8.2320   -0.9710 c3        1 ECH     -0.204500
     41 C40        -4.5940   10.2910    0.1850 c3        1 ECH     -0.204500
     42 H2          4.8830   -9.1570    0.0480 hc        1 ECH      0.081500
     43 H2A         5.0550  -10.6920    0.4310 hc        1 ECH      0.081500
     44 H3          6.0030   -9.4100    1.7520 hc        1 ECH      0.081000
     45 H3A         4.8460  -10.2640    2.4310 hc        1 ECH      0.081000
     46 H4          4.7050   -7.3280    2.0250 hc        1 ECH      0.087500
     47 H4A         4.7360   -8.0450    3.3550 hc        1 ECH      0.087500
     48 H7          0.1370   -9.5480    1.2000 ha        1 ECH      0.123000
     49 H8         -0.8180   -7.6740   -0.0060 ha        1 ECH      0.125000
     50 H10         1.2870   -4.5460   -0.6040 ha        1 ECH      0.127500
     51 H11        -0.9300   -5.4550    1.1860 ha        1 ECH      0.124250
     52 H12        -2.1720   -3.5630    0.5070 ha        1 ECH      0.124250
     53 H14        -0.2980   -1.0530   -1.6180 ha        1 ECH      0.127500
     54 H15        -0.8860   -1.5680    1.2800 ha        1 ECH      0.124250
     55 H16        -1.2230    0.7510    1.4900 ha        1 ECH      0.124250
     56 H17        -1.4990    0.9930   -1.4560 ha        1 ECH      0.127000
     57 H19         0.0690    3.0560   -2.7020 ha        1 ECH      0.125500
     58 H20        -0.8570    5.2610   -2.6150 ha        1 ECH      0.128500
     59 H21        -2.1550    4.6470   -0.0440 ha        1 ECH      0.127000
     60 H23        -1.8880    6.4180    2.0370 ha        1 ECH      0.125500
     61 H24        -2.7960    8.6160    2.1350 ha        1 ECH      0.128500
     62 H28        -3.1930   12.1890   -1.4440 hc        1 ECH      0.112000
     63 H28A       -2.4650   11.9390   -2.7510 hc        1 ECH      0.112000
     64 H29        -4.2470   10.4760   -2.3570 hc        1 ECH      0.089500
     65 H29A       -2.8990    9.6680   -2.5800 hc        1 ECH      0.089500
     66 H31         2.5060  -11.2130    2.2280 hc        1 ECH      0.075167
     67 H31A        1.7110  -11.6580    0.9140 hc        1 ECH      0.075167
     68 H31B        3.2570  -12.0790    1.0960 hc        1 ECH      0.075167
     69 H32         3.0720   -9.7350   -1.4680 hc        1 ECH      0.075167
     70 H32A        1.6650  -10.2970   -0.9700 hc        1 ECH      0.075167
     71 H32B        2.9170  -11.2890   -1.0970 hc        1 ECH      0.075167
     72 H33         1.2260   -7.3560    3.2190 hc        1 ECH      0.085000
     73 H33A        2.5280   -7.0140    4.0960 hc        1 ECH      0.085000
     74 H33B        2.2400   -6.2320    2.7170 hc        1 ECH      0.085000
     75 H34         3.0540   -7.0960   -0.4460 hc        1 ECH      0.085833
     76 H34A        2.2290   -7.7750   -1.6320 hc        1 ECH      0.085833
     77 H34B        2.6130   -6.2210   -1.7060 hc        1 ECH      0.085833
     78 H35         0.3680   -3.5670   -2.6300 hc        1 ECH      0.085833
     79 H35A       -1.0370   -2.9930   -3.1480 hc        1 ECH      0.085833
     80 H35B       -0.9540   -4.4500   -2.4750 hc        1 ECH      0.085833
     81 H36         0.9440    2.1810    0.9420 ha        1 ECH      0.087778
     82 H36A        0.8510    3.7050    0.4680 ha        1 ECH      0.087778
     83 H36B       -0.3220    3.0750    1.3420 ha        1 ECH      0.087778
     84 H37        -0.7930    7.8910   -1.5250 ha        1 ECH      0.087778
     85 H37A        0.1810    7.9970   -0.2520 ha        1 ECH      0.087778
     86 H37B        0.3880    6.8270   -1.3290 ha        1 ECH      0.087778
     87 H38         0.0310   11.0660    1.3020 ha        1 ECH      0.087778
     88 H38A        0.8800   10.0670    0.3760 ha        1 ECH      0.087778
     89 H38B       -0.1020    9.4800    1.4880 ha        1 ECH      0.087778
     90 H39        -3.9630    7.6700   -1.6220 hc        1 ECH      0.080167
     91 H39A       -5.3230    8.4720   -1.3290 hc        1 ECH      0.080167
     92 H39B       -4.5500    7.7360   -0.1290 hc        1 ECH      0.080167
     93 H40        -4.9140    9.7060    0.9100 hc        1 ECH      0.080167
     94 H40A       -4.1330   11.0670    0.5700 hc        1 ECH      0.080167
     95 H40B       -5.3570   10.5970   -0.3500 hc        1 ECH      0.080167
@<TRIPOS>BOND
     1    1    2 1   
     2    1    6 1   
     3    1   32 1   
     4    1   33 1   
     5    2    3 1   
     6    2   42 1   
     7    2   43 1   
     8    3    4 1   
     9    3   44 1   
    10    3   45 1   
    11    4    5 1   
    12    4   46 1   
    13    4   47 1   
    14    5    6 1   
    15    5   34 1   
    16    6    7 1   
    17    7    8 1   
    18    7   48 1   
    19    8   49 1   
    20    9   10 1   
    21    9   35 1   
    22   10   50 1   
    23   11   12 1   
    24   11   51 1   
    25   12   52 1   
    26   13   14 1   
    27   13   36 1   
    28   14   53 1   
    29   15   16 1   
    30   15   54 1   
    31   16   55 1   
    32   17   18 1   
    33   17   56 1   
    34   18   19 1   
    35   19   20 1   
    36   19   57 1   
    37   20   58 1   
    38   21   22 1   
    39   21   59 1   
    40   22   23 1   
    41   23   24 1   
    42   23   60 1   
    43   24   61 1   
    44   25   26 1   
    45   25   31 1   
    46   26   27 1   
    47   27   28 1   
    48   27   29 1   
    49   29   30 1   
    50   29   62 1   
    51   29   63 1   
    52   30   31 1   
    53   30   64 1   
    54   30   65 1   
    55   31   40 1   
    56   31   41 1   
    57   32   66 1   
    58   32   67 1   
    59   32   68 1   
    60   33   69 1   
    61   33   70 1   
    62   33   71 1   
    63   34   72 1   
    64   34   73 1   
    65   34   74 1   
    66   35   75 1   
    67   35   76 1   
    68   35   77 1   
    69   36   78 1   
    70   36   79 1   
    71   36   80 1   
    72   37   81 1   
    73   37   82 1   
    74   37   83 1   
    75   38   84 1   
    76   38   85 1   
    77   38   86 1   
    78   39   87 1   
    79   39   88 1   
    80   39   89 1   
    81   40   90 1   
    82   40   91 1   
    83   40   92 1   
    84   41   93 1   
    85   41   94 1   
    86   41   95 1   
@<TRIPOS>SUBSTRUCTURE
     1 ECH         1 TEMP              0 ****  ****    0 ROOT
