@<TRIPOS>MOLECULE
ECL
   39    33     1     0     0
SMALL
bcc


@<TRIPOS>ATOM
      1 C1          0.6770   -0.5370    2.7980 c1        1 ECL     -0.083000
      2 N1          1.0300    2.0200   -2.1580 n2        1 ECL     -0.157500
      3 C2          1.4020    0.1580    3.7700 c1        1 ECL     -0.114000
      4 CL2         2.2990   -2.6920    6.4620 cl        1 ECL     -0.013000
      5 C3          2.3290    2.4140   -2.2870 c1        1 ECL     -0.085000
      6 CL4        -4.3520   -2.7310   -3.6590 cl        1 ECL      0.003000
      7 C5         -2.0200   -2.5420   -2.1880 c1        1 ECL     -0.124000
      8 C6          1.0670    4.0280   -3.0630 c1        1 ECL     -0.173000
      9 C7          0.2500    3.0050   -2.6320 c1        1 ECL     -0.173000
     10 C8         -0.0560    0.2070    1.6630 c2        1 ECL      0.013000
     11 CL8        -2.6310    1.8210   -1.2300 cl        1 ECL     -0.004000
     12 C9          0.9920   -2.5640    4.0230 c1        1 ECL     -0.125000
     13 C10         0.4750   -1.8890    2.9260 c2        1 ECL     -0.101000
     14 C11         1.7220   -1.8590    4.9980 c1        1 ECL     -0.058000
     15 C13         1.9180   -0.5090    4.8610 c1        1 ECL     -0.122000
     16 C14        -3.1790   -1.8870   -2.6050 c2        1 ECL     -0.049000
     17 C15        -3.3600   -0.5460   -2.3110 c2        1 ECL     -0.123000
     18 C16        -2.3870    0.1540   -1.5990 c2        1 ECL     -0.049000
     19 C17        -1.2270   -0.4940   -1.1800 c2        1 ECL     -0.115000
     20 C19         0.8590    0.6030   -1.8750 c2        1 ECL     -0.010000
     21 N19         2.3380    3.6590   -2.8490 n2        1 ECL     -0.157500
     22 C20        -0.1380    0.4240   -0.7420 c3        1 ECL      0.048000
     23 O20         0.5380   -0.1400    0.4060 os        1 ECL     -0.279000
     24 C21        -1.0400   -1.8410   -1.4720 c1        1 ECL     -0.095000
     25 H2          1.5360    1.0750    3.6820 ha        1 ECL      0.139000
     26 H3          3.1420    1.8800   -2.0150 DU        1 ECL      0.187333
     27 H5         -1.8920   -3.4880   -2.3950 ha        1 ECL      0.156000
     28 H6          0.7890    4.8250   -3.4330 DU        1 ECL      0.187333
     29 H7         -0.6920    2.9990   -2.6650 DU        1 ECL      0.187333
     30 H8         -0.9980   -0.0510    1.6630 h4        1 ECL      0.087500
     31 H8A         0.0170    1.1510    1.7980 h4        1 ECL      0.087500
     32 H9          0.8550   -3.4920    4.1140 ha        1 ECL      0.149000
     33 H10        -0.0590   -2.3980    2.2090 ha        1 ECL      0.146000
     34 H13         2.4350   -0.0080    5.5500 ha        1 ECL      0.150000
     35 H15        -4.1710   -0.0930   -2.5920 ha        1 ECL      0.165000
     36 H19         1.7550    0.2010   -1.6060 ha        1 ECL      0.115000
     37 H19A        0.5210    0.1440   -2.6850 ha        1 ECL      0.115000
     38 H20        -0.5220    1.2920   -0.5020 h1        1 ECL      0.116000
     39 H21        -0.2260   -2.2990   -1.1790 ha        1 ECL      0.158000
@<TRIPOS>BOND
     1    1    3 1   
     2    1   13 1   
     3    2    5 1   
     4    2    9 1   
     5    3   25 1   
     6    4   14 1   
     7    5   21 1   
     8    6   16 1   
     9    7   16 1   
    10    7   27 1   
    11    8    9 1   
    12    8   21 1   
    13   10   23 1   
    14   10   30 1   
    15   10   31 1   
    16   11   18 1   
    17   12   13 1   
    18   12   32 1   
    19   13   33 1   
    20   14   15 1   
    21   15   34 1   
    22   16   17 1   
    23   17   18 1   
    24   17   35 1   
    25   18   19 1   
    26   19   22 1   
    27   19   24 1   
    28   20   22 1   
    29   20   36 1   
    30   20   37 1   
    31   22   23 1   
    32   22   38 1   
    33   24   39 1   
@<TRIPOS>SUBSTRUCTURE
     1 ECL         1 TEMP              0 ****  ****    0 ROOT
