@<TRIPOS>MOLECULE
ECL
   39    40     1     0     0
SMALL
bcc


@<TRIPOS>ATOM
      1 C1         -0.3820   -0.0310   -0.1630 ca        1 ECL     -0.118000
      2 N1          0.5070    0.1700   -4.5920 na        1 ECL     -0.147000
      3 C2          0.8590    0.5010   -0.5270 ca        1 ECL     -0.101500
      4 Cl2         3.1070   -0.3470    2.6410 cl        1 ECL     -0.012000
      5 C3          1.9070    0.2030   -4.5400 c2        1 ECL     -0.106000
      6 C5         -3.6360   -5.1060   -1.2570 ca        1 ECL     -0.143000
      7 C6          1.2210    2.1620   -3.8460 c2        1 ECL     -0.189000
      8 C7          0.0630    1.4180   -4.1490 c2        1 ECL     -0.182000
      9 C8         -1.5440    0.1150   -1.0840 c3        1 ECL      0.027000
     10 C9          0.5500   -0.7680    1.9480 ca        1 ECL     -0.127000
     11 C10        -0.5310   -0.6650    1.0750 ca        1 ECL     -0.101500
     12 C11         1.7860   -0.2280    1.5780 ca        1 ECL     -0.053000
     13 C13         1.9450    0.4070    0.3420 ca        1 ECL     -0.127000
     14 C14        -4.3020   -5.4960   -2.4240 ca        1 ECL     -0.027000
     15 C15        -4.3710   -4.6400   -3.5270 ca        1 ECL     -0.146000
     16 C16        -3.7550   -3.3860   -3.4620 ca        1 ECL      0.010000
     17 C17        -3.0780   -2.9790   -2.2990 ca        1 ECL     -0.170000
     18 C19        -0.3180   -0.9260   -4.9810 c3        1 ECL     -0.103000
     19 N19         2.3570    1.3970   -4.0930 n2        1 ECL     -0.148000
     20 C20        -2.3460   -1.7050   -2.3110 c1        1 ECL      0.024000
     21 O20        -2.2880   -1.1360   -1.1190 os        1 ECL     -0.187000
     22 C21        -3.0380   -3.8510   -1.2010 ca        1 ECL     -0.074000
     23 H2          0.9860    0.9960   -1.5060 ha        1 ECL      0.150000
     24 H3          2.5300   -0.6490   -4.8320 h5        1 ECL      0.198000
     25 H5         -3.5890   -5.7820   -0.3900 ha        1 ECL      0.155000
     26 H6          1.2900    3.1860   -3.4820 h4        1 ECL      0.177000
     27 H7         -0.9930    1.6770   -4.1020 h4        1 ECL      0.176000
     28 H8         -2.2830    0.8590   -0.6800 h1        1 ECL      0.117500
     29 H8A        -1.2230    0.3990   -2.1230 h1        1 ECL      0.117500
     30 H9          0.4290   -1.2690    2.9200 ha        1 ECL      0.152500
     31 H10        -1.5080   -1.0890    1.3540 ha        1 ECL      0.150000
     32 H13         2.9190    0.8280    0.0510 ha        1 ECL      0.152500
     33 H15        -4.9030   -4.9510   -4.4400 ha        1 ECL      0.165000
     34 H19         0.3150   -1.8410   -5.1210 h1        1 ECL      0.107000
     35 H19A       -0.8390   -0.6900   -5.9480 h1        1 ECL      0.107000
     36 H20        -1.0940   -1.1290   -4.1840 h1        1 ECL      0.107000
     37 H21        -2.5180   -3.5290   -0.2840 ha        1 ECL      0.152000
     38 Cl4        -5.0370   -7.0230   -2.5050 cl        1 ECL      0.003000
     39 Cl8        -3.8660   -2.3610   -4.8110 cl        1 ECL      0.011000
@<TRIPOS>BOND
     1    1    3 1   
     2    1    9 1   
     3    1   11 1   
     4    2    5 1   
     5    2    8 1   
     6    2   18 1   
     7    3   13 1   
     8    3   23 1   
     9    4   12 1   
    10    5   19 1   
    11    5   24 1   
    12    6   14 1   
    13    6   22 1   
    14    6   25 1   
    15    7    8 1   
    16    7   19 1   
    17    7   26 1   
    18    8   27 1   
    19    9   21 1   
    20    9   28 1   
    21    9   29 1   
    22   10   11 1   
    23   10   12 1   
    24   10   30 1   
    25   11   31 1   
    26   12   13 1   
    27   13   32 1   
    28   14   15 1   
    29   14   38 1   
    30   15   16 1   
    31   15   33 1   
    32   16   17 1   
    33   16   39 1   
    34   17   20 1   
    35   17   22 1   
    36   18   34 1   
    37   18   35 1   
    38   18   36 1   
    39   20   21 1   
    40   22   37 1   
@<TRIPOS>SUBSTRUCTURE
     1 ECL         1 TEMP              0 ****  ****    0 ROOT
