@<TRIPOS>MOLECULE
ECL
   39    40     1     0     0
SMALL
bcc


@<TRIPOS>ATOM
      1 C1         -0.3760   -0.0430   -0.1710 ca        1 ECL     -0.118000
      2 N1          0.4670    0.2010   -4.6080 na        1 ECL     -0.147000
      3 C2          0.8630    0.4890   -0.5430 ca        1 ECL     -0.101500
      4 CL2         3.1420   -0.3940    2.5930 cl        1 ECL     -0.012000
      5 C3          1.8680    0.2280   -4.5710 c2        1 ECL     -0.106000
      6 C5         -3.6490   -5.1010   -1.2830 ca        1 ECL     -0.142000
      7 C6          1.1950    2.1820   -3.8480 c2        1 ECL     -0.189000
      8 C7          0.0320    1.4450   -4.1460 c2        1 ECL     -0.182000
      9 C8         -1.5470    0.1140   -1.0790 c3        1 ECL      0.027000
     10 C9          0.5760   -0.8020    1.9230 ca        1 ECL     -0.127000
     11 C10        -0.5130   -0.6880    1.0620 ca        1 ECL     -0.101500
     12 C11         1.8100   -0.2620    1.5460 ca        1 ECL     -0.053000
     13 C13         1.9570    0.3850    0.3140 ca        1 ECL     -0.127000
     14 C14        -4.3280   -5.4780   -2.4470 ca        1 ECL     -0.027000
     15 C15        -4.4090   -4.6110   -3.5400 ca        1 ECL     -0.146000
     16 C16        -3.7900   -3.3580   -3.4690 ca        1 ECL      0.010000
     17 C17        -3.0990   -2.9650   -2.3090 ca        1 ECL     -0.170000
     18 C19        -0.3650   -0.8880   -4.9990 c3        1 ECL     -0.103000
     19 N19         2.3270    1.4160   -4.1160 n2        1 ECL     -0.148000
     20 C20        -2.3660   -1.6920   -2.3160 c1        1 ECL      0.024000
     21 O20        -2.2940   -1.1350   -1.1180 os        1 ECL     -0.187000
     22 C21        -3.0490   -3.8480   -1.2210 ca        1 ECL     -0.074000
     23 H2          0.9810    0.9930   -1.5190 ha        1 ECL      0.150000
     24 H3          2.4840   -0.6220   -4.8780 h5        1 ECL      0.198000
     25 H5         -3.5930   -5.7870   -0.4240 ha        1 ECL      0.155000
     26 H6          1.2720    3.2010   -3.4730 h4        1 ECL      0.177000
     27 H7         -1.0220    1.7060   -4.0860 h4        1 ECL      0.176000
     28 H8         -1.2360    0.4080   -2.1180 h1        1 ECL      0.117500
     29 H8A        -2.2810    0.8550   -0.6600 h1        1 ECL      0.117500
     30 H9          0.4640   -1.3120    2.8920 ha        1 ECL      0.152500
     31 H10        -1.4880   -1.1120    1.3470 ha        1 ECL      0.150000
     32 H13         2.9300    0.8070    0.0170 ha        1 ECL      0.152500
     33 H15        -4.9520   -4.9110   -4.4500 ha        1 ECL      0.165000
     34 H19         0.2630   -1.8040   -5.1570 h1        1 ECL      0.107000
     35 H19A       -0.8960   -0.6400   -5.9580 h1        1 ECL      0.107000
     36 H20        -1.1330   -1.0980   -4.1970 h1        1 ECL      0.107000
     37 H21        -2.5180   -3.5370   -0.3060 ha        1 ECL      0.152000
     38 CL4        -5.0680   -7.0030   -2.5350 cl        1 ECL      0.003000
     39 CL8        -3.9140   -2.3180   -4.8050 cl        1 ECL      0.011000
@<TRIPOS>BOND
     1    1    3 1   
     2    1    9 1   
     3    1   11 1   
     4    2    5 1   
     5    2    8 1   
     6    2   18 1   
     7    3   13 1   
     8    3   23 1   
     9    4   12 1   
    10    5   19 1   
    11    5   24 1   
    12    6   14 1   
    13    6   22 1   
    14    6   25 1   
    15    7    8 1   
    16    7   19 1   
    17    7   26 1   
    18    8   27 1   
    19    9   21 1   
    20    9   28 1   
    21    9   29 1   
    22   10   11 1   
    23   10   12 1   
    24   10   30 1   
    25   11   31 1   
    26   12   13 1   
    27   13   32 1   
    28   14   15 1   
    29   14   38 1   
    30   15   16 1   
    31   15   33 1   
    32   16   17 1   
    33   16   39 1   
    34   17   20 1   
    35   17   22 1   
    36   18   34 1   
    37   18   35 1   
    38   18   36 1   
    39   20   21 1   
    40   22   37 1   
@<TRIPOS>SUBSTRUCTURE
     1 ECL         1 TEMP              0 ****  ****    0 ROOT
