@<TRIPOS>MOLECULE
ECL
   39    41     1     0     0
SMALL
bcc


@<TRIPOS>ATOM
      1 C1         -2.3880   -0.7130   -0.7040 ca        1 ECL     -0.093300
      2 N1          0.1430    3.2210    1.0680 na        1 ECL     -0.209900
      3 C2         -3.3110    0.0520    0.0160 ca        1 ECL     -0.104500
      4 CL2        -6.4810   -2.3410    0.1580 cl        1 ECL     -0.091400
      5 C3         -1.2280    3.2950    1.3690 cc        1 ECL      0.400400
      6 C5          2.6540   -2.1320    0.6700 ca        1 ECL     -0.125000
      7 C6         -0.6140    5.3090    0.7660 cd        1 ECL      0.292200
      8 C7          0.5350    4.5050    0.6720 cc        1 ECL     -0.259600
      9 C8         -1.0380   -0.1680   -1.0320 c3        1 ECL      0.171700
     10 C9         -4.0160   -2.4970   -0.8880 ca        1 ECL     -0.126000
     11 C10        -2.7450   -1.9900   -1.1510 ca        1 ECL     -0.104500
     12 C11        -4.9310   -1.7240   -0.1670 ca        1 ECL      0.021400
     13 C13        -4.5820   -0.4490    0.2880 ca        1 ECL     -0.126000
     14 C14         3.8690   -1.8990    0.0180 ca        1 ECL      0.029400
     15 C15         4.0870   -0.7030   -0.6700 ca        1 ECL     -0.123000
     16 C16         3.0760    0.2640   -0.7020 ca        1 ECL      0.029400
     17 C17         1.8500    0.0450   -0.0560 ca        1 ECL     -0.123300
     18 C19         0.9630    2.0520    1.1110 c3        1 ECL      0.048300
     19 N19        -1.7000    4.5460    1.1990 nd        1 ECL     -0.672000
     20 C20         0.7550    1.0740   -0.0750 c3        1 ECL      0.165400
     21 O20        -0.5290    0.4860    0.1360 os        1 ECL     -0.419600
     22 C21         1.6580   -1.1610    0.6290 ca        1 ECL     -0.096000
     23 H2         -3.0230    1.0550    0.3700 ha        1 ECL      0.143500
     24 H3         -1.7980    2.4160    1.6910 h5        1 ECL      0.066100
     25 H5          2.4840   -3.0740    1.2140 ha        1 ECL      0.156000
     26 H6         -0.7150    6.3720    0.5530 h4        1 ECL      0.042100
     27 H7          1.5560    4.7400    0.3800 h4        1 ECL      0.176000
     28 H8         -0.3280   -0.9850   -1.3320 h1        1 ECL      0.046200
     29 H8A        -1.1190    0.5800   -1.8700 h1        1 ECL      0.046200
     30 H9         -4.2940   -3.5010   -1.2450 ha        1 ECL      0.150000
     31 H10        -2.0230   -2.6000   -1.7150 ha        1 ECL      0.143500
     32 H13        -5.3040    0.1580    0.8560 ha        1 ECL      0.150000
     33 H15         5.0450   -0.5210   -1.1830 ha        1 ECL      0.165000
     34 H19         2.0450    2.3660    1.1080 h1        1 ECL      0.077200
     35 H19A        0.7400    1.4900    2.0630 h1        1 ECL      0.077200
     36 H20         0.7600    1.6270   -1.0580 h1        1 ECL      0.074700
     37 H21         0.6940   -1.3350    1.1370 ha        1 ECL      0.163000
     38 CL4         5.0910   -3.0750    0.0600 cl        1 ECL     -0.076400
     39 CL8         3.3840    1.7110   -1.5450 cl        1 ECL     -0.083400
@<TRIPOS>BOND
     1    1    3 ar  
     2    1    9 1   
     3    1   11 ar  
     4    2    5 1   
     5    2    8 1   
     6    2   18 1   
     7    3   13 ar  
     8    3   23 1   
     9    4   12 1   
    10    5   19 2   
    11    5   24 1   
    12    6   14 ar  
    13    6   22 ar  
    14    6   25 1   
    15    7    8 2   
    16    7   19 1   
    17    7   26 1   
    18    8   27 1   
    19    9   21 1   
    20    9   28 1   
    21    9   29 1   
    22   10   11 ar  
    23   10   12 ar  
    24   10   30 1   
    25   11   31 1   
    26   12   13 ar  
    27   13   32 1   
    28   14   15 ar  
    29   14   38 1   
    30   15   16 ar  
    31   15   33 1   
    32   16   17 ar  
    33   16   39 1   
    34   17   20 1   
    35   17   22 ar  
    36   18   20 1   
    37   18   34 1   
    38   18   35 1   
    39   20   21 1   
    40   20   36 1   
    41   22   37 1   
@<TRIPOS>SUBSTRUCTURE
     1 ECL         1 TEMP              0 ****  ****    0 ROOT
