@<TRIPOS>MOLECULE
ECN
   39    39     1     0     0
SMALL
bcc


@<TRIPOS>ATOM
      1 C1          0.6860    0.1140   -1.2300 c2        1 ECN     -0.214000
      2 C2          2.4890    1.0700    2.7660 c2        1 ECN     -0.164000
      3 C6         -5.7060    0.3310   -1.1800 c3        1 ECN     -0.226000
      4 C7         -5.2630   -1.1350   -1.3760 c1        1 ECN     -0.062000
      5 C9         -0.5220    0.5140    0.8540 c1        1 ECN     -0.048000
      6 C10        -0.0310    0.8950   -0.3970 c2        1 ECN     -0.138000
      7 C11         0.1080    0.2320    2.0710 c2        1 ECN     -0.060000
      8 CL2        -0.8320   -0.6210    3.2260 cl        1 ECN      0.003000
      9 C14         0.1310   -3.0960   -5.4990 c2        1 ECN      0.055000
     10 C15        -0.6380   -4.1210   -6.1580 c2        1 ECN     -0.182000
     11 C16        -1.7710   -4.5930   -5.5780 c2        1 ECN     -0.049000
     12 C17        -2.2380   -4.0900   -4.2620 c3        1 ECN     -0.201000
     13 CL8        -2.7080   -5.7830   -6.3360 cl        1 ECN      0.006000
     14 N19        -4.6010    1.0070   -0.4680 n2        1 ECN     -0.187000
     15 C19        -3.1750   -2.3300   -0.7500 c3        1 ECN     -0.096000
     16 C20         0.5890   -1.6920   -3.4790 c1        1 ECN      0.075000
     17 O20         0.2020   -0.4330   -3.5260 os        1 ECN     -0.170000
     18 C5         -0.2510   -2.5990   -4.2750 c2        1 ECN     -0.236000
     19 N1         -4.0460   -1.1980   -0.8140 n3        1 ECN     -0.201000
     20 C3         -3.6750    0.1080   -0.2760 c2        1 ECN     -0.071000
     21 C8          0.9380    0.4650   -2.6470 c3        1 ECN      0.027000
     22 C13         1.3250    0.6260    2.4200 c1        1 ECN     -0.041000
     23 C21        -1.4160   -3.0800   -3.6170 c1        1 ECN     -0.071000
     24 H2          3.4010    0.4590    2.6670 ha        1 ECN      0.166000
     25 H10         1.0490   -0.8840   -0.9330 ha        1 ECN      0.153000
     26 H8C1        0.5360    1.4720   -2.9370 h1        1 ECN      0.109500
     27 H8C2        2.0300    0.3870   -2.8870 h1        1 ECN      0.109500
     28 H13         2.6400    2.0820    3.1770 ha        1 ECN      0.166000
     29 H6         -5.8870    0.8220   -2.1700 h1        1 ECN      0.140500
     30 H7         -6.6440    0.3790   -0.5700 h1        1 ECN      0.140500
     31 H9         -0.4340    1.8710   -0.7440 ha        1 ECN      0.170000
     32 H15        -0.2840   -4.4940   -7.1330 ha        1 ECN      0.166000
     33 H17        -3.2810   -3.6530   -4.3580 hc        1 ECN      0.184000
     34 H21        -2.3390   -4.9500   -3.5310 hc        1 ECN      0.184000
     35 H3         -2.7000    0.2540    0.2300 h5        1 ECN      0.234000
     36 H191       -2.5200   -2.3770   -1.6690 h1        1 ECN      0.104000
     37 H192       -2.5280   -2.2580    0.1630 h1        1 ECN      0.104000
     38 H20        -3.7890   -3.2670   -0.6960 h1        1 ECN      0.104000
     39 CL4         1.5100   -2.5350   -6.3050 cl        1 ECN      0.019000
@<TRIPOS>BOND
     1    1    6 1   
     2    1   21 1   
     3    1   25 1   
     4    2   22 1   
     5    2   24 1   
     6    2   28 1   
     7    3    4 1   
     8    3   14 1   
     9    3   29 1   
    10    3   30 1   
    11    4   19 1   
    12    5    6 1   
    13    5    7 1   
    14    6   31 1   
    15    7    8 1   
    16    7   22 1   
    17    9   10 1   
    18    9   18 1   
    19    9   39 1   
    20   10   11 1   
    21   10   32 1   
    22   11   12 1   
    23   11   13 1   
    24   12   23 1   
    25   12   33 1   
    26   12   34 1   
    27   14   20 1   
    28   15   19 1   
    29   15   36 1   
    30   15   37 1   
    31   15   38 1   
    32   16   17 1   
    33   16   18 1   
    34   17   21 1   
    35   18   23 1   
    36   19   20 1   
    37   20   35 1   
    38   21   26 1   
    39   21   27 1   
@<TRIPOS>SUBSTRUCTURE
     1 ECN         1 TEMP              0 ****  ****    0 ROOT
