@<TRIPOS>MOLECULE
ECN
   39    39     1     0     0
SMALL
bcc


@<TRIPOS>ATOM
      1 C1         -0.2870   -0.2430   -0.1920 c3        1 ECN     -0.161000
      2 C2          1.0720   -0.8220   -0.3480 c2        1 ECN     -0.060000
      3 C6         -4.7790    2.1710   -2.7650 c3        1 ECN     -0.222000
      4 C7         -3.9140    0.9810   -2.3060 c1        1 ECN     -0.067000
      5 C9          3.1660   -1.6370    2.4720 c1        1 ECN     -0.131000
      6 C10         3.3500   -2.4380    3.3420 c1        1 ECN     -0.166000
      7 C11         2.9560   -0.6940    1.4530 c2        1 ECN      0.076000
      8 Cl2         4.0650    0.6160    1.4310 cl        1 ECN     -0.015000
      9 C14        -1.4530   -3.4990   -3.6200 c2        1 ECN     -0.023000
     10 C15        -0.5620   -2.8960   -4.4310 c2        1 ECN     -0.260000
     11 C16        -0.1780   -3.2530   -5.7580 c1        1 ECN      0.041000
     12 C17        -2.2390   -4.3470   -0.2090 c2        1 ECN     -0.152000
     13 Cl8         0.8220   -4.5260   -6.0530 cl        1 ECN      0.027000
     14 N19        -5.1360    1.9060   -4.1740 n2        1 ECN     -0.157000
     15 C19        -3.1670   -1.0820   -3.5140 c3        1 ECN     -0.038000
     16 C20        -2.2410   -1.4350   -2.3280 c3        1 ECN      0.075000
     17 O20        -1.0230   -0.7040   -2.4780 os        1 ECN     -0.287000
     18 C5         -1.9290   -2.9150   -2.3670 c2        1 ECN     -0.064000
     19 N1         -3.8380    0.1810   -3.3810 n3        1 ECN     -0.204000
     20 C3         -4.5840    0.7680   -4.4920 c2        1 ECN     -0.063000
     21 C8         -0.8170    0.3170   -1.5030 c3        1 ECN     -0.033000
     22 C13         2.0030   -0.7580    0.5580 c1        1 ECN     -0.163000
     23 C21        -2.0830   -3.6370   -1.2820 c1        1 ECN     -0.113000
     24 H2          1.2540   -1.3440   -1.3080 ha        1 ECN      0.156000
     25 H10        -0.9770   -1.0520    0.1750 hc        1 ECN      0.105000
     26 H8C1       -1.7700    0.8860   -1.3230 h1        1 ECN      0.115000
     27 H8C2       -0.0550    0.9860   -1.9880 h1        1 ECN      0.115000
     28 H13        -0.2880    0.5780    0.5730 hc        1 ECN      0.105000
     29 H6         -5.7060    2.2490   -2.1400 h1        1 ECN      0.151500
     30 H7         -4.2050    3.1310   -2.6870 h1        1 ECN      0.151500
     31 H9          3.5170   -3.1460    4.1140 ha        1 ECN      0.228000
     32 H15        -0.1500   -1.9020   -4.1300 ha        1 ECN      0.208000
     33 H17        -3.1940   -4.8360    0.0380 ha        1 ECN      0.146000
     34 H21        -1.4240   -4.5020    0.5150 ha        1 ECN      0.146000
     35 H3         -4.6330    0.2590   -5.4630 h5        1 ECN      0.202000
     36 H191       -3.9460   -1.8930   -3.6070 h1        1 ECN      0.110000
     37 H192       -2.5480   -1.0670   -4.4570 h1        1 ECN      0.110000
     38 H20        -2.7460   -1.1810   -1.3530 h1        1 ECN      0.130000
     39 Cl4        -2.1340   -5.0070   -4.0430 cl        1 ECN     -0.019000
@<TRIPOS>BOND
     1    1    2 1   
     2    1   21 1   
     3    1   25 1   
     4    1   28 1   
     5    2   22 1   
     6    2   24 1   
     7    3    4 1   
     8    3   14 1   
     9    3   29 1   
    10    3   30 1   
    11    4   19 1   
    12    5    6 1   
    13    5    7 1   
    14    6   31 1   
    15    7    8 1   
    16    7   22 1   
    17    9   10 1   
    18    9   18 1   
    19    9   39 1   
    20   10   11 1   
    21   10   32 1   
    22   11   13 1   
    23   12   23 1   
    24   12   33 1   
    25   12   34 1   
    26   14   20 1   
    27   15   16 1   
    28   15   19 1   
    29   15   36 1   
    30   15   37 1   
    31   16   17 1   
    32   16   18 1   
    33   16   38 1   
    34   17   21 1   
    35   18   23 1   
    36   19   20 1   
    37   20   35 1   
    38   21   26 1   
    39   21   27 1   
@<TRIPOS>SUBSTRUCTURE
     1 ECN         1 TEMP              0 ****  ****    0 ROOT
