@<TRIPOS>MOLECULE
ECN
   39    41     1     0     0
SMALL
bcc


@<TRIPOS>ATOM
      1 C1          2.3870    0.7170    0.7020 ca        1 ECN     -0.093300
      2 C2          2.7420    1.9960    1.1450 ca        1 ECN     -0.104500
      3 C6          0.6170   -5.3100   -0.7520 cc        1 ECN      0.292200
      4 C7         -0.5330   -4.5070   -0.6620 cd        1 ECN     -0.259600
      5 C9          4.5820    0.4510   -0.2870 ca        1 ECN     -0.126000
      6 C10         3.3110   -0.0500   -0.0140 ca        1 ECN     -0.104500
      7 C11         4.9300    1.7280    0.1650 ca        1 ECN      0.021400
      8 CL2         6.4800    2.3450   -0.1610 cl        1 ECN     -0.091400
      9 C14        -3.0770   -0.2630    0.6970 ca        1 ECN      0.029400
     10 C15        -4.0880    0.7040    0.6610 ca        1 ECN     -0.123000
     11 C16        -3.8690    1.8980   -0.0310 ca        1 ECN      0.029400
     12 C17        -2.6540    2.1300   -0.6830 ca        1 ECN     -0.125000
     13 CL8        -5.0920    3.0740   -0.0780 cl        1 ECN     -0.076400
     14 N19         1.7030   -4.5480   -1.1850 nc        1 ECN     -0.672000
     15 C19        -0.9610   -2.0550   -1.1080 c3        1 ECN      0.048300
     16 C20        -0.7550   -1.0730    0.0750 c3        1 ECN      0.165400
     17 O20         0.5290   -0.4860   -0.1370 os        1 ECN     -0.419600
     18 C5         -1.8500   -0.0450    0.0510 ca        1 ECN     -0.123300
     19 N1         -0.1410   -3.2230   -1.0610 na        1 ECN     -0.209900
     20 C3          1.2300   -3.2980   -1.3590 cd        1 ECN      0.400400
     21 C8          1.0370    0.1720    1.0310 c3        1 ECN      0.171700
     22 C13         4.0130    2.5030    0.8820 ca        1 ECN     -0.126000
     23 C21        -1.6580    1.1590   -0.6370 ca        1 ECN     -0.096000
     24 H2          2.0190    2.6070    1.7060 ha        1 ECN      0.143500
     25 H10         3.0240   -1.0540   -0.3650 ha        1 ECN      0.143500
     26 H8C1        1.1170   -0.5730    1.8700 h1        1 ECN      0.046200
     27 H8C2        0.3260    0.9900    1.3270 h1        1 ECN      0.046200
     28 H13         4.2900    3.5070    1.2360 ha        1 ECN      0.150000
     29 H6          0.7180   -6.3730   -0.5360 h4        1 ECN      0.042100
     30 H7         -1.5540   -4.7410   -0.3700 h4        1 ECN      0.176000
     31 H9          5.3050   -0.1570   -0.8510 ha        1 ECN      0.150000
     32 H15        -5.0460    0.5230    1.1730 ha        1 ECN      0.165000
     33 H17        -2.4840    3.0710   -1.2290 ha        1 ECN      0.156000
     34 H21        -0.6930    1.3320   -1.1450 ha        1 ECN      0.163000
     35 H3          1.8000   -2.4200   -1.6830 h5        1 ECN      0.066100
     36 H191       -2.0430   -2.3690   -1.1060 h1        1 ECN      0.077200
     37 H192       -0.7370   -1.4960   -2.0620 h1        1 ECN      0.077200
     38 H20        -0.7610   -1.6230    1.0590 h1        1 ECN      0.074700
     39 CL4        -3.3850   -1.7060    1.5440 cl        1 ECN     -0.083400
@<TRIPOS>BOND
     1    1    2 ar  
     2    1    6 ar  
     3    1   21 1   
     4    2   22 ar  
     5    2   24 1   
     6    3    4 2   
     7    3   14 1   
     8    3   29 1   
     9    4   19 1   
    10    4   30 1   
    11    5    6 ar  
    12    5    7 ar  
    13    5   31 1   
    14    6   25 1   
    15    7    8 1   
    16    7   22 ar  
    17    9   10 ar  
    18    9   18 ar  
    19    9   39 1   
    20   10   11 ar  
    21   10   32 1   
    22   11   12 ar  
    23   11   13 1   
    24   12   23 ar  
    25   12   33 1   
    26   14   20 2   
    27   15   16 1   
    28   15   19 1   
    29   15   36 1   
    30   15   37 1   
    31   16   17 1   
    32   16   18 1   
    33   16   38 1   
    34   17   21 1   
    35   18   23 ar  
    36   19   20 1   
    37   20   35 1   
    38   21   26 1   
    39   21   27 1   
    40   22   28 1   
    41   23   34 1   
@<TRIPOS>SUBSTRUCTURE
     1 ECN         1 TEMP              0 ****  ****    0 ROOT
