@<TRIPOS>MOLECULE
ECN
   39    33     1     0     0
SMALL
bcc


@<TRIPOS>ATOM
      1 C1          1.8540    0.8310    1.8240 c1        1 ECN     -0.080000
      2 C2          3.0710    0.1800    1.6530 c1        1 ECN     -0.117000
      3 CL4        -0.5270   -2.4740    0.8890 cl        1 ECN      0.015000
      4 C6         -3.9830    2.6770   -1.8410 c1        1 ECN     -0.173000
      5 C7         -3.2460    1.5360   -1.9500 c1        1 ECN     -0.174000
      6 C9          2.3170    1.0830    4.1860 c1        1 ECN     -0.125000
      7 C10         1.4730    1.2850    3.0920 c1        1 ECN     -0.094000
      8 C11         3.5340    0.4320    4.0140 c1        1 ECN     -0.058000
      9 CL2         4.6270    0.2280    5.3850 cl        1 ECN     -0.015000
     10 C14        -0.2390   -2.3590   -0.8450 c2        1 ECN     -0.030000
     11 C15         0.3070   -3.4520   -1.5340 c1        1 ECN     -0.128000
     12 C16         0.7320   -3.3030   -2.8460 c1        1 ECN     -0.046000
     13 C17         0.6180   -2.0680   -3.4830 c1        1 ECN     -0.128000
     14 CL8         1.4640   -4.6410   -3.6790 cl        1 ECN      0.004000
     15 N19        -4.1800    2.9170   -0.5460 n2        1 ECN     -0.145000
     16 C19        -2.2980   -0.1270   -0.3810 c3        1 ECN     -0.017000
     17 C20        -0.8420    0.0410   -0.6690 c3        1 ECN      0.054000
     18 O20        -0.1200    0.0980    0.5750 os        1 ECN     -0.269000
     19 C5         -0.3520   -1.1310   -1.4810 c2        1 ECN     -0.117000
     20 N1         -2.9980    1.0870   -0.7170 n3        1 ECN     -0.167000
     21 C3         -3.5740    1.9380    0.1590 c1        1 ECN     -0.087000
     22 C8          0.9500    1.0980    0.6090 c3        1 ECN      0.015000
     23 C13         3.9120   -0.0210    2.7430 c2        1 ECN     -0.125000
     24 C21         0.0810   -0.9870   -2.8100 c1        1 ECN     -0.107000
     25 H2          3.3300   -0.1300    0.7850 ha        1 ECN      0.136000
     26 H10         0.5830    1.7600    3.2160 ha        1 ECN      0.147000
     27 H8C1        1.4760    1.0400   -0.2040 h1        1 ECN      0.084000
     28 H8C2        0.5420    2.0380    0.6870 h1        1 ECN      0.084000
     29 H13         4.7590   -0.4740    2.6230 ha        1 ECN      0.148000
     30 H6         -4.3160    3.2340   -2.5970 DU        1 ECN      0.185333
     31 H7         -2.9620    1.1350   -2.7550 DU        1 ECN      0.185333
     32 H9          2.0480    1.4040    5.0830 ha        1 ECN      0.150000
     33 H15         0.3880   -4.3090   -1.0970 ha        1 ECN      0.166000
     34 H17         0.9180   -1.9670   -4.4080 ha        1 ECN      0.155000
     35 H21        -0.0000   -0.0990   -3.2730 ha        1 ECN      0.144000
     36 H3         -3.5550    1.8570    1.1720 DU        1 ECN      0.185333
     37 H191       -2.6770   -0.9180   -0.9490 h1        1 ECN      0.120000
     38 H192       -2.4160   -0.3150    0.5430 h1        1 ECN      0.120000
     39 H20        -0.6990    0.8760   -1.1750 h1        1 ECN      0.100000
@<TRIPOS>BOND
     1    1    7 1   
     2    1   22 1   
     3    2   23 1   
     4    2   25 1   
     5    3   10 1   
     6    4    5 1   
     7    4   15 1   
     8    5   20 1   
     9    6    8 1   
    10    6   32 1   
    11    7   26 1   
    12    8   23 1   
    13   10   11 1   
    14   10   19 1   
    15   11   33 1   
    16   12   13 1   
    17   12   14 1   
    18   13   34 1   
    19   15   21 1   
    20   16   17 1   
    21   16   20 1   
    22   16   37 1   
    23   16   38 1   
    24   17   18 1   
    25   17   19 1   
    26   17   39 1   
    27   18   22 1   
    28   19   24 1   
    29   20   21 1   
    30   22   27 1   
    31   22   28 1   
    32   23   29 1   
    33   24   35 1   
@<TRIPOS>SUBSTRUCTURE
     1 ECN         1 TEMP              0 ****  ****    0 ROOT
