@<TRIPOS>MOLECULE
ECO
   50    49     1     0     0
SMALL
bcc


@<TRIPOS>ATOM
      1 C1          2.1110    0.5010   -2.4890 c1        1 ECO     -0.150000
      2 C2          3.5250    0.4650   -2.5410 c1        1 ECO     -0.150000
      3 C3          4.2990    0.4530   -1.3140 c1        1 ECO      0.087000
      4 O3          5.7060    0.3030   -1.3690 oh        1 ECO     -0.280000
      5 C4          3.6400    0.4780   -0.0540 c1        1 ECO     -0.178000
      6 C5          2.2550    0.5130    0.0030 c1        1 ECO     -0.023000
      7 C6          1.3990    0.6330    1.4970 c2        1 ECO     -0.072000
      8 C7         -0.1510    0.7650    1.4300 c3        1 ECO     -0.105000
      9 C8         -0.6810    0.1690    0.2150 c3        1 ECO     -0.089000
     10 C9         -0.0610    0.6530   -1.1280 c3        1 ECO     -0.049000
     11 C10         1.4600    0.5250   -1.2560 c1        1 ECO     -0.104000
     12 C11        -0.7730   -0.0640   -2.4350 c3        1 ECO     -0.150000
     13 C12        -2.4160    0.0710   -2.4080 c3        1 ECO     -0.141000
     14 C13        -2.9970   -0.3910   -1.0990 c3        1 ECO     -0.043000
     15 C14        -2.2860    0.3230    0.2120 c3        1 ECO     -0.102000
     16 C15        -2.8840   -0.2830    1.2000 c3        1 ECO     -0.148000
     17 C16        -4.4390   -0.3090    0.6870 c3        1 ECO     -0.195000
     18 C17        -4.2510   -0.0650   -0.9250 c3        1 ECO      0.027000
     19 O17        -5.1080   -0.9190   -1.6670 oh        1 ECO     -0.321000
     20 C18        -2.8490   -1.9090   -0.9890 c3        1 ECO     -0.195000
     21 N19         1.9890    0.2730    2.6310 n1        1 ECO     -0.038000
     22 O19         3.3950    0.1540    2.6890 o         1 ECO     -0.198000
     23 C19         3.8360    0.1820    4.0630 c3        1 ECO     -0.088000
     24 C20         5.2270   -0.4270    4.1600 c2        1 ECO      0.340000
     25 O20         6.2300    0.3170    4.2970 o         1 ECO     -0.569500
     26 O21         5.3670   -1.6670    4.1550 o         1 ECO     -0.569500
     27 HC1         1.5990    0.6000   -3.3100 ha        1 ECO      0.122000
     28 HC2         3.9840    0.4360   -3.4100 ha        1 ECO      0.122000
     29 HO3         6.0780    1.0760   -1.6090 ho        1 ECO      0.268000
     30 HC4         4.1760    0.4700    0.7920 ha        1 ECO      0.234000
     31 HC71       -0.4350    1.6860    1.6550 hc        1 ECO      0.090000
     32 HC72       -0.5670    0.2670    2.1810 hc        1 ECO      0.090000
     33 HC8        -0.4920   -0.7900    0.2750 hc        1 ECO      0.110000
     34 HC9        -0.2580    1.5960   -1.1910 hc        1 ECO      0.083000
     35 H111       -0.5260   -1.0430   -2.4440 hc        1 ECO      0.082500
     36 H112       -0.4220    0.3710   -3.2790 hc        1 ECO      0.082500
     37 H121       -2.6670    1.0300   -2.5560 hc        1 ECO      0.076500
     38 H122       -2.7960   -0.4800   -3.1430 hc        1 ECO      0.076500
     39 H14        -2.5180    1.2770    0.2280 hc        1 ECO      0.081000
     40 H151       -2.8030    0.2170    2.0010 hc        1 ECO      0.088000
     41 H152       -2.5360   -1.1980    1.3140 hc        1 ECO      0.088000
     42 H161       -4.8620   -1.1970    0.8680 hc        1 ECO      0.080000
     43 H162       -4.9550    0.4170    1.0940 hc        1 ECO      0.080000
     44 H17        -4.4070    0.9060   -1.1660 h1        1 ECO      0.069000
     45 H17O       -5.7960   -0.4650   -1.9490 ho        1 ECO      0.191000
     46 H181       -3.3650   -2.2350   -0.2150 hc        1 ECO      0.080000
     47 H182       -1.8780   -2.1440   -0.8680 hc        1 ECO      0.080000
     48 H183       -3.1900   -2.3350   -1.8150 hc        1 ECO      0.080000
     49 H191        3.2320   -0.3200    4.6010 h1        1 ECO      0.076000
     50 H192        3.8630    1.1120    4.3810 h1        1 ECO      0.076000
@<TRIPOS>BOND
     1    1    2 1   
     2    1   27 1   
     3    2   28 1   
     4    3    4 1   
     5    3    5 1   
     6    4   29 1   
     7    5   30 1   
     8    6    7 1   
     9    6   11 1   
    10    7    8 1   
    11    7   21 1   
    12    8    9 1   
    13    8   31 1   
    14    8   32 1   
    15    9   10 1   
    16    9   15 1   
    17    9   33 1   
    18   10   11 1   
    19   10   12 1   
    20   10   34 1   
    21   12   13 1   
    22   12   35 1   
    23   12   36 1   
    24   13   14 1   
    25   13   37 1   
    26   13   38 1   
    27   14   15 1   
    28   14   18 1   
    29   14   20 1   
    30   15   16 1   
    31   15   39 1   
    32   16   17 1   
    33   16   40 1   
    34   16   41 1   
    35   17   18 1   
    36   17   42 1   
    37   17   43 1   
    38   18   19 1   
    39   18   44 1   
    40   19   45 1   
    41   20   46 1   
    42   20   47 1   
    43   20   48 1   
    44   22   23 1   
    45   23   24 1   
    46   23   49 1   
    47   23   50 1   
    48   24   25 1   
    49   24   26 1   
@<TRIPOS>SUBSTRUCTURE
     1 ECO         1 TEMP              0 ****  ****    0 ROOT
