@<TRIPOS>MOLECULE
ECO
   50    53     1     0     0
SMALL
bcc


@<TRIPOS>ATOM
      1 C1          0.1100    0.0130    0.0270 ca        1 ECO     -0.123000
      2 C2          1.5000    0.1110    0.0470 ca        1 ECO     -0.177000
      3 C3          2.1530    0.1190    1.2850 ca        1 ECO      0.132100
      4 O3          3.5210    0.2280    1.3030 oh        1 ECO     -0.526100
      5 C4          1.4180    0.0180    2.4750 ca        1 ECO     -0.178000
      6 C5          0.0290   -0.1150    2.4450 ca        1 ECO     -0.106900
      7 C6         -0.7020   -0.2450    3.7220 ce        1 ECO      0.374900
      8 C7         -2.1780    0.0550    3.6210 c3        1 ECO     -0.101700
      9 C8         -2.7360   -0.6940    2.4230 c3        1 ECO     -0.049700
     10 C9         -2.1370   -0.1020    1.1350 c3        1 ECO     -0.002400
     11 C10        -0.6420   -0.0980    1.2000 ca        1 ECO     -0.111300
     12 C11        -2.6950   -0.7970   -0.1030 c3        1 ECO     -0.071400
     13 C12        -4.2160   -0.8590   -0.1370 c3        1 ECO     -0.062400
     14 C13        -4.7700   -1.4460    1.1490 c3        1 ECO     -0.043000
     15 C14        -4.2400   -0.5870    2.3220 c3        1 ECO     -0.062700
     16 C15        -5.1150   -0.9820    3.5040 c3        1 ECO     -0.069400
     17 C16        -6.4860   -1.2760    2.8890 c3        1 ECO     -0.116400
     18 C17        -6.2980   -1.2900    1.3550 c3        1 ECO      0.138100
     19 O17        -6.9900   -2.3580    0.7330 oh        1 ECO     -0.593800
     20 C18        -4.4100   -2.9180    1.2550 c3        1 ECO     -0.077100
     21 N19        -0.2350   -0.6070    4.8960 n2        1 ECO     -0.424200
     22 O19         1.0130   -1.0040    4.9560 os        1 ECO     -0.171300
     23 C19         1.7120   -0.7230    6.2000 c3        1 ECO      0.012400
     24 C20         3.2070   -0.5230    5.8540 c         1 ECO      0.920600
     25 O20         4.0150   -0.7720    6.7880 o         1 ECO     -0.834800
     26 O21         3.5410   -0.0990    4.7110 o         1 ECO     -0.834800
     27 HC1        -0.3930    0.0270   -0.9510 ha        1 ECO      0.113000
     28 HC2         2.0770    0.1850   -0.8830 ha        1 ECO      0.131000
     29 HO3         3.8100    0.1580    2.2360 ho        1 ECO      0.469000
     30 HC4         1.9870    0.0400    3.4330 ha        1 ECO      0.234000
     31 HC71       -2.7350   -0.2470    4.5460 hc        1 ECO      0.050700
     32 HC72       -2.3100    1.1610    3.4900 hc        1 ECO      0.050700
     33 HC8        -2.4360   -1.7750    2.5120 hc        1 ECO      0.070700
     34 HC9        -2.4590    0.9820    1.0820 hc        1 ECO      0.043700
     35 H111       -2.2710   -1.8330   -0.1660 hc        1 ECO      0.043200
     36 H112       -2.3610   -0.2430   -1.0200 hc        1 ECO      0.043200
     37 H121       -4.6290    0.1730   -0.2850 hc        1 ECO      0.037200
     38 H122       -4.5430   -1.4830   -1.0090 hc        1 ECO      0.037200
     39 H14        -4.4820    0.4930    2.0880 hc        1 ECO      0.041700
     40 H151       -4.7050   -1.8870    4.0180 hc        1 ECO      0.048700
     41 H152       -5.1740   -0.1600    4.2580 hc        1 ECO      0.048700
     42 H161       -7.2290   -0.4950    3.1790 hc        1 ECO      0.040700
     43 H162       -6.8690   -2.2670    3.2340 hc        1 ECO      0.040700
     44 H17        -6.6490   -0.3190    0.9090 h1        1 ECO      0.029700
     45 H17O       -7.9090   -2.2840    1.0150 ho        1 ECO      0.392000
     46 H181       -3.3090   -3.0770    1.1680 hc        1 ECO      0.040700
     47 H182       -4.7550   -3.3290    2.2340 hc        1 ECO      0.040700
     48 H183       -4.9170   -3.4840    0.4360 hc        1 ECO      0.040700
     49 H191        1.3230    0.1970    6.6980 h1        1 ECO      0.036700
     50 H192        1.5700   -1.6090    6.8670 h1        1 ECO      0.036700
@<TRIPOS>BOND
     1    1    2 ar  
     2    1   11 ar  
     3    1   27 1   
     4    2    3 ar  
     5    2   28 1   
     6    3    4 1   
     7    3    5 ar  
     8    4   29 1   
     9    5    6 ar  
    10    5   30 1   
    11    6    7 1   
    12    6   11 ar  
    13    7    8 1   
    14    7   21 2   
    15    8    9 1   
    16    8   31 1   
    17    8   32 1   
    18    9   10 1   
    19    9   15 1   
    20    9   33 1   
    21   10   11 1   
    22   10   12 1   
    23   10   34 1   
    24   12   13 1   
    25   12   35 1   
    26   12   36 1   
    27   13   14 1   
    28   13   37 1   
    29   13   38 1   
    30   14   15 1   
    31   14   18 1   
    32   14   20 1   
    33   15   16 1   
    34   15   39 1   
    35   16   17 1   
    36   16   40 1   
    37   16   41 1   
    38   17   18 1   
    39   17   42 1   
    40   17   43 1   
    41   18   19 1   
    42   18   44 1   
    43   19   45 1   
    44   20   46 1   
    45   20   47 1   
    46   20   48 1   
    47   21   22 1   
    48   22   23 1   
    49   23   24 1   
    50   23   49 1   
    51   23   50 1   
    52   24   25 1   
    53   24   26 1   
@<TRIPOS>SUBSTRUCTURE
     1 ECO         1 TEMP              0 ****  ****    0 ROOT
