@<TRIPOS>MOLECULE
ECO
   50    53     1     0     0
SMALL
bcc


@<TRIPOS>ATOM
      1 C1          0.2670    2.9880    0.0300 ca        1 ECO     -0.123000
      2 C2          1.5620    3.4820   -0.1160 ca        1 ECO     -0.177000
      3 C3          2.6340    2.5870   -0.0230 ca        1 ECO      0.132100
      4 O3          3.9090    3.0770   -0.1560 oh        1 ECO     -0.526100
      5 C4          2.4010    1.2220    0.2010 ca        1 ECO     -0.178000
      6 C5          1.1010    0.7310    0.3120 ca        1 ECO     -0.106900
      7 C6          0.9010   -0.7190    0.5210 ce        1 ECO      0.374900
      8 C7         -0.4620   -1.0820    1.0560 c3        1 ECO     -0.101700
      9 C8         -1.5080   -0.3500    0.2330 c3        1 ECO     -0.049700
     10 C9         -1.3880    1.1610    0.4940 c3        1 ECO     -0.002400
     11 C10         0.0110    1.6300    0.2450 ca        1 ECO     -0.111300
     12 C11        -2.4440    1.9410   -0.2830 c3        1 ECO     -0.071400
     13 C12        -3.8610    1.4220   -0.0800 c3        1 ECO     -0.062400
     14 C13        -3.9410   -0.0710   -0.3440 c3        1 ECO     -0.043000
     15 C14        -2.9180   -0.7670    0.5870 c3        1 ECO     -0.062700
     16 C15        -3.3130   -2.2370    0.5480 c3        1 ECO     -0.069400
     17 C16        -4.8370   -2.2240    0.4050 c3        1 ECO     -0.116400
     18 C17        -5.2490   -0.7650    0.1100 c3        1 ECO      0.138100
     19 O17        -6.2330   -0.6730   -0.9050 oh        1 ECO     -0.593800
     20 C18        -3.7210   -0.3590   -1.8200 c3        1 ECO     -0.077100
     21 N19         1.7400   -1.7010    0.2780 n2        1 ECO     -0.424200
     22 O19         2.8690   -1.4000   -0.3180 os        1 ECO     -0.171300
     23 C19         4.0140   -2.2250    0.0320 c3        1 ECO      0.012400
     24 C20         5.2760   -1.3390   -0.0930 c         1 ECO      0.920600
     25 O20         6.3490   -1.9570   -0.3260 o         1 ECO     -0.834800
     26 O21         5.1910   -0.0890    0.0750 o         1 ECO     -0.834800
     27 HC1        -0.5670    3.7040   -0.0260 ha        1 ECO      0.113000
     28 HC2         1.7450    4.5480   -0.2960 ha        1 ECO      0.131000
     29 HO3         4.5230    2.3150   -0.1230 ho        1 ECO      0.469000
     30 HC4         3.2920    0.5560    0.2770 ha        1 ECO      0.234000
     31 HC71       -0.5190   -0.7710    2.1320 hc        1 ECO      0.050700
     32 HC72       -0.6530   -2.1860    1.0100 hc        1 ECO      0.050700
     33 HC8        -1.3110   -0.5580   -0.8540 hc        1 ECO      0.070700
     34 HC9        -1.5910    1.3300    1.5950 hc        1 ECO      0.043700
     35 H111       -2.1860    1.9250   -1.3730 hc        1 ECO      0.043200
     36 H112       -2.4290    3.0130    0.0490 hc        1 ECO      0.043200
     37 H121       -4.5570    1.9660   -0.7690 hc        1 ECO      0.037200
     38 H122       -4.1900    1.6330    0.9710 hc        1 ECO      0.037200
     39 H14        -3.1180   -0.4060    1.6400 hc        1 ECO      0.041700
     40 H151       -2.8340   -2.7560   -0.3190 hc        1 ECO      0.048700
     41 H152       -2.9950   -2.7660    1.4790 hc        1 ECO      0.048700
     42 H161       -5.1600   -2.8880   -0.4340 hc        1 ECO      0.040700
     43 H162       -5.3290   -2.5820    1.3410 hc        1 ECO      0.040700
     44 H17        -5.6420   -0.2730    1.0420 h1        1 ECO      0.029700
     45 H17O       -6.9630   -1.2390   -0.6260 ho        1 ECO      0.392000
     46 H181       -2.7600    0.0750   -2.1820 hc        1 ECO      0.040700
     47 H182       -3.7080   -1.4610   -2.0000 hc        1 ECO      0.040700
     48 H183       -4.5580    0.0860   -2.4130 hc        1 ECO      0.040700
     49 H191        3.9420   -2.6170    1.0750 h1        1 ECO      0.036700
     50 H192        4.0460   -3.0730   -0.6960 h1        1 ECO      0.036700
@<TRIPOS>BOND
     1    1    2 ar  
     2    1   11 ar  
     3    1   27 1   
     4    2    3 ar  
     5    2   28 1   
     6    3    4 1   
     7    3    5 ar  
     8    4   29 1   
     9    5    6 ar  
    10    5   30 1   
    11    6    7 1   
    12    6   11 ar  
    13    7    8 1   
    14    7   21 2   
    15    8    9 1   
    16    8   31 1   
    17    8   32 1   
    18    9   10 1   
    19    9   15 1   
    20    9   33 1   
    21   10   11 1   
    22   10   12 1   
    23   10   34 1   
    24   12   13 1   
    25   12   35 1   
    26   12   36 1   
    27   13   14 1   
    28   13   37 1   
    29   13   38 1   
    30   14   15 1   
    31   14   18 1   
    32   14   20 1   
    33   15   16 1   
    34   15   39 1   
    35   16   17 1   
    36   16   40 1   
    37   16   41 1   
    38   17   18 1   
    39   17   42 1   
    40   17   43 1   
    41   18   19 1   
    42   18   44 1   
    43   19   45 1   
    44   20   46 1   
    45   20   47 1   
    46   20   48 1   
    47   21   22 1   
    48   22   23 1   
    49   23   24 1   
    50   23   49 1   
    51   23   50 1   
    52   24   25 1   
    53   24   26 1   
@<TRIPOS>SUBSTRUCTURE
     1 ECO         1 TEMP              0 ****  ****    0 ROOT
