@<TRIPOS>MOLECULE
ECO
   50    53     1     0     0
SMALL
bcc


@<TRIPOS>ATOM
      1 C1          0.1190   -0.0130    0.0260 ca        1 ECO     -0.123000
      2 C2          1.5090    0.0820    0.0480 ca        1 ECO     -0.177000
      3 C3          2.1590    0.0960    1.2870 ca        1 ECO      0.132100
      4 O3          3.5280    0.2010    1.3070 oh        1 ECO     -0.526100
      5 C4          1.4210    0.0060    2.4760 ca        1 ECO     -0.178000
      6 C5          0.0330   -0.1230    2.4440 ca        1 ECO     -0.106900
      7 C6         -0.7020   -0.2420    3.7210 ce        1 ECO      0.374900
      8 C7         -2.1760    0.0630    3.6140 c3        1 ECO     -0.101700
      9 C8         -2.7340   -0.6930    2.4200 c3        1 ECO     -0.049700
     10 C9         -2.1310   -0.1120    1.1300 c3        1 ECO     -0.002400
     11 C10        -0.6360   -0.1130    1.1980 ca        1 ECO     -0.111300
     12 C11        -2.6890   -0.8140   -0.1050 c3        1 ECO     -0.071400
     13 C12        -4.2100   -0.8710   -0.1420 c3        1 ECO     -0.062400
     14 C13        -4.7690   -1.4470    1.1470 c3        1 ECO     -0.043000
     15 C14        -4.2380   -0.5810    2.3150 c3        1 ECO     -0.062700
     16 C15        -5.1170   -0.9650    3.4980 c3        1 ECO     -0.069400
     17 C16        -6.4870   -1.2580    2.8820 c3        1 ECO     -0.116400
     18 C17        -6.2960   -1.2840    1.3490 c3        1 ECO      0.138100
     19 O17        -6.9910   -2.3540    0.7330 oh        1 ECO     -0.593800
     20 C18        -4.4140   -2.9190    1.2650 c3        1 ECO     -0.077100
     21 N19        -0.2390   -0.5960    4.8990 n2        1 ECO     -0.424200
     22 O19         1.0080   -0.9970    4.9630 os        1 ECO     -0.171300
     23 C19         1.7050   -0.7100    6.2080 c3        1 ECO      0.012400
     24 C20         3.2010   -0.5170    5.8630 c         1 ECO      0.920600
     25 O20         4.0070   -0.7630    6.8000 o         1 ECO     -0.834800
     26 O21         3.5390   -0.1030    4.7170 o         1 ECO     -0.834800
     27 HC1        -0.3820   -0.0030   -0.9530 ha        1 ECO      0.113000
     28 HC2         2.0880    0.1470   -0.8820 ha        1 ECO      0.131000
     29 HO3         3.8150    0.1360    2.2410 ho        1 ECO      0.469000
     30 HC4         1.9890    0.0330    3.4350 ha        1 ECO      0.234000
     31 HC71       -2.7370   -0.2310    4.5400 hc        1 ECO      0.050700
     32 HC72       -2.3040    1.1690    3.4750 hc        1 ECO      0.050700
     33 HC8        -2.4380   -1.7740    2.5170 hc        1 ECO      0.070700
     34 HC9        -2.4490    0.9730    1.0680 hc        1 ECO      0.043700
     35 H111       -2.2680   -1.8510   -0.1600 hc        1 ECO      0.043200
     36 H112       -2.3510   -0.2670   -1.0250 hc        1 ECO      0.043200
     37 H121       -4.6190    0.1620   -0.2980 hc        1 ECO      0.037200
     38 H122       -4.5360   -1.5000   -1.0100 hc        1 ECO      0.037200
     39 H14        -4.4760    0.4980    2.0730 hc        1 ECO      0.041700
     40 H151       -4.7120   -1.8670    4.0200 hc        1 ECO      0.048700
     41 H152       -5.1750   -0.1370    4.2460 hc        1 ECO      0.048700
     42 H161       -7.2290   -0.4730    3.1650 hc        1 ECO      0.040700
     43 H162       -6.8750   -2.2460    3.2340 hc        1 ECO      0.040700
     44 H17        -6.6430   -0.3150    0.8950 h1        1 ECO      0.029700
     45 H17O       -7.9100   -2.2740    1.0130 ho        1 ECO      0.392000
     46 H181       -3.3130   -3.0820    1.1810 hc        1 ECO      0.040700
     47 H182       -4.9210   -3.4900    0.4490 hc        1 ECO      0.040700
     48 H183       -4.7630   -3.3220    2.2460 hc        1 ECO      0.040700
     49 H191        1.5590   -1.5910    6.8800 h1        1 ECO      0.036700
     50 H192        1.3190    0.2150    6.6980 h1        1 ECO      0.036700
@<TRIPOS>BOND
     1    1    2 ar  
     2    1   11 ar  
     3    1   27 1   
     4    2    3 ar  
     5    2   28 1   
     6    3    4 1   
     7    3    5 ar  
     8    4   29 1   
     9    5    6 ar  
    10    5   30 1   
    11    6    7 1   
    12    6   11 ar  
    13    7    8 1   
    14    7   21 2   
    15    8    9 1   
    16    8   31 1   
    17    8   32 1   
    18    9   10 1   
    19    9   15 1   
    20    9   33 1   
    21   10   11 1   
    22   10   12 1   
    23   10   34 1   
    24   12   13 1   
    25   12   35 1   
    26   12   36 1   
    27   13   14 1   
    28   13   37 1   
    29   13   38 1   
    30   14   15 1   
    31   14   18 1   
    32   14   20 1   
    33   15   16 1   
    34   15   39 1   
    35   16   17 1   
    36   16   40 1   
    37   16   41 1   
    38   17   18 1   
    39   17   42 1   
    40   17   43 1   
    41   18   19 1   
    42   18   44 1   
    43   19   45 1   
    44   20   46 1   
    45   20   47 1   
    46   20   48 1   
    47   21   22 1   
    48   22   23 1   
    49   23   24 1   
    50   23   49 1   
    51   23   50 1   
    52   24   25 1   
    53   24   26 1   
@<TRIPOS>SUBSTRUCTURE
     1 ECO         1 TEMP              0 ****  ****    0 ROOT
