@<TRIPOS>MOLECULE
ECP
   62    63     1     0     0
SMALL
bcc


@<TRIPOS>ATOM
      1 OAZ         2.8180   -1.6460   -0.5930 o         1 ECP     -0.958833
      2 PAW         3.7920   -0.5060   -0.4660 p5        1 ECP      1.459900
      3 OBA         3.7820    0.1830    0.8700 o         1 ECP     -0.958833
      4 OBC         5.1660   -0.7900   -1.0060 o         1 ECP     -0.958833
      5 OAV         3.1200    0.7130   -1.5950 os        1 ECP     -0.800800
      6 PAU         2.5040    1.7300   -2.5870 p5        1 ECP      1.574800
      7 OAY         1.2300    2.3910   -2.1730 o         1 ECP     -0.933000
      8 OBB         2.6000    1.3950   -4.0400 o         1 ECP     -0.933000
      9 OAT         3.5980    3.0590   -2.4930 os        1 ECP     -0.560200
     10 CAS         3.1910    4.0500   -3.3620 c3        1 ECP      0.193600
     11 CAQ         4.1560    5.1860   -3.3420 c2        1 ECP     -0.046200
     12 CAK         4.0950    6.2930   -4.1080 c2        1 ECP     -0.288400
     13 CAR         3.0200    6.5450   -5.0920 c3        1 ECP     -0.017900
     14 CAL         5.1360    7.3550   -4.0110 c3        1 ECP     -0.009200
     15 CAM         6.2960    7.0640   -4.9510 c3        1 ECP     -0.084400
     16 CAJ         7.3380    8.1750   -4.9450 c3        1 ECP     -0.019500
     17 CAE         8.7340    7.6960   -5.4440 c3        1 ECP     -0.028000
     18 CAN         8.5930    7.2280   -6.8820 c3        1 ECP     -0.086100
     19 CAF         9.2120    6.5330   -4.5690 c3        1 ECP     -0.078400
     20 CAA        10.6650    6.1840   -4.7960 c3        1 ECP     -0.076400
     21 CAB        11.5710    7.3650   -4.5480 c3        1 ECP     -0.067400
     22 CAC        11.2110    8.5850   -5.4020 c3        1 ECP     -0.040000
     23 CAO        12.0010    9.7720   -4.8400 c3        1 ECP     -0.083600
     24 CAP        11.6800    8.3670   -6.8320 c3        1 ECP     -0.083600
     25 CAD         9.7070    8.8820   -5.2580 c3        1 ECP     -0.043700
     26 CAG         9.2660   10.0690   -6.1000 c3        1 ECP     -0.069400
     27 CAH         7.8820   10.5220   -5.6800 c3        1 ECP     -0.045200
     28 CAI         6.9080    9.3900   -5.7160 c2        1 ECP     -0.103400
     29 CAX         5.7520    9.5140   -6.3740 c2        1 ECP     -0.230000
     30 H4          2.1630    4.4150   -3.0640 h1        1 ECP      0.041700
     31 H5          3.1160    3.6260   -4.4090 h1        1 ECP      0.041700
     32 H6          4.9830    5.0550   -2.6210 ha        1 ECP      0.124000
     33 H9          2.4110    5.6220   -5.2630 hc        1 ECP      0.015033
     34 H10         3.4510    6.8780   -6.0710 hc        1 ECP      0.015033
     35 H11         2.3370    7.3550   -4.7280 hc        1 ECP      0.015033
     36 H12         5.5280    7.4170   -2.9610 hc        1 ECP      0.016700
     37 H13         4.6910    8.3560   -4.2560 hc        1 ECP      0.016700
     38 H14         5.9140    6.8970   -5.9910 hc        1 ECP      0.054200
     39 H15         6.7530    6.0960   -4.6180 hc        1 ECP      0.054200
     40 H16         7.4690    8.5030   -3.8700 hc        1 ECP      0.049700
     41 H17         7.9360    6.3240   -6.9160 hc        1 ECP      0.034700
     42 H18         9.5790    6.9600   -7.3250 hc        1 ECP      0.034700
     43 H19         8.1220    8.0220   -7.5110 hc        1 ECP      0.034700
     44 H20         8.5980    5.6170   -4.7830 hc        1 ECP      0.062700
     45 H21         9.0550    6.7990   -3.4900 hc        1 ECP      0.062700
     46 H22        10.9510    5.3480   -4.1030 hc        1 ECP      0.041200
     47 H23        10.8040    5.8040   -5.8430 hc        1 ECP      0.041200
     48 H24        12.6340    7.0760   -4.7560 hc        1 ECP      0.030200
     49 H25        11.5050    7.6530   -3.4650 hc        1 ECP      0.030200
     50 H26        11.9730   10.6370   -5.5440 hc        1 ECP      0.026867
     51 H27        13.0690    9.4810   -4.6910 hc        1 ECP      0.026867
     52 H28        11.5840   10.0960   -3.8570 hc        1 ECP      0.026867
     53 H29        11.1890    9.0870   -7.5290 hc        1 ECP      0.026867
     54 H30        11.4640    7.3280   -7.1760 hc        1 ECP      0.026867
     55 H31        12.7870    8.5180   -6.8960 hc        1 ECP      0.026867
     56 H32         9.5840    9.1860   -4.1720 hc        1 ECP      0.042700
     57 H33         9.9820   10.9220   -5.9740 hc        1 ECP      0.030700
     58 H34         9.2570    9.7950   -7.1860 hc        1 ECP      0.030700
     59 H35         7.9210   10.9280   -4.6320 hc        1 ECP      0.032200
     60 H36         7.5460   11.3590   -6.3480 hc        1 ECP      0.032200
     61 H38         5.4870   10.4370   -6.9070 ha        1 ECP      0.114000
     62 H39         4.9910    8.7230   -6.4160 ha        1 ECP      0.114000
@<TRIPOS>BOND
     1    1    2 1   
     2    2    3 1   
     3    2    4 1   
     4    2    5 1   
     5    5    6 1   
     6    6    7 1   
     7    6    8 1   
     8    6    9 1   
     9    9   10 1   
    10   10   11 1   
    11   10   30 1   
    12   10   31 1   
    13   11   12 2   
    14   11   32 1   
    15   12   13 1   
    16   12   14 1   
    17   13   33 1   
    18   13   34 1   
    19   13   35 1   
    20   14   15 1   
    21   14   36 1   
    22   14   37 1   
    23   15   16 1   
    24   15   38 1   
    25   15   39 1   
    26   16   17 1   
    27   16   28 1   
    28   16   40 1   
    29   17   18 1   
    30   17   19 1   
    31   17   25 1   
    32   18   41 1   
    33   18   42 1   
    34   18   43 1   
    35   19   20 1   
    36   19   44 1   
    37   19   45 1   
    38   20   21 1   
    39   20   46 1   
    40   20   47 1   
    41   21   22 1   
    42   21   48 1   
    43   21   49 1   
    44   22   23 1   
    45   22   24 1   
    46   22   25 1   
    47   23   50 1   
    48   23   51 1   
    49   23   52 1   
    50   24   53 1   
    51   24   54 1   
    52   24   55 1   
    53   25   26 1   
    54   25   56 1   
    55   26   27 1   
    56   26   57 1   
    57   26   58 1   
    58   27   28 1   
    59   27   59 1   
    60   27   60 1   
    61   28   29 2   
    62   29   61 1   
    63   29   62 1   
@<TRIPOS>SUBSTRUCTURE
     1 ECP         1 TEMP              0 ****  ****    0 ROOT
