@<TRIPOS>MOLECULE
ECQ
   29    29     1     0     0
SMALL
bcc


@<TRIPOS>ATOM
      1 OAD         1.0720   -1.3640    1.5020 o         1 ECQ     -0.719500
      2 CD2         1.8260   -0.7000    0.7530 c         1 ECQ      0.695500
      3 CG          2.9270    0.2540    1.2500 c3        1 ECQ     -0.161700
      4 CD1         3.4890    0.8810   -0.0370 c3        1 ECQ     -0.092400
      5 CAE         2.7810    0.1610   -1.2060 c3        1 ECQ      0.078000
      6 NAH         1.7910   -0.7160   -0.6120 n         1 ECQ     -0.531900
      7 CB          2.4030    1.2950    2.2150 c3        1 ECQ     -0.093400
      8 CA          2.4060    0.8490    3.6800 c3        1 ECQ      0.116500
      9 N           1.4400   -0.2630    3.9370 n4        1 ECQ     -0.845600
     10 C           2.1080    2.0790    4.5860 c3        1 ECQ      0.131100
     11 O           3.2300    2.9210    4.3690 oh        1 ECQ     -0.591800
     12 CMK         1.9650    1.7080    6.0490 c3        1 ECQ     -0.164100
     13 HN1         1.4300   -0.5060    4.9290 hn        1 ECQ      0.468133
     14 HN2         1.7080   -1.0900    3.3690 hn        1 ECQ      0.468133
     15 HA          3.4360    0.4610    3.9500 hx        1 ECQ      0.121700
     16 HMK1        0.9750    1.2340    6.2520 hc        1 ECQ      0.066033
     17 HMK2        2.7850    1.0220    6.3730 hc        1 ECQ      0.066033
     18 HMK3        2.0270    2.6320    6.6790 hc        1 ECQ      0.066033
     19 HB1         1.3760    1.6290    1.9090 hc        1 ECQ      0.101200
     20 HB2         3.0750    2.2030    2.1750 hc        1 ECQ      0.101200
     21 HG          3.7210   -0.3690    1.7440 hc        1 ECQ      0.087700
     22 HAH         1.1930   -1.2910   -1.1520 hn        1 ECQ      0.358500
     23 HAE1        3.5150   -0.4400   -1.8110 h1        1 ECQ      0.072700
     24 HAE2        2.2770    0.8980   -1.8890 h1        1 ECQ      0.072700
     25 HD11        3.2820    1.9790   -0.0800 hc        1 ECQ      0.078200
     26 HD12        4.5950    0.7340   -0.0990 hc        1 ECQ      0.078200
     27 H           1.1770    2.6000    4.2190 h1        1 ECQ      0.062700
     28 HO          3.1720    3.6520    5.0000 ho        1 ECQ      0.441000
     29 HN3         0.4980    0.0100    3.6380 hn        1 ECQ      0.468133
@<TRIPOS>BOND
     1    1    2 2   
     2    2    3 1   
     3    2    6 1   
     4    3    4 1   
     5    3    7 1   
     6    3   21 1   
     7    4    5 1   
     8    4   25 1   
     9    4   26 1   
    10    5    6 1   
    11    5   23 1   
    12    5   24 1   
    13    6   22 1   
    14    7    8 1   
    15    7   19 1   
    16    7   20 1   
    17    8    9 1   
    18    8   10 1   
    19    8   15 1   
    20    9   13 1   
    21    9   14 1   
    22    9   29 1   
    23   10   11 1   
    24   10   12 1   
    25   10   27 1   
    26   11   28 1   
    27   12   16 1   
    28   12   17 1   
    29   12   18 1   
@<TRIPOS>SUBSTRUCTURE
     1 ECQ         1 TEMP              0 ****  ****    0 ROOT
