@<TRIPOS>MOLECULE
ECQ
   28    27     1     0     0
SMALL
bcc


@<TRIPOS>ATOM
      1 OAD        -1.9510   -0.4180   -2.2460 o         1 ECQ     -0.373000
      2 CD2        -0.7330   -0.6420   -2.2220 c1        1 ECQ      0.304000
      3 CG          0.0360   -0.5720   -1.1810 c2        1 ECQ     -0.128000
      4 CD1         1.5860   -0.6360   -1.8890 c3        1 ECQ     -0.171000
      5 CAE         1.5280   -1.4570   -2.8230 c3        1 ECQ     -0.025000
      6 NAH         0.0870   -1.4470   -3.2990 n3        1 ECQ     -0.394000
      7 CB         -0.1560    0.6960   -0.2600 c3        1 ECQ     -0.186000
      8 CA         -0.6380    0.2560    1.1140 c3        1 ECQ     -0.028000
      9 N          -2.0690    0.3710    1.1830 n3        1 ECQ     -0.334000
     10 C          -0.0160    1.1260    2.1720 c3        1 ECQ      0.033000
     11 O           1.3520    0.8690    2.2450 oh        1 ECQ     -0.341000
     12 CMK        -0.6590    0.8210    3.5070 c3        1 ECQ     -0.238000
     13 HN1        -2.4510   -0.4580    1.0410 hn        1 ECQ      0.154500
     14 HN2        -2.3570    0.9510    0.5440 hn        1 ECQ      0.154500
     15 HA         -0.3750   -0.6890    1.2680 h1        1 ECQ      0.104000
     16 HMK1       -0.1390    1.2400    4.2260 hc        1 ECQ      0.085667
     17 HMK2       -0.6820   -0.1390    3.6420 hc        1 ECQ      0.085667
     18 HMK3       -1.5680    1.1720    3.5160 hc        1 ECQ      0.085667
     19 HB1         0.7060    1.1720   -0.1710 hc        1 ECQ      0.103000
     20 HB2        -0.8170    1.2920   -0.6620 hc        1 ECQ      0.103000
     21 HG         -0.0660   -1.2760   -0.5170 ha        1 ECQ      0.122000
     22 HAH        -0.2130   -1.6980   -4.1330 hn        1 ECQ      0.247000
     23 HAE1        2.1400   -1.1760   -3.5690 h1        1 ECQ      0.082000
     24 HAE2        1.7710   -2.3480   -2.5060 h1        1 ECQ      0.082000
     25 HD11        1.8370    0.2640   -2.2410 hc        1 ECQ      0.099500
     26 HD12        2.2480   -0.9330   -1.2210 hc        1 ECQ      0.099500
     27 H          -0.1630    2.0810    1.9420 h1        1 ECQ      0.072000
     28 HO          1.7630    1.5750    2.5380 ho        1 ECQ      0.202000
@<TRIPOS>BOND
     1    1    2 1   
     2    2    6 1   
     3    3    4 1   
     4    3    7 1   
     5    3   21 1   
     6    4    5 1   
     7    4   25 1   
     8    4   26 1   
     9    5    6 1   
    10    5   23 1   
    11    5   24 1   
    12    6   22 1   
    13    7    8 1   
    14    7   19 1   
    15    7   20 1   
    16    8    9 1   
    17    8   10 1   
    18    8   15 1   
    19    9   13 1   
    20    9   14 1   
    21   10   11 1   
    22   10   12 1   
    23   10   27 1   
    24   11   28 1   
    25   12   16 1   
    26   12   17 1   
    27   12   18 1   
@<TRIPOS>SUBSTRUCTURE
     1 ECQ         1 TEMP              0 ****  ****    0 ROOT
