@<TRIPOS>MOLECULE
ECQ
   28    28     1     0     0
SMALL
bcc


@<TRIPOS>ATOM
      1 OAD         2.4940    1.9000   -0.4590 o         1 ECQ     -0.634500
      2 CD2         2.3160    0.6930   -0.2340 c         1 ECQ      0.696500
      3 CG          1.0680   -0.1210   -0.6030 c3        1 ECQ     -0.136700
      4 CD1         1.3450   -1.5310   -0.0630 c3        1 ECQ     -0.095400
      5 CAE         2.7600   -1.4800    0.5560 c3        1 ECQ      0.091000
      6 NAH         3.2470   -0.1340    0.3730 n         1 ECQ     -0.585900
      7 CB         -0.1690    0.5180   -0.0100 c3        1 ECQ     -0.113400
      8 CA         -1.4620   -0.0790   -0.5950 c3        1 ECQ      0.166500
      9 N          -1.7810    0.3490   -1.9430 n3        1 ECQ     -0.903800
     10 C          -2.6240    0.2280    0.3880 c3        1 ECQ      0.144100
     11 O          -2.2730   -0.4380    1.5990 oh        1 ECQ     -0.610800
     12 CMK        -3.9640   -0.2590   -0.1260 c3        1 ECQ     -0.119100
     13 HN1        -1.9740    1.3320   -1.9660 hn        1 ECQ      0.349800
     14 HN2        -1.0100    0.1580   -2.5540 hn        1 ECQ      0.349800
     15 HA         -1.3430   -1.2040   -0.6260 h1        1 ECQ      0.071700
     16 HMK1       -4.7390   -0.1640    0.6740 hc        1 ECQ      0.046367
     17 HMK2       -4.2880    0.3430   -1.0070 hc        1 ECQ      0.046367
     18 HMK3       -3.8960   -1.3310   -0.4300 hc        1 ECQ      0.046367
     19 HB1        -0.1740    0.3620    1.1020 hc        1 ECQ      0.070200
     20 HB2        -0.1340    1.6250   -0.1930 hc        1 ECQ      0.070200
     21 HG          1.0010   -0.1400   -1.7230 hc        1 ECQ      0.074700
     22 HAH         4.0870    0.1840    0.7800 hn        1 ECQ      0.331500
     23 HAE1        2.7260   -1.7440    1.6490 h1        1 ECQ      0.041200
     24 HAE2        3.4460   -2.2080    0.0430 h1        1 ECQ      0.041200
     25 HD11        0.5920   -1.8210    0.7110 hc        1 ECQ      0.062700
     26 HD12        1.3080   -2.2850   -0.8840 hc        1 ECQ      0.062700
     27 H          -2.6650    1.3370    0.5870 h1        1 ECQ      0.032700
     28 HO         -3.0410   -0.3830    2.1800 ho        1 ECQ      0.404000
@<TRIPOS>BOND
     1    1    2 2   
     2    2    3 1   
     3    2    6 1   
     4    3    4 1   
     5    3    7 1   
     6    3   21 1   
     7    4    5 1   
     8    4   25 1   
     9    4   26 1   
    10    5    6 1   
    11    5   23 1   
    12    5   24 1   
    13    6   22 1   
    14    7    8 1   
    15    7   19 1   
    16    7   20 1   
    17    8    9 1   
    18    8   10 1   
    19    8   15 1   
    20    9   13 1   
    21    9   14 1   
    22   10   11 1   
    23   10   12 1   
    24   10   27 1   
    25   11   28 1   
    26   12   16 1   
    27   12   17 1   
    28   12   18 1   
@<TRIPOS>SUBSTRUCTURE
     1 ECQ         1 TEMP              0 ****  ****    0 ROOT
