@<TRIPOS>MOLECULE
ECQ
   29    29     1     0     0
SMALL
bcc


@<TRIPOS>ATOM
      1 OAD         0.9950   -1.3150    1.5010 o         1 ECQ     -0.719500
      2 CD2         1.7670   -0.6740    0.7500 c         1 ECQ      0.695500
      3 CG          2.9030    0.2390    1.2450 c3        1 ECQ     -0.161700
      4 CD1         3.4790    0.8530   -0.0420 c3        1 ECQ     -0.092400
      5 CAE         2.7400    0.1630   -1.2110 c3        1 ECQ      0.078000
      6 NAH         1.7240   -0.6830   -0.6150 ns        1 ECQ     -0.531900
      7 CB          2.4190    1.2940    2.2170 c3        1 ECQ     -0.093400
      8 CA          2.4160    0.8420    3.6810 c3        1 ECQ      0.116500
      9 N           1.4150   -0.2390    3.9380 nz        1 ECQ     -0.845600
     10 C           2.1630    2.0770    4.5930 c3        1 ECQ      0.131100
     11 O           3.3110    2.8830    4.3720 oh        1 ECQ     -0.591800
     12 CMK         2.0170    1.7040    6.0550 c3        1 ECQ     -0.164100
     13 HN1         0.4800    0.0660    3.6460 hn        1 ECQ      0.468133
     14 HN2         1.6510   -1.0720    3.3650 hn        1 ECQ      0.468133
     15 HA          3.4330    0.4180    3.9430 hx        1 ECQ      0.121700
     16 HMK1        2.1140    2.6230    6.6890 hc        1 ECQ      0.066033
     17 HMK2        1.0140    1.2620    6.2630 hc        1 ECQ      0.066033
     18 HMK3        2.8160    0.9910    6.3710 hc        1 ECQ      0.066033
     19 HB1         1.4030    1.6630    1.9190 hc        1 ECQ      0.101200
     20 HB2         3.1220    2.1780    2.1770 hc        1 ECQ      0.101200
     21 HG          3.6780   -0.4130    1.7320 hc        1 ECQ      0.087700
     22 HAH         1.1030   -1.2350   -1.1540 hn        1 ECQ      0.358500
     23 HAE1        3.4500   -0.4600   -1.8230 h1        1 ECQ      0.072700
     24 HAE2        2.2580    0.9200   -1.8880 h1        1 ECQ      0.072700
     25 HD11        3.3090    1.9570   -0.0800 hc        1 ECQ      0.078200
     26 HD12        4.5780    0.6680   -0.1120 hc        1 ECQ      0.078200
     27 H           1.2480    2.6290    4.2340 h1        1 ECQ      0.062700
     28 HO          3.2810    3.6130    5.0070 ho        1 ECQ      0.441000
     29 HN3         1.4020   -0.4860    4.9290 hn        1 ECQ      0.468133
@<TRIPOS>BOND
     1    1    2 2   
     2    2    3 1   
     3    2    6 1   
     4    3    4 1   
     5    3    7 1   
     6    3   21 1   
     7    4    5 1   
     8    4   25 1   
     9    4   26 1   
    10    5    6 1   
    11    5   23 1   
    12    5   24 1   
    13    6   22 1   
    14    7    8 1   
    15    7   19 1   
    16    7   20 1   
    17    8    9 1   
    18    8   10 1   
    19    8   15 1   
    20    9   13 1   
    21    9   14 1   
    22    9   29 1   
    23   10   11 1   
    24   10   12 1   
    25   10   27 1   
    26   11   28 1   
    27   12   16 1   
    28   12   17 1   
    29   12   18 1   
@<TRIPOS>SUBSTRUCTURE
     1 ECQ         1 TEMP              0 ****  ****    0 ROOT
