@<TRIPOS>MOLECULE
ECQ
   29    29     1     0     0
SMALL
bcc


@<TRIPOS>ATOM
      1 OAD         1.0050   -1.2510    1.3760 o         1 ECQ     -0.719500
      2 CD2         1.7800   -0.5660    0.6700 c         1 ECQ      0.695500
      3 CG          2.9120    0.3170    1.2260 c3        1 ECQ     -0.161700
      4 CD1         3.4970    1.0060   -0.0190 c3        1 ECQ     -0.092400
      5 CAE         2.7660    0.3860   -1.2320 c3        1 ECQ      0.078000
      6 NAH         1.7470   -0.4940   -0.6940 n         1 ECQ     -0.531900
      7 CB          2.4220    1.3110    2.2550 c3        1 ECQ     -0.093400
      8 CA          2.4090    0.7730    3.6890 c3        1 ECQ      0.116500
      9 N           1.4070   -0.3210    3.8750 n4        1 ECQ     -0.845600
     10 C           2.1500    1.9520    4.6710 c3        1 ECQ      0.131100
     11 O           3.2990    2.7690    4.5070 oh        1 ECQ     -0.591800
     12 CMK         1.9930    1.4930    6.1080 c3        1 ECQ     -0.164100
     13 HN1         1.3870   -0.6260    4.8500 hn        1 ECQ      0.468133
     14 HN2         0.4740    0.0010    3.5950 hn        1 ECQ      0.468133
     15 HA          3.4250    0.3350    3.9330 hx        1 ECQ      0.121700
     16 HMK1        2.7900    0.7620    6.3870 hc        1 ECQ      0.066033
     17 HMK2        2.0850    2.3730    6.7950 hc        1 ECQ      0.066033
     18 HMK3        0.9880    1.0400    6.2820 hc        1 ECQ      0.066033
     19 HB1         1.4070    1.6970    1.9720 hc        1 ECQ      0.101200
     20 HB2         3.1240    2.1970    2.2720 hc        1 ECQ      0.101200
     21 HG          3.6850   -0.3630    1.6780 hc        1 ECQ      0.087700
     22 HAH         1.1300   -1.0140   -1.2680 hn        1 ECQ      0.358500
     23 HAE1        3.4800   -0.1990   -1.8750 h1        1 ECQ      0.072700
     24 HAE2        2.2880    1.1820   -1.8660 h1        1 ECQ      0.072700
     25 HD11        4.5960    0.8260   -0.0920 hc        1 ECQ      0.078200
     26 HD12        3.3260    2.1100    0.0070 hc        1 ECQ      0.078200
     27 H           1.2370    2.5250    4.3400 h1        1 ECQ      0.062700
     28 HO          3.2640    3.4610    5.1840 ho        1 ECQ      0.441000
     29 HN3         1.6470   -1.1190    3.2550 hn        1 ECQ      0.468133
@<TRIPOS>BOND
     1    1    2 2   
     2    2    3 1   
     3    2    6 1   
     4    3    4 1   
     5    3    7 1   
     6    3   21 1   
     7    4    5 1   
     8    4   25 1   
     9    4   26 1   
    10    5    6 1   
    11    5   23 1   
    12    5   24 1   
    13    6   22 1   
    14    7    8 1   
    15    7   19 1   
    16    7   20 1   
    17    8    9 1   
    18    8   10 1   
    19    8   15 1   
    20    9   13 1   
    21    9   14 1   
    22    9   29 1   
    23   10   11 1   
    24   10   12 1   
    25   10   27 1   
    26   11   28 1   
    27   12   16 1   
    28   12   17 1   
    29   12   18 1   
@<TRIPOS>SUBSTRUCTURE
     1 ECQ         1 TEMP              0 ****  ****    0 ROOT
