@<TRIPOS>MOLECULE
ECS
   45    48     1     0     0
SMALL
bcc


@<TRIPOS>ATOM
      1 C1          0.0200    0.0560   -0.1200 ca        1 ECS     -0.134000
      2 C10         1.4170   -0.0150   -0.0710 ca        1 ECS     -0.059300
      3 C11         1.5340    0.4760   -2.5450 c3        1 ECS     -0.072400
      4 C12         2.3710    0.4320   -3.8140 c3        1 ECS     -0.063400
      5 C13         3.7660    0.9790   -3.5700 c3        1 ECS     -0.044000
      6 C14         4.3960    0.1500   -2.4260 c3        1 ECS     -0.066700
      7 C15         5.8820    0.4760   -2.4970 c3        1 ECS     -0.068400
      8 C16         6.1610    0.6780   -3.9880 c3        1 ECS     -0.117400
      9 C17         4.7920    0.7250   -4.7020 c3        1 ECS      0.141100
     10 C18         3.7080    2.4710   -3.2870 c3        1 ECS     -0.077100
     11 C2         -0.7300    0.1430    1.0560 ca        1 ECS      0.108100
     12 C3         -0.0730    0.1550    2.3040 ca        1 ECS      0.039100
     13 C4          1.3180    0.0830    2.3570 ca        1 ECS     -0.173000
     14 C5          2.0670   -0.0020    1.1760 ca        1 ECS     -0.072300
     15 C6          3.5500   -0.0460    1.3170 c3        1 ECS     -0.031100
     16 C7          4.2760   -0.3760    0.0300 c3        1 ECS     -0.073400
     17 C8          3.6400    0.3600   -1.1340 c3        1 ECS     -0.047700
     18 C9          2.2070   -0.1650   -1.3350 c3        1 ECS     -0.011400
     19 O17         4.7200    1.7620   -5.6630 oh        1 ECS     -0.591800
     20 O3         -0.8780    0.2390    3.4220 oh        1 ECS     -0.518100
     21 O2         -2.0980    0.2110    0.9310 oh        1 ECS     -0.496100
     22 H1         -0.5220    0.0440   -1.0770 ha        1 ECS      0.154000
     23 H9          2.2790   -1.2760   -1.5410 hc        1 ECS      0.056700
     24 H111        1.2730    1.5390   -2.3020 hc        1 ECS      0.045700
     25 H112        0.5730   -0.0650   -2.7580 hc        1 ECS      0.045700
     26 H121        1.8630    1.0330   -4.6130 hc        1 ECS      0.045700
     27 H122        2.4420   -0.6260   -4.1800 hc        1 ECS      0.045700
     28 H14         4.2910   -0.9420   -2.7000 hc        1 ECS      0.045700
     29 H17         4.5770   -0.2590   -5.2030 h1        1 ECS      0.034700
     30 H181        3.3410    3.0060   -4.1970 hc        1 ECS      0.041033
     31 H182        4.7270    2.8550   -3.0410 hc        1 ECS      0.041033
     32 H183        3.0210    2.7010   -2.4390 hc        1 ECS      0.041033
     33 H151        6.1150    1.4050   -1.9190 hc        1 ECS      0.045200
     34 H152        6.5000   -0.3530   -2.0750 hc        1 ECS      0.045200
     35 H8          3.6040    1.4560   -0.8860 hc        1 ECS      0.063700
     36 H161        6.7790   -0.1590   -4.3940 hc        1 ECS      0.047200
     37 H162        6.7130    1.6340   -4.1610 hc        1 ECS      0.047200
     38 HA          5.4280    1.5940   -6.2970 ho        1 ECS      0.398000
     39 H2         -2.4750    0.2690    1.8230 ho        1 ECS      0.436000
     40 H4          1.8300    0.0920    3.3300 ha        1 ECS      0.133000
     41 H3         -0.3020    0.2440    4.1990 ho        1 ECS      0.428000
     42 H6C1        3.8280   -0.8010    2.1020 hc        1 ECS      0.048700
     43 H6C2        3.8950    0.9580    1.6880 hc        1 ECS      0.048700
     44 H7C1        5.3540   -0.0820    0.1200 hc        1 ECS      0.044700
     45 H7C2        4.2450   -1.4820   -0.1570 hc        1 ECS      0.044700
@<TRIPOS>BOND
     1    1    2 ar  
     2    1   11 ar  
     3    1   22 1   
     4    2   14 ar  
     5    2   18 1   
     6    3    4 1   
     7    3   18 1   
     8    3   24 1   
     9    3   25 1   
    10    4    5 1   
    11    4   26 1   
    12    4   27 1   
    13    5    6 1   
    14    5    9 1   
    15    5   10 1   
    16    6    7 1   
    17    6   17 1   
    18    6   28 1   
    19    7    8 1   
    20    7   33 1   
    21    7   34 1   
    22    8    9 1   
    23    8   36 1   
    24    8   37 1   
    25    9   19 1   
    26    9   29 1   
    27   10   30 1   
    28   10   31 1   
    29   10   32 1   
    30   11   12 ar  
    31   11   21 1   
    32   12   13 ar  
    33   12   20 1   
    34   13   14 ar  
    35   13   40 1   
    36   14   15 1   
    37   15   16 1   
    38   15   42 1   
    39   15   43 1   
    40   16   17 1   
    41   16   44 1   
    42   16   45 1   
    43   17   18 1   
    44   17   35 1   
    45   18   23 1   
    46   19   38 1   
    47   20   41 1   
    48   21   39 1   
@<TRIPOS>SUBSTRUCTURE
     1 ECS         1 TEMP              0 ****  ****    0 ROOT
