@<TRIPOS>MOLECULE
ECS
   45    48     1     0     0
SMALL
bcc


@<TRIPOS>ATOM
      1 C1          2.2250    0.0320   -0.0060 ca        1 ECS     -0.169000
      2 C10         3.3890   -0.7440   -0.0720 ca        1 ECS     -0.064300
      3 C11         4.7990    1.3150    0.3160 c3        1 ECS     -0.070400
      4 C12         6.1780    1.9500    0.2220 c3        1 ECS     -0.063400
      5 C13         7.2450    1.0280    0.7850 c3        1 ECS     -0.044000
      6 C14         7.1630   -0.3060    0.0060 c3        1 ECS     -0.066700
      7 C15         8.4690   -1.0170    0.3360 c3        1 ECS     -0.068400
      8 C16         9.4950    0.1100    0.4780 c3        1 ECS     -0.117400
      9 C17         8.7090    1.4390    0.4890 c3        1 ECS      0.141100
     10 C18         7.0740    0.8730    2.2870 c3        1 ECS     -0.077100
     11 C2          0.9760   -0.5740    0.1270 ca        1 ECS      0.037100
     12 C3          0.8700   -1.9790    0.1910 ca        1 ECS      0.111100
     13 C4          2.0290   -2.7550    0.1230 ca        1 ECS     -0.138000
     14 C5          3.2830   -2.1450   -0.0070 ca        1 ECS     -0.067300
     15 C6          4.4700   -3.0460   -0.0430 c3        1 ECS     -0.033100
     16 C7          5.7580   -2.3470   -0.4220 c3        1 ECS     -0.073400
     17 C8          5.8440   -0.9970    0.2650 c3        1 ECS     -0.047700
     18 C9          4.7220   -0.0910   -0.2730 c3        1 ECS     -0.010400
     19 O17         9.1710    2.3340    1.4840 oh        1 ECS     -0.591800
     20 O3         -0.3320   -2.6350    0.3180 oh        1 ECS     -0.496100
     21 O2         -0.2090    0.1320    0.2000 oh        1 ECS     -0.518100
     22 H1          2.2780    1.1290   -0.0590 ha        1 ECS      0.136000
     23 H9          4.8710    0.0050   -1.3900 hc        1 ECS      0.056700
     24 H111        4.4690    1.2850    1.3870 hc        1 ECS      0.042200
     25 H112        4.0850    1.9820   -0.2370 hc        1 ECS      0.042200
     26 H121        6.4120    2.1830   -0.8500 hc        1 ECS      0.045200
     27 H122        6.1780    2.9180    0.7880 hc        1 ECS      0.045200
     28 H14         7.1980   -0.0580   -1.0970 hc        1 ECS      0.045700
     29 H17         8.7710    1.9410   -0.5160 h1        1 ECS      0.033700
     30 H181        7.2490    1.8600    2.7830 hc        1 ECS      0.041367
     31 H182        6.0480    0.5220    2.5490 hc        1 ECS      0.041367
     32 H183        7.8180    0.1430    2.6850 hc        1 ECS      0.041367
     33 H151        8.7570   -1.7310   -0.4730 hc        1 ECS      0.045200
     34 H152        8.3790   -1.5960    1.2880 hc        1 ECS      0.045200
     35 H8          5.7030   -1.1490    1.3700 hc        1 ECS      0.064700
     36 H161       10.0710    0.0020    1.4300 hc        1 ECS      0.048200
     37 H162       10.2210    0.0980   -0.3700 hc        1 ECS      0.048200
     38 HA         10.1060    2.4840    1.3010 ho        1 ECS      0.399000
     39 H2          0.0060    1.0740    0.1540 ho        1 ECS      0.428000
     40 H4          1.9430   -3.8500    0.1730 ha        1 ECS      0.151000
     41 H3         -1.0330   -1.9660    0.3540 ho        1 ECS      0.436000
     42 H6C1        4.5850   -3.5080    0.9770 hc        1 ECS      0.051700
     43 H6C2        4.2780   -3.8850   -0.7640 hc        1 ECS      0.051700
     44 H7C1        6.6330   -2.9810   -0.1200 hc        1 ECS      0.044200
     45 H7C2        5.8100   -2.2120   -1.5340 hc        1 ECS      0.044200
@<TRIPOS>BOND
     1    1    2 ar  
     2    1   11 ar  
     3    1   22 1   
     4    2   14 ar  
     5    2   18 1   
     6    3    4 1   
     7    3   18 1   
     8    3   24 1   
     9    3   25 1   
    10    4    5 1   
    11    4   26 1   
    12    4   27 1   
    13    5    6 1   
    14    5    9 1   
    15    5   10 1   
    16    6    7 1   
    17    6   17 1   
    18    6   28 1   
    19    7    8 1   
    20    7   33 1   
    21    7   34 1   
    22    8    9 1   
    23    8   36 1   
    24    8   37 1   
    25    9   19 1   
    26    9   29 1   
    27   10   30 1   
    28   10   31 1   
    29   10   32 1   
    30   11   12 ar  
    31   11   21 1   
    32   12   13 ar  
    33   12   20 1   
    34   13   14 ar  
    35   13   40 1   
    36   14   15 1   
    37   15   16 1   
    38   15   42 1   
    39   15   43 1   
    40   16   17 1   
    41   16   44 1   
    42   16   45 1   
    43   17   18 1   
    44   17   35 1   
    45   18   23 1   
    46   19   38 1   
    47   20   41 1   
    48   21   39 1   
@<TRIPOS>SUBSTRUCTURE
     1 ECS         1 TEMP              0 ****  ****    0 ROOT
