@<TRIPOS>MOLECULE
ECS
   45    45     1     0     0
SMALL
bcc


@<TRIPOS>ATOM
      1 C1         -2.8140   -0.7280    1.3800 c1        1 ECS     -0.076500
      2 C10        -1.4440   -0.7280    1.3800 c1        1 ECS     -0.025100
      3 C11        -1.4240   -0.2340   -1.1750 c3        1 ECS     -0.072400
      4 C12        -0.5060   -0.1730   -2.5310 c3        1 ECS     -0.063400
      5 C13         0.8100    0.5010   -2.2830 c3        1 ECS     -0.044000
      6 C14         1.6190   -0.1310   -0.9940 c3        1 ECS     -0.066700
      7 C15         2.6710    0.6520   -0.9280 c3        1 ECS     -0.068400
      8 C16         3.0790    0.7910   -2.5000 c3        1 ECS     -0.117400
      9 C17         1.6740    0.3430   -3.2390 c3        1 ECS      0.141100
     10 C18         0.5810    1.9790   -2.0550 c3        1 ECS     -0.077100
     11 C2         -3.5240   -0.7280    2.6110 c1        1 ECS      0.057100
     12 C3         -2.7990   -0.7280    3.8740 c1        1 ECS      0.057100
     13 C4         -1.3770   -0.7280    3.8810 c1        1 ECS     -0.115500
     14 C5         -0.6870   -0.7280    2.7000 c1        1 ECS     -0.038100
     15 C6          0.9470   -0.7410    2.6600 c3        1 ECS     -0.065300
     16 C7          1.5560   -0.6680    1.3970 c3        1 ECS     -0.073400
     17 C8          0.7500   -0.1560    0.3150 c3        1 ECS     -0.047700
     18 C9         -0.6310   -0.8490    0.0620 c3        1 ECS     -0.045600
     19 O17         1.3810    1.2010   -4.3350 oh        1 ECS     -0.591800
     20 O3         -3.5070   -0.7440    5.0900 oh        1 ECS     -0.490600
     21 O2         -4.9310   -0.7440    2.6090 oh        1 ECS     -0.490600
     22 H1         -3.3020   -0.7280    0.5350 ha        1 ECS      0.096500
     23 H9         -0.4720   -1.7960   -0.1150 hc        1 ECS      0.056700
     24 H111       -2.2110   -0.7840   -1.3510 hc        1 ECS      0.045700
     25 H112       -1.7130    0.6700   -0.9480 hc        1 ECS      0.045700
     26 H121       -0.9900    0.3200   -3.2210 hc        1 ECS      0.045700
     27 H122       -0.3430   -1.0820   -2.8460 hc        1 ECS      0.045700
     28 H14         1.9070   -1.0390   -1.2070 hc        1 ECS      0.045700
     29 H17         1.7130   -0.5900   -3.5230 h1        1 ECS      0.034700
     30 H181        0.1120    2.1090   -1.2080 hc        1 ECS      0.041033
     31 H182        1.4400    2.4410   -2.0250 hc        1 ECS      0.041033
     32 H183        0.0420    2.3410   -2.7840 hc        1 ECS      0.041033
     33 H151        2.4350    1.5210   -0.5510 hc        1 ECS      0.045200
     34 H152        3.3880    0.2300   -0.4180 hc        1 ECS      0.045200
     35 H8          0.5530    0.7740    0.5360 hc        1 ECS      0.063700
     36 H161        3.8050    0.1800   -2.7280 hc        1 ECS      0.047200
     37 H162        3.3120    1.7130   -2.7200 hc        1 ECS      0.047200
     38 HA          1.7460    0.8710   -5.0750 ho        1 ECS      0.398000
     39 H2         -5.2370    0.0890    2.6040 ho        1 ECS      0.432000
     40 H4         -0.8930   -0.7280    4.7290 ha        1 ECS      0.075500
     41 H3         -3.4310    0.0460    5.4870 ho        1 ECS      0.432000
     42 H6C1        1.2510   -1.5620    3.0920 hc        1 ECS      0.048700
     43 H6C2        1.2660    0.0150    3.1890 hc        1 ECS      0.048700
     44 H7C1        2.3470   -0.1020    1.4770 hc        1 ECS      0.044700
     45 H7C2        1.8500   -1.5670    1.1530 hc        1 ECS      0.044700
@<TRIPOS>BOND
     1    1    2 3   
     2    1   22 1   
     3    2   18 1   
     4    3    4 1   
     5    3   18 1   
     6    3   24 1   
     7    3   25 1   
     8    4    5 1   
     9    4   26 1   
    10    4   27 1   
    11    5    6 1   
    12    5    9 1   
    13    5   10 1   
    14    6    7 1   
    15    6   17 1   
    16    6   28 1   
    17    7    8 1   
    18    7   33 1   
    19    7   34 1   
    20    8    9 1   
    21    8   36 1   
    22    8   37 1   
    23    9   19 1   
    24    9   29 1   
    25   10   30 1   
    26   10   31 1   
    27   10   32 1   
    28   11   12 3   
    29   11   21 1   
    30   12   20 1   
    31   13   14 3   
    32   13   40 1   
    33   14   15 1   
    34   15   16 1   
    35   15   42 1   
    36   15   43 1   
    37   16   17 1   
    38   16   44 1   
    39   16   45 1   
    40   17   18 1   
    41   17   35 1   
    42   18   23 1   
    43   19   38 1   
    44   20   41 1   
    45   21   39 1   
@<TRIPOS>SUBSTRUCTURE
     1 ECS         1 TEMP              0 ****  ****    0 ROOT
