@<TRIPOS>MOLECULE
ECX
   19    18     1     0     0
SMALL
bcc


@<TRIPOS>ATOM
      1 C          -2.2550    0.4410    0.1100 c         1 ECX      0.890600
      2 N          -1.2370   -1.8920    0.1190 n3        1 ECX     -0.883800
      3 O          -3.3650   -0.1290   -0.0820 o         1 ECX     -0.837300
      4 CA         -0.9970   -0.4740    0.3490 c3        1 ECX      0.022500
      5 CB          0.1490    0.0920   -0.4720 c3        1 ECX      0.030700
      6 SC          1.7130   -0.5470    0.0940 ss        1 ECX     -0.349200
      7 CD          2.8120    0.7240   -0.4620 c3        1 ECX     -0.017300
      8 CE          4.2020    0.3840   -0.0120 c3        1 ECX     -0.075100
      9 OXT        -2.0830    1.6900    0.1460 o         1 ECX     -0.837300
     10 H          -2.1350   -2.1080    0.5230 hn        1 ECX      0.332300
     11 H2         -1.3280   -2.0470   -0.8700 hn        1 ECX      0.332300
     12 HA         -0.7400   -0.3660    1.4440 h1        1 ECX      0.059700
     13 HB2         0.0290   -0.1500   -1.5550 h1        1 ECX      0.067700
     14 HB3         0.1320    1.2060   -0.3560 h1        1 ECX      0.067700
     15 HD          2.7700    0.8060   -1.5750 h1        1 ECX      0.049700
     16 HDA         2.4940    1.7120   -0.0450 h1        1 ECX      0.049700
     17 HE          4.2520    0.3210    1.1030 hc        1 ECX      0.031700
     18 HEA         4.5250   -0.5990   -0.4330 hc        1 ECX      0.031700
     19 HEB         4.9230    1.1670   -0.3520 hc        1 ECX      0.031700
@<TRIPOS>BOND
     1    1    3 1   
     2    1    4 1   
     3    1    9 1   
     4    2    4 1   
     5    2   10 1   
     6    2   11 1   
     7    4    5 1   
     8    4   12 1   
     9    5    6 1   
    10    5   13 1   
    11    5   14 1   
    12    6    7 1   
    13    7    8 1   
    14    7   15 1   
    15    7   16 1   
    16    8   17 1   
    17    8   18 1   
    18    8   19 1   
@<TRIPOS>SUBSTRUCTURE
     1 ECX         1 TEMP              0 ****  ****    0 ROOT
