@<TRIPOS>MOLECULE
ED1
  101   106     1     0     0
SMALL
bcc


@<TRIPOS>ATOM
      1 NAE        -1.4130    1.2740   -3.3890 n1        1 ED1     -0.373800
      2 CAK        -0.9450    1.0030   -2.3580 cg        1 ED1      0.241800
      3 CBN        -0.3750    0.6700   -1.1030 ca        1 ED1     -0.071000
      4 CAQ         0.8980    1.1390   -0.7510 ca        1 ED1     -0.048500
      5 CAU         1.4560    0.8170    0.4780 ca        1 ED1     -0.212000
      6 CAR        -1.0770   -0.1360   -0.1970 ca        1 ED1     -0.048500
      7 CAV        -0.5250   -0.4690    1.0310 ca        1 ED1     -0.212000
      8 CBQ         0.7600    0.0030    1.4100 ca        1 ED1      0.207600
      9 NBW         1.3400   -0.3800    2.6220 nh        1 ED1     -0.684000
     10 CBH         0.5150   -0.6480    3.7820 c3        1 ED1      0.289100
     11 CBR         0.7880   -1.9650    4.4230 cc        1 ED1     -0.233900
     12 NBY         0.5590   -3.2290    3.8620 na        1 ED1     -0.181900
     13 CAA         0.0020   -3.5240    2.5840 c3        1 ED1      0.015600
     14 CAX         0.9450   -4.1690    4.8290 cc        1 ED1      0.391400
     15 NBJ         1.4030   -3.5700    5.9510 nd        1 ED1     -0.676000
     16 CAW         1.3140   -2.2030    5.7120 cd        1 ED1      0.290200
     17 CBF         2.7210   -0.0640    2.9040 c3        1 ED1      0.201800
     18 CBG         2.9800    1.3810    3.4040 c3        1 ED1      0.131800
     19 NBX         4.3810    1.6080    3.6870 n3        1 ED1     -0.850200
     20 CBI         5.2370    1.8130    2.5390 c3        1 ED1      0.152800
     21 CBU         5.4820    3.2650    2.0990 c3        1 ED1     -0.098700
     22 CBB         4.2150    3.9280    1.5900 c3        1 ED1     -0.105900
     23 CBD         4.5000    5.3150    1.0110 c3        1 ED1      0.069500
     24 NBV         5.5800    5.3540    0.0390 n         1 ED1     -0.402800
     25 CBM         5.2060    5.2910   -1.3110 c         1 ED1      0.728100
     26 OBK         6.2280    4.9470   -2.1630 os        1 ED1     -0.445900
     27 CBZ         6.0590    5.1370   -3.5930 c3        1 ED1      0.184800
     28 CAB         4.9910    4.2020   -4.1350 c3        1 ED1     -0.113100
     29 CAD         5.7510    6.5890   -3.9160 c3        1 ED1     -0.113100
     30 CAC         7.4310    4.7500   -4.1440 c3        1 ED1     -0.113100
     31 OAG         4.0870    5.5820   -1.7680 o         1 ED1     -0.592000
     32 CBE         6.7880    4.6820    0.4800 c3        1 ED1      0.069500
     33 CBC         6.5610    3.2720    1.0260 c3        1 ED1     -0.105900
     34 SCA         6.8440    1.4300    6.0610 sy        1 ED1      1.379300
     35 OAI         7.4810    1.1100    4.8590 o         1 ED1     -0.652300
     36 OAH         5.9870    2.5340    6.0180 o         1 ED1     -0.652300
     37 CBT         6.1570    0.0960    6.8070 ca        1 ED1     -0.370500
     38 CAT         5.2000   -0.7670    6.2880 ca        1 ED1      0.014000
     39 CAM         4.7300   -1.8380    7.0570 ca        1 ED1     -0.155000
     40 CAL         5.2260   -2.0520    8.3400 ca        1 ED1     -0.061000
     41 CAS         6.1930   -1.1950    8.8820 ca        1 ED1     -0.129000
     42 CBS         6.6480   -0.1300    8.1190 ca        1 ED1      0.026200
     43 CBP         7.6230    0.8850    8.5130 ce        1 ED1     -0.035400
     44 CAY         7.9970    1.2100    9.7570 c2        1 ED1     -0.121200
     45 CAP         8.0800    1.6390    7.3010 c3        1 ED1     -0.192500
     46 CAN         8.4860    3.0220    7.6350 c2        1 ED1     -0.088200
     47 CAO         8.8640    3.3710    8.8680 c2        1 ED1     -0.170200
     48 CBO         8.8450    2.4180   10.0280 c3        1 ED1      0.219200
     49 CBA         8.3920    3.1310   11.3300 c3        1 ED1     -0.103400
     50 CAZ         9.5780    3.0580   12.2800 c3        1 ED1     -0.174400
     51 CBL        10.6370    2.3140   11.5170 c         1 ED1      0.711600
     52 OAF        11.7770    1.9780   11.8130 o         1 ED1     -0.562500
     53 OAJ        10.2120    1.9610   10.2520 os        1 ED1     -0.397900
     54 HAQ         1.4600    1.7760   -1.4520 ha        1 ED1      0.145500
     55 HAU         2.4560    1.2140    0.7130 ha        1 ED1      0.139000
     56 HAR        -2.0770   -0.5130   -0.4630 ha        1 ED1      0.145500
     57 HAV        -1.1050   -1.1240    1.6980 ha        1 ED1      0.139000
     58 HBH         0.7130    0.1400    4.5710 h1        1 ED1      0.062200
     59 HBHA       -0.5790   -0.5830    3.5150 h1        1 ED1      0.062200
     60 HAA        -1.1040   -3.3210    2.5880 h1        1 ED1      0.060367
     61 HAAA        0.4830   -2.8860    1.7930 h1        1 ED1      0.060367
     62 HAAB        0.1730   -4.6060    2.3410 h1        1 ED1      0.060367
     63 HAX         0.8740   -5.2480    4.6620 h5        1 ED1      0.063100
     64 HAW         1.6130   -1.4690    6.4590 h4        1 ED1      0.041100
     65 HBF         3.0680   -0.7870    3.7000 h1        1 ED1      0.064700
     66 HBFA        3.3280   -0.2630    1.9760 h1        1 ED1      0.064700
     67 HBG         2.5660    2.1060    2.6440 h1        1 ED1      0.035700
     68 HBGA        2.4070    1.5370    4.3610 h1        1 ED1      0.035700
     69 HBI         6.2410    1.3720    2.8220 h1        1 ED1      0.061700
     70 HBIA        4.8390    1.2350    1.6590 h1        1 ED1      0.061700
     71 HBU         5.8590    3.8530    2.9830 hc        1 ED1      0.061700
     72 HBB         3.7330    3.2810    0.8110 hc        1 ED1      0.051950
     73 HBBA        3.4840    4.0520    2.4320 hc        1 ED1      0.051950
     74 HBD         3.5610    5.7220    0.5400 h1        1 ED1      0.068950
     75 HBDA        4.8080    6.0040    1.8490 h1        1 ED1      0.068950
     76 HAB         5.0090    4.2260   -5.2500 hc        1 ED1      0.051367
     77 HABA        5.1850    3.1590   -3.7900 hc        1 ED1      0.051367
     78 HABB        3.9790    4.5170   -3.7810 hc        1 ED1      0.051367
     79 HAD         4.7260    6.8590   -3.5640 hc        1 ED1      0.051367
     80 HADA        5.8070    6.7420   -5.0200 hc        1 ED1      0.051367
     81 HADB        6.4920    7.2580   -3.4170 hc        1 ED1      0.051367
     82 HAC         7.4170    4.8500   -5.2550 hc        1 ED1      0.051367
     83 HACA        8.2180    5.4180   -3.7220 hc        1 ED1      0.051367
     84 HACB        7.6720    3.6960   -3.8720 hc        1 ED1      0.051367
     85 HBE         7.5300    4.6410   -0.3650 h1        1 ED1      0.068950
     86 HBEA        7.2230    5.3230    1.3000 h1        1 ED1      0.068950
     87 HBC         6.2710    2.5820    0.1910 hc        1 ED1      0.051950
     88 HBCA        7.5260    2.8980    1.4570 hc        1 ED1      0.051950
     89 HAT         4.8060   -0.6100    5.2680 ha        1 ED1      0.161000
     90 HAM         3.9620   -2.5120    6.6420 ha        1 ED1      0.163000
     91 HAL         4.8560   -2.9010    8.9370 ha        1 ED1      0.145000
     92 HAS         6.5860   -1.3690    9.8940 ha        1 ED1      0.145000
     93 HAY         7.6830    0.6260   10.6340 ha        1 ED1      0.143000
     94 HAP         9.0210    1.1240    6.9260 h1        1 ED1      0.151700
     95 HAN         8.4860    3.7440    6.8020 ha        1 ED1      0.146000
     96 HAO         9.2200    4.3870    9.0970 ha        1 ED1      0.142000
     97 HBA         8.1110    4.1910   11.1160 hc        1 ED1      0.069700
     98 HBAA        7.4960    2.6230   11.7640 hc        1 ED1      0.069700
     99 HAZ         9.3300    2.5060   13.2220 hc        1 ED1      0.090200
    100 HAZA        9.9550    4.0730   12.5610 hc        1 ED1      0.090200
    101 HBX1        4.4820    2.3650    4.3430 hn        1 ED1      0.393800
@<TRIPOS>BOND
     1    1    2 3   
     2    2    3 1   
     3    3    4 ar  
     4    3    6 ar  
     5    4    5 ar  
     6    4   54 1   
     7    5    8 ar  
     8    5   55 1   
     9    6    7 ar  
    10    6   56 1   
    11    7    8 ar  
    12    7   57 1   
    13    8    9 1   
    14    9   10 1   
    15    9   17 1   
    16   10   11 1   
    17   10   58 1   
    18   10   59 1   
    19   11   12 1   
    20   11   16 2   
    21   12   13 1   
    22   12   14 1   
    23   13   60 1   
    24   13   61 1   
    25   13   62 1   
    26   14   15 2   
    27   14   63 1   
    28   15   16 1   
    29   16   64 1   
    30   17   18 1   
    31   17   65 1   
    32   17   66 1   
    33   18   19 1   
    34   18   67 1   
    35   18   68 1   
    36   19   20 1   
    37   19  101 1   
    38   20   21 1   
    39   20   69 1   
    40   20   70 1   
    41   21   22 1   
    42   21   33 1   
    43   21   71 1   
    44   22   23 1   
    45   22   72 1   
    46   22   73 1   
    47   23   24 1   
    48   23   74 1   
    49   23   75 1   
    50   24   25 1   
    51   24   32 1   
    52   25   26 1   
    53   25   31 2   
    54   26   27 1   
    55   27   28 1   
    56   27   29 1   
    57   27   30 1   
    58   28   76 1   
    59   28   77 1   
    60   28   78 1   
    61   29   79 1   
    62   29   80 1   
    63   29   81 1   
    64   30   82 1   
    65   30   83 1   
    66   30   84 1   
    67   32   33 1   
    68   32   85 1   
    69   32   86 1   
    70   33   87 1   
    71   33   88 1   
    72   34   35 2   
    73   34   36 2   
    74   34   37 1   
    75   34   45 1   
    76   37   38 ar  
    77   37   42 ar  
    78   38   39 ar  
    79   38   89 1   
    80   39   40 ar  
    81   39   90 1   
    82   40   41 ar  
    83   40   91 1   
    84   41   42 ar  
    85   41   92 1   
    86   42   43 1   
    87   43   44 2   
    88   43   45 1   
    89   44   48 1   
    90   44   93 1   
    91   45   46 1   
    92   45   94 1   
    93   46   47 2   
    94   46   95 1   
    95   47   48 1   
    96   47   96 1   
    97   48   49 1   
    98   48   53 1   
    99   49   50 1   
   100   49   97 1   
   101   49   98 1   
   102   50   51 1   
   103   50   99 1   
   104   50  100 1   
   105   51   52 2   
   106   51   53 1   
@<TRIPOS>SUBSTRUCTURE
     1 ED1         1 TEMP              0 ****  ****    0 ROOT
