@<TRIPOS>MOLECULE
ED1
  100   104     1     0     0
SMALL
bcc


@<TRIPOS>ATOM
      1 NAE        -6.8440   -4.8460    2.7140 n1        1 ED1     -0.387800
      2 CAK        -5.7920   -4.5380    2.3230 cg        1 ED1      0.248800
      3 CBN        -4.5100   -4.1670    1.8450 ca        1 ED1     -0.087000
      4 CAQ        -4.3120   -2.9270    1.2220 ca        1 ED1     -0.043000
      5 CAU        -3.0610   -2.5630    0.7500 ca        1 ED1     -0.223500
      6 CAR        -3.4200   -5.0350    1.9880 ca        1 ED1     -0.043000
      7 CAV        -2.1650   -4.6840    1.5130 ca        1 ED1     -0.223500
      8 CBQ        -1.9410   -3.4320    0.8770 ca        1 ED1      0.227600
      9 NBW        -0.6990   -3.0870    0.3560 nh        1 ED1     -0.683000
     10 CBH         0.5230   -3.7500    0.7610 c3        1 ED1      0.293100
     11 CBR         1.2290   -4.4520   -0.3470 cc        1 ED1     -0.250900
     12 NBY         0.7830   -5.5900   -1.0360 na        1 ED1     -0.189900
     13 CAA        -0.4070   -6.3360   -0.8050 c3        1 ED1      0.018600
     14 CAX         1.7790   -5.9020   -1.9720 cc        1 ED1      0.386400
     15 NBJ         2.8080   -5.0270   -1.9170 nd        1 ED1     -0.663000
     16 CAW         2.4800   -4.1210   -0.9150 cd        1 ED1      0.316200
     17 CBF        -0.5200   -1.8540   -0.3740 c3        1 ED1      0.185800
     18 CBG        -0.3910   -0.5950    0.5260 c3        1 ED1      0.185800
     19 NBX        -0.2030    0.6250   -0.2070 n3        1 ED1     -0.803500
     20 CBI        -1.3450    1.1630   -0.8940 c3        1 ED1      0.231800
     21 CBU        -2.1270    2.2590   -0.1480 c3        1 ED1     -0.096700
     22 CBB        -2.8070    1.7200    1.0980 c3        1 ED1     -0.103400
     23 CBD        -3.7190    2.7680    1.7380 c3        1 ED1      0.068500
     24 NBV        -4.6510    3.4020    0.8190 n         1 ED1     -0.399800
     25 CBM        -5.9440    2.8620    0.7690 c         1 ED1      0.727100
     26 OBK        -6.6540    3.2030   -0.3590 os        1 ED1     -0.447900
     27 CBZ        -8.0860    2.9770   -0.3940 c3        1 ED1      0.184800
     28 CAB        -8.3960    1.4890   -0.3790 c3        1 ED1     -0.113100
     29 CAD        -8.7810    3.7050    0.7450 c3        1 ED1     -0.113100
     30 CAC        -8.4900    3.5870   -1.7360 c3        1 ED1     -0.113100
     31 OAG        -6.4900    2.1940    1.6640 o         1 ED1     -0.593000
     32 CBE        -4.0290    3.8840   -0.4010 c3        1 ED1      0.068500
     33 CBC        -3.1500    2.8520   -1.1070 c3        1 ED1     -0.103400
     34 SCA         1.2330    1.4450   -0.1620 sy        1 ED1      1.499200
     35 OAI         0.9520    2.8050   -0.4230 o         1 ED1     -0.642300
     36 OAH         1.8420    1.1350    1.0680 o         1 ED1     -0.642300
     37 CBT         2.1380    0.8120   -1.4510 ca        1 ED1     -0.366500
     38 CAT         1.5410    0.0590   -2.4770 ca        1 ED1     -0.045000
     39 CAM         2.2770   -0.4960   -3.5130 ca        1 ED1     -0.166000
     40 CAL         3.6620   -0.3090   -3.5540 ca        1 ED1     -0.066000
     41 CAS         4.2760    0.4520   -2.5720 ca        1 ED1     -0.146000
     42 CBS         3.5270    1.0340   -1.5300 cp        1 ED1      0.117000
     43 CBP         4.2790    1.8620   -0.5820 cp        1 ED1     -0.113000
     44 CAY         5.3930    1.3100    0.0680 ca        1 ED1     -0.104000
     45 CAP         3.9620    3.2130   -0.3880 ca        1 ED1     -0.137000
     46 CAN         4.7550    3.9930    0.4540 ca        1 ED1     -0.131000
     47 CAO         5.8580    3.4410    1.0990 ca        1 ED1     -0.110000
     48 CBO         6.1880    2.0910    0.9130 ca        1 ED1     -0.040300
     49 CBA         7.3790    1.5090    1.5900 c3        1 ED1     -0.041100
     50 CAZ         8.6720    1.9010    0.9080 c3        1 ED1     -0.193400
     51 CBL         9.8870    1.5240    1.7790 c         1 ED1      0.908600
     52 OAF         9.8290    1.7560    3.0210 o         1 ED1     -0.846300
     53 OAJ        10.8880    1.0180    1.1970 o         1 ED1     -0.846300
     54 HAQ        -5.1570   -2.2290    1.1110 ha        1 ED1      0.142500
     55 HAU        -2.9550   -1.5730    0.2780 ha        1 ED1      0.139000
     56 HAR        -3.5580   -6.0100    2.4810 ha        1 ED1      0.142500
     57 HAV        -1.3490   -5.4110    1.6380 ha        1 ED1      0.139000
     58 HBH         1.2410   -2.9690    1.1590 h1        1 ED1      0.070700
     59 HBHA        0.3240   -4.4740    1.6010 h1        1 ED1      0.070700
     60 HAA        -1.2910   -5.6450   -0.7310 h1        1 ED1      0.055700
     61 HAAA       -0.5700   -7.0550   -1.6510 h1        1 ED1      0.055700
     62 HAAB       -0.3230   -6.9160    0.1550 h1        1 ED1      0.055700
     63 HAX         1.7000   -6.7550   -2.6540 h5        1 ED1      0.058100
     64 HAW         3.1430   -3.2980   -0.6460 h4        1 ED1      0.053100
     65 HBF         0.4200   -1.9600   -0.9930 h1        1 ED1      0.062700
     66 HBFA       -1.3800   -1.7260   -1.0900 h1        1 ED1      0.062700
     67 HBG        -1.3170   -0.5120    1.1660 h1        1 ED1      0.069200
     68 HBGA        0.4880   -0.7350    1.2240 h1        1 ED1      0.069200
     69 HBI        -0.9820    1.6140   -1.8660 h1        1 ED1      0.044700
     70 HBIA       -2.0610    0.3300   -1.1490 h1        1 ED1      0.044700
     71 HBU        -1.4090    3.0760    0.1540 hc        1 ED1      0.090700
     72 HBB        -3.4010    0.8030    0.8420 hc        1 ED1      0.051200
     73 HBBA       -2.0360    1.4270    1.8580 hc        1 ED1      0.051200
     74 HBD        -4.2940    2.2960    2.5830 h1        1 ED1      0.071450
     75 HBDA       -3.0820    3.5990    2.1580 h1        1 ED1      0.071450
     76 HAB        -8.1570    1.0500    0.6200 hc        1 ED1      0.050700
     77 HABA       -9.4790    1.3330   -0.5950 hc        1 ED1      0.050700
     78 HABB       -7.7900    0.9650   -1.1560 hc        1 ED1      0.050700
     79 HAD        -8.4530    4.7710    0.7750 hc        1 ED1      0.050700
     80 HADA       -9.8850    3.6670    0.5900 hc        1 ED1      0.050700
     81 HADB       -8.5350    3.2250    1.7240 hc        1 ED1      0.050700
     82 HAC        -7.9490    3.0770   -2.5680 hc        1 ED1      0.050700
     83 HACA       -9.5880    3.4620   -1.8770 hc        1 ED1      0.050700
     84 HACB       -8.2350    4.6730   -1.7570 hc        1 ED1      0.050700
     85 HBE        -4.8190    4.2520   -1.1110 h1        1 ED1      0.071450
     86 HBEA       -3.3870    4.7620   -0.1000 h1        1 ED1      0.071450
     87 HBC        -2.6230    3.3600   -1.9560 hc        1 ED1      0.051200
     88 HBCA       -3.7880    2.0380   -1.5380 hc        1 ED1      0.051200
     89 HAT         0.4510   -0.1130   -2.4820 ha        1 ED1      0.126000
     90 HAM         1.7770   -1.0850   -4.2950 ha        1 ED1      0.133000
     91 HAL         4.2580   -0.7620   -4.3620 ha        1 ED1      0.138000
     92 HAS         5.3670    0.6160   -2.5950 ha        1 ED1      0.160000
     93 HAY         5.6450    0.2500   -0.0860 ha        1 ED1      0.135000
     94 HAP         3.0940    3.6610   -0.8960 ha        1 ED1      0.144000
     95 HAN         4.5020    5.0520    0.6050 ha        1 ED1      0.125000
     96 HAO         6.4880    4.0600    1.7570 ha        1 ED1      0.146000
     97 HBA         7.4260    1.8640    2.6580 hc        1 ED1      0.062200
     98 HBAA        7.2990    0.3900    1.6160 hc        1 ED1      0.062200
     99 HAZ         8.7580    1.4000   -0.0870 hc        1 ED1      0.024200
    100 HAZA        8.6990    3.0080    0.7450 hc        1 ED1      0.024200
@<TRIPOS>BOND
     1    1    2 3   
     2    2    3 1   
     3    3    4 ar  
     4    3    6 ar  
     5    4    5 ar  
     6    4   54 1   
     7    5    8 ar  
     8    5   55 1   
     9    6    7 ar  
    10    6   56 1   
    11    7    8 ar  
    12    7   57 1   
    13    8    9 1   
    14    9   10 1   
    15    9   17 1   
    16   10   11 1   
    17   10   58 1   
    18   10   59 1   
    19   11   12 1   
    20   11   16 2   
    21   12   13 1   
    22   12   14 1   
    23   13   60 1   
    24   13   61 1   
    25   13   62 1   
    26   14   15 2   
    27   14   63 1   
    28   15   16 1   
    29   16   64 1   
    30   17   18 1   
    31   17   65 1   
    32   17   66 1   
    33   18   19 1   
    34   18   67 1   
    35   18   68 1   
    36   19   20 1   
    37   19   34 1   
    38   20   21 1   
    39   20   69 1   
    40   20   70 1   
    41   21   22 1   
    42   21   33 1   
    43   21   71 1   
    44   22   23 1   
    45   22   72 1   
    46   22   73 1   
    47   23   24 1   
    48   23   74 1   
    49   23   75 1   
    50   24   25 1   
    51   24   32 1   
    52   25   26 1   
    53   25   31 2   
    54   26   27 1   
    55   27   28 1   
    56   27   29 1   
    57   27   30 1   
    58   28   76 1   
    59   28   77 1   
    60   28   78 1   
    61   29   79 1   
    62   29   80 1   
    63   29   81 1   
    64   30   82 1   
    65   30   83 1   
    66   30   84 1   
    67   32   33 1   
    68   32   85 1   
    69   32   86 1   
    70   33   87 1   
    71   33   88 1   
    72   34   35 2   
    73   34   36 2   
    74   34   37 1   
    75   37   38 ar  
    76   37   42 ar  
    77   38   39 ar  
    78   38   89 1   
    79   39   40 ar  
    80   39   90 1   
    81   40   41 ar  
    82   40   91 1   
    83   41   42 ar  
    84   41   92 1   
    85   42   43 1   
    86   43   44 ar  
    87   43   45 ar  
    88   44   48 ar  
    89   44   93 1   
    90   45   46 ar  
    91   45   94 1   
    92   46   47 ar  
    93   46   95 1   
    94   47   48 ar  
    95   47   96 1   
    96   48   49 1   
    97   49   50 1   
    98   49   97 1   
    99   49   98 1   
   100   50   51 1   
   101   50   99 1   
   102   50  100 1   
   103   51   52 1   
   104   51   53 1   
@<TRIPOS>SUBSTRUCTURE
     1 ED1         1 TEMP              0 ****  ****    0 ROOT
