@<TRIPOS>MOLECULE
ED1
  100    91     1     0     0
SMALL
bcc


@<TRIPOS>ATOM
      1 NAE        -7.2860   -7.4610    1.5970 n1        1 ED1     -0.069000
      2 CAK        -6.7270   -6.4770    1.4480 c1        1 ED1     -0.079000
      3 CBN        -5.9820   -5.1670    1.2490 c1        1 ED1     -0.059000
      4 CAQ        -4.6520   -5.0580    1.6400 c2        1 ED1     -0.067000
      5 CAU        -3.9660   -3.8630    1.4450 c1        1 ED1     -0.187000
      6 CAR        -6.6280   -4.0830    0.6630 c1        1 ED1     -0.072000
      7 CAV        -5.9420   -2.8880    0.4680 c1        1 ED1     -0.158000
      8 CBQ        -4.6110   -2.7780    0.8590 c1        1 ED1      0.094000
      9 NBW        -3.9160   -1.5100    0.7190 n3        1 ED1     -0.242000
     10 CBH        -4.6160   -0.2640    0.9930 c3        1 ED1      0.031000
     11 CBR        -4.5100    0.0660    2.4970 c2        1 ED1     -0.214000
     12 NBY        -5.2130    1.0060    3.1480 n2        1 ED1     -0.122000
     13 CAA        -6.3120    1.7610    2.6130 c2        1 ED1     -0.116000
     14 CAX        -4.7550    1.0620    4.4260 c1        1 ED1     -0.057000
     15 NBJ        -3.7610    0.1440    4.5580 n2        1 ED1     -0.191000
     16 CAW        -3.6050   -0.4710    3.3770 c1        1 ED1     -0.175000
     17 CBF        -2.4930   -1.4890    0.3720 c3        1 ED1     -0.082000
     18 CBG        -2.2520   -0.4630   -0.7630 c3        1 ED1     -0.020000
     19 NBX        -0.8170   -0.1410   -0.8390 n3        1 ED1     -0.824000
     20 CBI        -0.2130    0.2150   -2.1360 c3        1 ED1     -0.013000
     21 CBU         0.4780    1.6320   -2.0240 c3        1 ED1     -0.122000
     22 CBB         1.9430    1.4650   -2.1790 c3        1 ED1     -0.180500
     23 CBD         2.3350    1.0630   -3.6000 c3        1 ED1     -0.053000
     24 NBV         1.7550    1.9610   -4.6230 n         1 ED1     -0.256000
     25 CBM         2.3690    2.0620   -5.9330 c2        1 ED1      0.383000
     26 OBK         3.7010    1.5810   -6.1360 os        1 ED1     -0.280000
     27 CBZ         4.5610    2.5110   -6.8210 c3        1 ED1      0.113000
     28 CAB         3.7060    3.5330   -7.5850 c3        1 ED1     -0.230667
     29 CAD         5.4410    3.2440   -5.7970 c3        1 ED1     -0.230667
     30 CAC         5.4550    1.7490   -7.8120 c3        1 ED1     -0.230667
     31 OAG         1.7240    2.4830   -6.8770 o         1 ED1     -0.417000
     32 CBE         0.2980    2.1310   -4.4750 c3        1 ED1     -0.053000
     33 CBC        -0.1010    2.5380   -3.0610 c3        1 ED1     -0.180500
     34 SCA         0.0890    0.0090    0.5840 s4        1 ED1      2.054800
     35 OAI         0.6350    1.3350    0.7180 o         1 ED1     -0.540900
     36 OAH        -0.7520   -0.0660    1.7500 o         1 ED1     -0.540900
     37 CBT         1.3940   -1.2470    0.6330 c1        1 ED1     -0.818000
     38 CAT         1.4690   -2.2100   -0.3660 c2        1 ED1     -0.043000
     39 CAM         2.5090   -3.1410   -0.3620 c1        1 ED1     -0.164000
     40 CAL         3.4740   -3.1050    0.6460 c1        1 ED1     -0.113750
     41 CAS         3.3990   -2.1400    1.6490 c1        1 ED1     -0.113750
     42 CBS         2.3620   -1.2110    1.6450 c1        1 ED1      0.117000
     43 CBP         2.2400   -0.2830    2.7110 c1        1 ED1     -0.094000
     44 CAY         1.9430   -0.7370    3.9950 c1        1 ED1     -0.090000
     45 CAP         2.5660    1.0550    2.5060 c1        1 ED1     -0.124000
     46 CAN         2.5950    1.9380    3.5830 c1        1 ED1     -0.113750
     47 CAO         2.2980    1.4840    4.8650 c1        1 ED1     -0.113750
     48 CBO         1.9720    0.1470    5.0710 c1        1 ED1     -0.050000
     49 CBA         1.5980   -0.3440    6.4810 c3        1 ED1     -0.114000
     50 CAZ         2.7990   -0.1700    7.4200 c3        1 ED1     -0.214000
     51 CBL         2.3940   -0.5520    8.8400 c2        1 ED1      0.323000
     52 OAF         2.0520    0.3440    9.6610 o         1 ED1     -0.594500
     53 OAJ         2.4430   -1.7580    9.2070 o         1 ED1     -0.594500
     54 HAQ        -4.2030   -5.8170    2.0720 ha        1 ED1      0.138000
     55 HAU        -3.0290   -3.7850    1.7210 ha        1 ED1      0.145000
     56 HAR        -7.5750   -4.1530    0.4090 ha        1 ED1      0.138000
     57 HAV        -6.3850   -2.1360    0.0180 ha        1 ED1      0.146000
     58 HBH        -4.2100    0.4600    0.4700 h1        1 ED1      0.100000
     59 HBHA       -5.5610   -0.3590    0.7440 h1        1 ED1      0.100000
     60 HAA        -7.1350    1.2250    2.6680 ha        1 ED1      0.116333
     61 HAAA       -6.1290    1.9840    1.6750 ha        1 ED1      0.116333
     62 HAAB       -6.4250    2.5890    3.1320 ha        1 ED1      0.116333
     63 HAX        -5.0640    1.6820    5.1240 DU        1 ED1      0.213500
     64 HAW        -3.0000   -1.0790    3.8550 DU        1 ED1      0.213500
     65 HBF        -2.2160   -2.3840    0.0690 h1        1 ED1      0.092000
     66 HBFA       -1.9690   -1.2340    1.1580 h1        1 ED1      0.092000
     67 HBG        -2.7620    0.3560   -0.5780 h1        1 ED1      0.105000
     68 HBGA       -2.5480   -0.8470   -1.6200 h1        1 ED1      0.105000
     69 HBI        -0.9140    0.2460   -2.8270 h1        1 ED1      0.090500
     70 HBIA        0.4580   -0.4580   -2.3800 h1        1 ED1      0.090500
     71 HBU         0.2940    2.0060   -1.1360 hc        1 ED1      0.096000
     72 HBB         2.2510    0.7730   -1.5560 hc        1 ED1      0.092000
     73 HBBA        2.3850    2.3150   -1.9550 hc        1 ED1      0.092000
     74 HBD         3.3150    1.0850   -3.6770 h1        1 ED1      0.116750
     75 HBDA        2.0230    0.1460   -3.7680 h1        1 ED1      0.116750
     76 HAB         3.0110    3.0630   -8.0940 hc        1 ED1      0.088778
     77 HABA        4.2770    4.0420   -8.2030 hc        1 ED1      0.088778
     78 HABB        3.2830    4.1490   -6.9470 hc        1 ED1      0.088778
     79 HAD         5.8720    2.5860   -5.2060 hc        1 ED1      0.088778
     80 HADA        6.1310    3.7630   -6.2690 hc        1 ED1      0.088778
     81 HADB        4.8840    3.8500   -5.2610 hc        1 ED1      0.088778
     82 HAC         5.8880    0.9950   -7.3500 hc        1 ED1      0.088778
     83 HACA        6.1430    2.3550   -8.1660 hc        1 ED1      0.088778
     84 HACB        4.9060    1.4070   -8.5520 hc        1 ED1      0.088778
     85 HBE        -0.1460    1.2830   -4.7000 h1        1 ED1      0.116750
     86 HBEA       -0.0060    2.8260   -5.1040 h1        1 ED1      0.116750
     87 HBC        -1.0820    2.5180   -2.9890 hc        1 ED1      0.092000
     88 HBCA        0.2120    3.4560   -2.8930 hc        1 ED1      0.092000
     89 HAT         0.7680   -2.2630   -1.0480 ha        1 ED1      0.122000
     90 HAM         2.5730   -3.8100   -1.0790 ha        1 ED1      0.130000
     91 HAL         4.2160   -3.7490    0.6390 ha        1 ED1      0.137250
     92 HAS         4.0860   -2.1070    2.3510 ha        1 ED1      0.137250
     93 HAY         1.7580   -1.6910    4.1480 ha        1 ED1      0.197000
     94 HAP         2.7750    1.3750    1.6030 ha        1 ED1      0.132000
     95 HAN         2.8270    2.8830    3.4380 ha        1 ED1      0.137250
     96 HAO         2.3190    2.1080    5.6240 ha        1 ED1      0.137250
     97 HBA         0.8390    0.1810    6.8200 hc        1 ED1      0.087000
     98 HBAA        1.3470   -1.2940    6.4410 hc        1 ED1      0.087000
     99 HAZ         3.5350   -0.7500    7.1220 hc        1 ED1      0.074500
    100 HAZA        3.0940    0.7670    7.4050 hc        1 ED1      0.074500
@<TRIPOS>BOND
     1    1    2 1   
     2    3    4 1   
     3    3    6 1   
     4    4    5 1   
     5    4   54 1   
     6    5   55 1   
     7    6   56 1   
     8    7    8 1   
     9    7   57 1   
    10    8    9 1   
    11    9   10 1   
    12    9   17 1   
    13   10   11 1   
    14   10   58 1   
    15   10   59 1   
    16   11   12 1   
    17   11   16 1   
    18   12   14 1   
    19   13   60 1   
    20   13   61 1   
    21   13   62 1   
    22   14   15 1   
    23   15   16 1   
    24   17   18 1   
    25   17   65 1   
    26   17   66 1   
    27   18   19 1   
    28   18   67 1   
    29   18   68 1   
    30   19   20 1   
    31   19   34 1   
    32   20   21 1   
    33   20   69 1   
    34   20   70 1   
    35   21   22 1   
    36   21   33 1   
    37   21   71 1   
    38   22   23 1   
    39   22   72 1   
    40   22   73 1   
    41   23   24 1   
    42   23   74 1   
    43   23   75 1   
    44   24   25 1   
    45   24   32 1   
    46   25   26 1   
    47   25   31 1   
    48   26   27 1   
    49   27   28 1   
    50   27   29 1   
    51   27   30 1   
    52   28   76 1   
    53   28   77 1   
    54   28   78 1   
    55   29   79 1   
    56   29   80 1   
    57   29   81 1   
    58   30   82 1   
    59   30   83 1   
    60   30   84 1   
    61   32   33 1   
    62   32   85 1   
    63   32   86 1   
    64   33   87 1   
    65   33   88 1   
    66   34   35 1   
    67   34   36 1   
    68   37   38 1   
    69   37   42 1   
    70   38   39 1   
    71   38   89 1   
    72   39   90 1   
    73   40   41 1   
    74   40   91 1   
    75   41   92 1   
    76   43   45 1   
    77   44   48 1   
    78   44   93 1   
    79   45   94 1   
    80   46   47 1   
    81   46   95 1   
    82   47   96 1   
    83   48   49 1   
    84   49   50 1   
    85   49   97 1   
    86   49   98 1   
    87   50   51 1   
    88   50   99 1   
    89   50  100 1   
    90   51   52 1   
    91   51   53 1   
@<TRIPOS>SUBSTRUCTURE
     1 ED1         1 TEMP              0 ****  ****    0 ROOT
