@<TRIPOS>MOLECULE
ED1
  100   104     1     0     0
SMALL
bcc


@<TRIPOS>ATOM
      1 NAE        -2.0980    1.8130   -1.7700 n1        1 ED1     -0.387800
      2 CAK        -1.4080    1.5040   -0.8840 cg        1 ED1      0.248800
      3 CBN        -0.5700    1.1230    0.1940 ca        1 ED1     -0.087000
      4 CAQ         0.8010    1.4140    0.1690 ca        1 ED1     -0.043000
      5 CAU         1.6240    1.0400    1.2190 ca        1 ED1     -0.223500
      6 CAR        -1.0980    0.4490    1.3010 ca        1 ED1     -0.043000
      7 CAV        -0.2830    0.0630    2.3540 ca        1 ED1     -0.223500
      8 CBQ         1.1100    0.3470    2.3510 ca        1 ED1      0.227600
      9 NBW         1.9460   -0.0740    3.3780 nh        1 ED1     -0.683000
     10 CBH         1.4420   -0.4510    4.6830 c3        1 ED1      0.293100
     11 CBR         1.7210   -1.8650    5.0560 cc        1 ED1     -0.250900
     12 NBY         1.1720   -3.0120    4.4610 na        1 ED1     -0.189900
     13 CAA         0.2150   -3.0720    3.4090 c3        1 ED1      0.018600
     14 CAX         1.7060   -4.1100    5.1500 cc        1 ED1      0.386400
     15 NBJ         2.5560   -3.7210    6.1270 nd        1 ED1     -0.663000
     16 CAW         2.5770   -2.3330    6.0790 cd        1 ED1      0.316200
     17 CBF         3.3730    0.1380    3.3050 c3        1 ED1      0.185800
     18 CBG         3.8200    1.5840    3.6550 c3        1 ED1      0.185800
     19 NBX         5.2400    1.7820    3.5900 n3        1 ED1     -0.803500
     20 CBI         5.8360    1.8530    2.2830 c3        1 ED1      0.231800
     21 CBU         6.0640    3.2690    1.7210 c3        1 ED1     -0.096700
     22 CBB         4.7550    3.9860    1.4460 c3        1 ED1     -0.103400
     23 CBD         4.9840    5.3190    0.7320 c3        1 ED1      0.068500
     24 NBV         5.8370    5.2360   -0.4440 n         1 ED1     -0.399800
     25 CBM         5.1870    5.1210   -1.6800 c         1 ED1      0.727100
     26 OBK         5.9870    4.6490   -2.6960 os        1 ED1     -0.447900
     27 CBZ         5.5400    4.7750   -4.0710 c3        1 ED1      0.184800
     28 CAB         4.3250    3.8980   -4.3220 c3        1 ED1     -0.113100
     29 CAD         5.2660    6.2270   -4.4250 c3        1 ED1     -0.113100
     30 CAC         6.7410    4.2550   -4.8620 c3        1 ED1     -0.113100
     31 OAG         4.0190    5.4680   -1.9260 o         1 ED1     -0.593000
     32 CBE         7.0740    4.5130   -0.2150 c3        1 ED1      0.068500
     33 CBC         6.8920    3.1480    0.4490 c3        1 ED1     -0.103400
     34 SCA         6.1380    2.0440    4.9540 sy        1 ED1      1.499200
     35 OAI         7.2830    2.7800    4.5730 o         1 ED1     -0.642300
     36 OAH         5.2780    2.6310    5.9020 o         1 ED1     -0.642300
     37 CBT         6.6190    0.4990    5.4630 ca        1 ED1     -0.366500
     38 CAT         6.5410   -0.6200    4.6160 ca        1 ED1     -0.045000
     39 CAM         6.8950   -1.8940    5.0340 ca        1 ED1     -0.166000
     40 CAL         7.3480   -2.0900    6.3420 ca        1 ED1     -0.066000
     41 CAS         7.4620   -1.0020    7.1940 ca        1 ED1     -0.146000
     42 CBS         7.1230    0.2950    6.7630 cp        1 ED1      0.117000
     43 CBP         7.3390    1.3730    7.7350 cp        1 ED1     -0.113000
     44 CAY         6.7490    1.2710    9.0040 ca        1 ED1     -0.104000
     45 CAP         8.1930    2.4460    7.4520 ca        1 ED1     -0.137000
     46 CAN         8.4450    3.4040    8.4330 ca        1 ED1     -0.131000
     47 CAO         7.8560    3.3010    9.6910 ca        1 ED1     -0.110000
     48 CBO         7.0000    2.2320    9.9890 ca        1 ED1     -0.040300
     49 CBA         6.3870    2.1150   11.3400 c3        1 ED1     -0.041100
     50 CAZ         7.3670    1.5950   12.3690 c3        1 ED1     -0.193400
     51 CBL         6.7990    1.7480   13.7940 c         1 ED1      0.908600
     52 OAF         6.2120    2.8280   14.0920 o         1 ED1     -0.846300
     53 OAJ         6.9700    0.7870   14.5960 o         1 ED1     -0.846300
     54 HAQ         1.2310    1.9530   -0.6910 ha        1 ED1      0.142500
     55 HAU         2.6920    1.3020    1.1560 ha        1 ED1      0.139000
     56 HAR        -2.1750    0.2180    1.3380 ha        1 ED1      0.142500
     57 HAV        -0.7500   -0.4780    3.1910 ha        1 ED1      0.139000
     58 HBH         1.9490    0.1960    5.4640 h1        1 ED1      0.070700
     59 HBHA        0.3360   -0.2510    4.7560 h1        1 ED1      0.070700
     60 HAA         0.5190   -2.3930    2.5660 h1        1 ED1      0.055700
     61 HAAA       -0.7950   -2.7510    3.7840 h1        1 ED1      0.055700
     62 HAAB        0.1430   -4.1250    3.0270 h1        1 ED1      0.055700
     63 HAX         1.4480   -5.1440    4.9000 h5        1 ED1      0.058100
     64 HAW         3.1820   -1.7440    6.7690 h4        1 ED1      0.053100
     65 HBF         3.8600   -0.5810    4.0280 h1        1 ED1      0.062700
     66 HBFA        3.7290   -0.1330    2.2710 h1        1 ED1      0.062700
     67 HBG         3.3050    2.3010    2.9520 h1        1 ED1      0.069200
     68 HBGA        3.4700    1.8300    4.7020 h1        1 ED1      0.069200
     69 HBI         6.8460    1.3480    2.3360 h1        1 ED1      0.044700
     70 HBIA        5.2030    1.2800    1.5460 h1        1 ED1      0.044700
     71 HBU         6.6560    3.8660    2.4740 hc        1 ED1      0.090700
     72 HBB         4.0840    3.3320    0.8290 hc        1 ED1      0.051200
     73 HBBA        4.2270    4.2020    2.4120 hc        1 ED1      0.051200
     74 HBD         3.9900    5.7610    0.4390 h1        1 ED1      0.071450
     75 HBDA        5.4980    6.0300    1.4400 h1        1 ED1      0.071450
     76 HAB         4.5180    2.8620   -3.9540 hc        1 ED1      0.050700
     77 HABA        3.4310    4.3080   -3.7930 hc        1 ED1      0.050700
     78 HABB        4.1140    3.8610   -5.4170 hc        1 ED1      0.050700
     79 HAD         4.3550    6.5930   -3.8930 hc        1 ED1      0.050700
     80 HADA        6.1350    6.8630   -4.1310 hc        1 ED1      0.050700
     81 HADB        5.1050    6.3160   -5.5250 hc        1 ED1      0.050700
     82 HAC         7.6400    4.8810   -4.6530 hc        1 ED1      0.050700
     83 HACA        6.9640    3.2010   -4.5720 hc        1 ED1      0.050700
     84 HACB        6.5050    4.2970   -5.9510 hc        1 ED1      0.050700
     85 HBE         7.6260    4.3860   -1.1870 h1        1 ED1      0.071450
     86 HBEA        7.6980    5.1650    0.4630 h1        1 ED1      0.071450
     87 HBC         6.3960    2.4400   -0.2650 hc        1 ED1      0.051200
     88 HBCA        7.9050    2.7370    0.6940 hc        1 ED1      0.051200
     89 HAT         6.1880   -0.5080    3.5760 ha        1 ED1      0.126000
     90 HAM         6.8140   -2.7460    4.3450 ha        1 ED1      0.133000
     91 HAL         7.6120   -3.1000    6.6900 ha        1 ED1      0.138000
     92 HAS         7.8270   -1.1390    8.2260 ha        1 ED1      0.160000
     93 HAY         6.0810    0.4260    9.2290 ha        1 ED1      0.135000
     94 HAP         8.6670    2.5350    6.4620 ha        1 ED1      0.144000
     95 HAN         9.1140    4.2470    8.2060 ha        1 ED1      0.125000
     96 HAO         8.0610    4.0550   10.4670 ha        1 ED1      0.146000
     97 HBA         5.4960    1.4350   11.3010 hc        1 ED1      0.062200
     98 HBAA        6.0220    3.1230   11.6850 hc        1 ED1      0.062200
     99 HAZ         7.6050    0.5200   12.1770 hc        1 ED1      0.024200
    100 HAZA        8.3220    2.1770   12.3170 hc        1 ED1      0.024200
@<TRIPOS>BOND
     1    1    2 3   
     2    2    3 1   
     3    3    4 ar  
     4    3    6 ar  
     5    4    5 ar  
     6    4   54 1   
     7    5    8 ar  
     8    5   55 1   
     9    6    7 ar  
    10    6   56 1   
    11    7    8 ar  
    12    7   57 1   
    13    8    9 1   
    14    9   10 1   
    15    9   17 1   
    16   10   11 1   
    17   10   58 1   
    18   10   59 1   
    19   11   12 1   
    20   11   16 2   
    21   12   13 1   
    22   12   14 1   
    23   13   60 1   
    24   13   61 1   
    25   13   62 1   
    26   14   15 2   
    27   14   63 1   
    28   15   16 1   
    29   16   64 1   
    30   17   18 1   
    31   17   65 1   
    32   17   66 1   
    33   18   19 1   
    34   18   67 1   
    35   18   68 1   
    36   19   20 1   
    37   19   34 1   
    38   20   21 1   
    39   20   69 1   
    40   20   70 1   
    41   21   22 1   
    42   21   33 1   
    43   21   71 1   
    44   22   23 1   
    45   22   72 1   
    46   22   73 1   
    47   23   24 1   
    48   23   74 1   
    49   23   75 1   
    50   24   25 1   
    51   24   32 1   
    52   25   26 1   
    53   25   31 2   
    54   26   27 1   
    55   27   28 1   
    56   27   29 1   
    57   27   30 1   
    58   28   76 1   
    59   28   77 1   
    60   28   78 1   
    61   29   79 1   
    62   29   80 1   
    63   29   81 1   
    64   30   82 1   
    65   30   83 1   
    66   30   84 1   
    67   32   33 1   
    68   32   85 1   
    69   32   86 1   
    70   33   87 1   
    71   33   88 1   
    72   34   35 2   
    73   34   36 2   
    74   34   37 1   
    75   37   38 ar  
    76   37   42 ar  
    77   38   39 ar  
    78   38   89 1   
    79   39   40 ar  
    80   39   90 1   
    81   40   41 ar  
    82   40   91 1   
    83   41   42 ar  
    84   41   92 1   
    85   42   43 1   
    86   43   44 ar  
    87   43   45 ar  
    88   44   48 ar  
    89   44   93 1   
    90   45   46 ar  
    91   45   94 1   
    92   46   47 ar  
    93   46   95 1   
    94   47   48 ar  
    95   47   96 1   
    96   48   49 1   
    97   49   50 1   
    98   49   97 1   
    99   49   98 1   
   100   50   51 1   
   101   50   99 1   
   102   50  100 1   
   103   51   52 1   
   104   51   53 1   
@<TRIPOS>SUBSTRUCTURE
     1 ED1         1 TEMP              0 ****  ****    0 ROOT
