@<TRIPOS>MOLECULE
ED2
   64    66     1     0     0
SMALL
bcc


@<TRIPOS>ATOM
      1 CAB         2.4960    0.5500    0.4280 c3        1 ED2     -0.000400
      2 NBH         3.2640    0.5460   -0.7770 na        1 ED2     -0.166900
      3 CAQ         4.6500    0.6690   -0.8790 cc        1 ED2      0.459400
      4 NAX         5.0790    0.5000   -2.1590 nd        1 ED2     -0.659000
      5 CAP         3.9470    0.2380   -2.9040 cd        1 ED2      0.349200
      6 CBC         2.7930    0.2650   -2.0750 cc        1 ED2     -0.340900
      7 CAW         1.4090   -0.0330   -2.4580 c3        1 ED2      0.223100
      8 NBE         0.6360    1.1270   -3.0690 n4        1 ED2     -0.557800
      9 CBB         0.0810    2.0230   -2.0390 ca        1 ED2     -0.044400
     10 CAN         0.8760    3.0100   -1.4330 ca        1 ED2     -0.109500
     11 CAL         0.3170    3.8490   -0.4720 ca        1 ED2     -0.077500
     12 CAZ        -1.0300    3.7090   -0.1080 ca        1 ED2      0.069000
     13 CAF        -1.5950    4.5710    0.8710 cg        1 ED2      0.175800
     14 NAC        -2.0570    5.2770    1.6710 n1        1 ED2     -0.242800
     15 CAM        -1.8200    2.7180   -0.7120 ca        1 ED2     -0.077500
     16 CAO        -1.2720    1.8760   -1.6750 ca        1 ED2     -0.109500
     17 CAT         1.4130    1.8980   -4.0880 c3        1 ED2      0.068800
     18 CAU         1.5670    1.1360   -5.4210 c3        1 ED2      0.115800
     19 NBF         2.3410    1.8360   -6.4380 n3        1 ED2     -0.895200
     20 SBI         2.9740    0.1920   -8.1450 s4        1 ED2      1.612200
     21 OAD         2.2480   -0.7400   -7.4860 o         1 ED2     -0.429900
     22 OAE         2.4870    0.8910   -9.1970 o         1 ED2     -0.429900
     23 CBD         4.4920    0.3110   -7.8890 cc        1 ED2     -0.248100
     24 CAS         5.5590    0.7760   -8.7440 cd        1 ED2      0.029400
     25 NBG         6.7260    0.6080   -8.0680 na        1 ED2     -0.144900
     26 CAA         8.0590    0.8930   -8.5270 c3        1 ED2     -0.018400
     27 CAR         6.3960    0.0580   -6.7870 cd        1 ED2      0.466400
     28 NAY         5.0890   -0.1220   -6.6580 nc        1 ED2     -0.581000
     29 CAV         1.6460    2.9590   -7.0770 c3        1 ED2      0.169100
     30 CBA         1.6350    4.2430   -6.3090 ca        1 ED2     -0.165300
     31 CAJ         2.8380    4.8840   -5.9900 ca        1 ED2     -0.127000
     32 CAH         2.8230    6.1160   -5.3400 ca        1 ED2     -0.115000
     33 CAG         1.6070    6.7190   -5.0110 ca        1 ED2     -0.097000
     34 CAI         0.4060    6.0840   -5.3300 ca        1 ED2     -0.115000
     35 CAK         0.4180    4.8470   -5.9750 ca        1 ED2     -0.127000
     36 HAB         1.6840    1.3240    0.3570 h1        1 ED2      0.076033
     37 HABA        3.1640    0.7960    1.2980 h1        1 ED2      0.076033
     38 HABB        2.0330   -0.4600    0.5990 h1        1 ED2      0.076033
     39 HAQ         5.2980    0.8760   -0.0150 h5        1 ED2      0.096100
     40 HAP         4.0020    0.0170   -3.9710 h4        1 ED2      0.043100
     41 HAW         0.8010   -0.3860   -1.5730 hx        1 ED2      0.112200
     42 HAWA        1.4230   -0.8420   -3.2490 hx        1 ED2      0.112200
     43 HAN         1.9380    3.1350   -1.7020 ha        1 ED2      0.162000
     44 HAL         0.9390    4.6290    0.0010 ha        1 ED2      0.186500
     45 HAM        -2.8810    2.6050   -0.4250 ha        1 ED2      0.186500
     46 HAO        -1.9150    1.1080   -2.1350 ha        1 ED2      0.162000
     47 HAT         0.8790    2.8790   -4.2750 hx        1 ED2      0.123200
     48 HATA        2.4300    2.1250   -3.6530 hx        1 ED2      0.123200
     49 HAU         0.5480    0.9050   -5.8470 h1        1 ED2      0.089200
     50 HAUA        2.0910    0.1520   -5.2260 h1        1 ED2      0.089200
     51 HAS         5.4910    1.1870   -9.7630 h4        1 ED2      0.235000
     52 HAA         8.0220    1.3790   -9.5390 h1        1 ED2      0.101700
     53 HAAA        8.5630    1.5840   -7.7960 h1        1 ED2      0.101700
     54 HAAB        8.6430   -0.0670   -8.5940 h1        1 ED2      0.101700
     55 HAR         7.1700   -0.1750   -6.0350 h5        1 ED2      0.121100
     56 HAV         0.5890    2.6430   -7.3150 h1        1 ED2      0.090700
     57 HAVA        2.1720    3.1370   -8.0640 h1        1 ED2      0.090700
     58 HAJ         3.8000    4.4340   -6.2770 ha        1 ED2      0.131500
     59 HAH         3.7710    6.6250   -5.1020 ha        1 ED2      0.158500
     60 HAG         1.5960    7.7030   -4.5140 ha        1 ED2      0.163000
     61 HAI        -0.5540    6.5680   -5.0910 ha        1 ED2      0.158500
     62 HAK        -0.5340    4.3670   -6.2500 ha        1 ED2      0.131500
     63 HBE1       -0.1690    0.7010   -3.5540 hn        1 ED2      0.446800
     64 HBF1        3.2050    2.1680   -6.0310 hn        1 ED2      0.398800
@<TRIPOS>BOND
     1    1    2 1   
     2    1   36 1   
     3    1   37 1   
     4    1   38 1   
     5    2    3 1   
     6    2    6 1   
     7    3    4 2   
     8    3   39 1   
     9    4    5 1   
    10    5    6 2   
    11    5   40 1   
    12    6    7 1   
    13    7    8 1   
    14    7   41 1   
    15    7   42 1   
    16    8    9 1   
    17    8   17 1   
    18    8   63 1   
    19    9   10 ar  
    20    9   16 ar  
    21   10   11 ar  
    22   10   43 1   
    23   11   12 ar  
    24   11   44 1   
    25   12   13 1   
    26   12   15 ar  
    27   13   14 3   
    28   15   16 ar  
    29   15   45 1   
    30   16   46 1   
    31   17   18 1   
    32   17   47 1   
    33   17   48 1   
    34   18   19 1   
    35   18   49 1   
    36   18   50 1   
    37   19   29 1   
    38   19   64 1   
    39   20   21 1   
    40   20   22 1   
    41   20   23 1   
    42   23   24 2   
    43   23   28 1   
    44   24   25 1   
    45   24   51 1   
    46   25   26 1   
    47   25   27 1   
    48   26   52 1   
    49   26   53 1   
    50   26   54 1   
    51   27   28 2   
    52   27   55 1   
    53   29   30 1   
    54   29   56 1   
    55   29   57 1   
    56   30   31 ar  
    57   30   35 ar  
    58   31   32 ar  
    59   31   58 1   
    60   32   33 ar  
    61   32   59 1   
    62   33   34 ar  
    63   33   60 1   
    64   34   35 ar  
    65   34   61 1   
    66   35   62 1   
@<TRIPOS>SUBSTRUCTURE
     1 ED2         1 TEMP              0 ****  ****    0 ROOT
