@<TRIPOS>MOLECULE
ED2
   63    66     1     0     0
SMALL
bcc


@<TRIPOS>ATOM
      1 CAB         0.7580    0.9970    0.5190 c3        1 ED2      0.012600
      2 NBH         2.0970    0.9460    0.0330 na        1 ED2     -0.184900
      3 CAQ         3.2570    1.2440    0.7580 cc        1 ED2      0.406400
      4 NAX         4.3740    1.0040    0.0340 nd        1 ED2     -0.663000
      5 CAP         3.9330    0.5220   -1.1920 cd        1 ED2      0.309200
      6 CBC         2.5210    0.4730   -1.2200 cc        1 ED2     -0.283900
      7 CAW         1.6370    0.0210   -2.3260 c3        1 ED2      0.274100
      8 NBE         1.2250    1.0460   -3.2780 nh        1 ED2     -0.649000
      9 CBB         0.0760    1.8080   -2.9370 ca        1 ED2      0.135600
     10 CAN         0.0690    3.2190   -2.8830 ca        1 ED2     -0.180000
     11 CAL        -1.1060    3.9170   -2.6250 ca        1 ED2     -0.069500
     12 CAZ        -2.3070    3.2310   -2.4110 ca        1 ED2     -0.026000
     13 CAF        -3.5050    3.9480   -2.1520 cg        1 ED2      0.218800
     14 NAC        -4.4860    4.5360   -1.9410 n1        1 ED2     -0.331800
     15 CAM        -2.3150    1.8300   -2.4550 ca        1 ED2     -0.069500
     16 CAO        -1.1460    1.1270   -2.7130 ca        1 ED2     -0.180000
     17 CAT         2.3280    1.7410   -3.9110 c3        1 ED2      0.183800
     18 CAU         1.9420    2.1680   -5.3510 c3        1 ED2      0.097800
     19 NBF         3.0720    2.4780   -6.2640 nx        1 ED2     -0.608300
     20 SBI         4.3540    1.0810   -6.4120 sy        1 ED2      1.444800
     21 OAD         5.4470    1.5590   -5.7300 o         1 ED2     -0.579300
     22 OAE         3.6970   -0.0500   -5.9620 o         1 ED2     -0.579300
     23 CBD         4.4720    1.0800   -8.0130 cc        1 ED2     -0.189800
     24 CAS         4.3130   -0.0120   -8.9230 cd        1 ED2     -0.010600
     25 NBG         4.6310    0.4520  -10.1710 na        1 ED2     -0.165900
     26 CAA         4.6480   -0.2870  -11.4000 c3        1 ED2     -0.006400
     27 CAR         4.9720    1.8270  -10.0280 cd        1 ED2      0.443400
     28 NAY         4.8800    2.2180   -8.7580 nc        1 ED2     -0.596000
     29 CAV         3.6950    3.8260   -6.0580 c3        1 ED2      0.178100
     30 CBA         3.8180    4.3150   -4.6550 ca        1 ED2     -0.163300
     31 CAJ         4.9540    4.0080   -3.8960 ca        1 ED2     -0.108000
     32 CAH         5.1060    4.5510   -2.6210 ca        1 ED2     -0.124000
     33 CAG         4.1330    5.4050   -2.1020 ca        1 ED2     -0.087000
     34 CAI         3.0020    5.7180   -2.8600 ca        1 ED2     -0.124000
     35 CAK         2.8440    5.1770   -4.1340 ca        1 ED2     -0.108000
     36 HAB         0.4570   -0.0010    0.9420 h1        1 ED2      0.062033
     37 HABA        0.0580    1.2620   -0.3200 h1        1 ED2      0.062033
     38 HABB        0.6800    1.7730    1.3270 h1        1 ED2      0.062033
     39 HAQ         3.2300    1.6260    1.7850 h5        1 ED2      0.071100
     40 HAP         4.6310    0.2230   -1.9720 h4        1 ED2      0.038100
     41 HAW         0.7070   -0.4620   -1.9070 h1        1 ED2      0.079700
     42 HAWA        2.2000   -0.7610   -2.9160 h1        1 ED2      0.079700
     43 HAN         0.9960    3.7990   -3.0260 ha        1 ED2      0.145500
     44 HAL        -1.0880    5.0180   -2.5830 ha        1 ED2      0.154000
     45 HAM        -3.2570    1.2810   -2.2880 ha        1 ED2      0.154000
     46 HAO        -1.1880    0.0270   -2.7590 ha        1 ED2      0.145500
     47 HAT         3.2030    1.0280   -3.9420 h1        1 ED2      0.069200
     48 HATA        2.6610    2.6520   -3.3340 h1        1 ED2      0.069200
     49 HAU         1.2790    3.0780   -5.2790 hx        1 ED2      0.100200
     50 HAUA        1.3560    1.3320   -5.8370 hx        1 ED2      0.100200
     51 HAS         4.0050   -1.0450   -8.7140 h4        1 ED2      0.223000
     52 HAA         5.7010   -0.3440  -11.7900 h1        1 ED2      0.087367
     53 HAAA        4.2600   -1.3260  -11.2270 h1        1 ED2      0.087367
     54 HAAB        3.9990    0.2320  -12.1580 h1        1 ED2      0.087367
     55 HAR         5.2720    2.4490  -10.8840 h5        1 ED2      0.103100
     56 HAV         3.0830    4.5730   -6.6450 hx        1 ED2      0.100200
     57 HAVA        4.7280    3.7790   -6.5200 hx        1 ED2      0.100200
     58 HAJ         5.7340    3.3430   -4.3060 ha        1 ED2      0.149000
     59 HAH         5.9990    4.3030   -2.0240 ha        1 ED2      0.155500
     60 HAG         4.2580    5.8370   -1.0960 ha        1 ED2      0.155000
     61 HAI         2.2400    6.4010   -2.4550 ha        1 ED2      0.155500
     62 HAK         1.9600    5.4420   -4.7340 ha        1 ED2      0.149000
     63 HBF1        2.6340    2.5450   -7.1890 hn        1 ED2      0.438800
@<TRIPOS>BOND
     1    1    2 1   
     2    1   36 1   
     3    1   37 1   
     4    1   38 1   
     5    2    3 1   
     6    2    6 1   
     7    3    4 2   
     8    3   39 1   
     9    4    5 1   
    10    5    6 2   
    11    5   40 1   
    12    6    7 1   
    13    7    8 1   
    14    7   41 1   
    15    7   42 1   
    16    8    9 1   
    17    8   17 1   
    18    9   10 ar  
    19    9   16 ar  
    20   10   11 ar  
    21   10   43 1   
    22   11   12 ar  
    23   11   44 1   
    24   12   13 1   
    25   12   15 ar  
    26   13   14 3   
    27   15   16 ar  
    28   15   45 1   
    29   16   46 1   
    30   17   18 1   
    31   17   47 1   
    32   17   48 1   
    33   18   19 1   
    34   18   49 1   
    35   18   50 1   
    36   19   20 1   
    37   19   29 1   
    38   19   63 1   
    39   20   21 2   
    40   20   22 2   
    41   20   23 1   
    42   23   24 2   
    43   23   28 1   
    44   24   25 1   
    45   24   51 1   
    46   25   26 1   
    47   25   27 1   
    48   26   52 1   
    49   26   53 1   
    50   26   54 1   
    51   27   28 2   
    52   27   55 1   
    53   29   30 1   
    54   29   56 1   
    55   29   57 1   
    56   30   31 ar  
    57   30   35 ar  
    58   31   32 ar  
    59   31   58 1   
    60   32   33 ar  
    61   32   59 1   
    62   33   34 ar  
    63   33   60 1   
    64   34   35 ar  
    65   34   61 1   
    66   35   62 1   
@<TRIPOS>SUBSTRUCTURE
     1 ED2         1 TEMP              0 ****  ****    0 ROOT
