@<TRIPOS>MOLECULE
ED2
   62    54     1     0     0
SMALL
bcc


@<TRIPOS>ATOM
      1 CAB        -1.3760   -4.7320    2.9390 c3        1 ED2     -0.093000
      2 NBH        -0.9140   -3.4750    3.5570 n3        1 ED2     -0.138000
      3 CAQ        -0.2460   -3.3670    4.7470 c1        1 ED2     -0.100000
      4 NAX         0.1690   -2.0700    4.8850 n2        1 ED2     -0.147000
      5 CAP        -0.2380   -1.3770    3.7870 c1        1 ED2     -0.156000
      6 CBC        -0.9100   -2.2430    2.9620 c1        1 ED2     -0.175000
      7 CAW        -1.4470   -1.9200    1.5980 c2        1 ED2      0.031000
      8 NBE        -1.7250   -0.4290    1.5040 n3        1 ED2     -0.257000
      9 CBB        -3.0180    0.1010    1.9310 c2        1 ED2      0.078000
     10 CAN        -3.0750    1.2170    2.7660 c1        1 ED2     -0.171000
     11 CAL        -4.3070    1.6570    3.2580 c1        1 ED2     -0.071000
     12 CAZ        -5.4550    0.9960    2.9210 c1        1 ED2     -0.042000
     13 CAF        -6.8070    1.4920    3.4510 c1        1 ED2     -0.090000
     14 NAC        -7.8330    1.8680    3.8530 n1        1 ED2     -0.048000
     15 CAM        -5.4020   -0.1180    2.0880 c1        1 ED2     -0.077000
     16 CAO        -4.1780   -0.5630    1.5940 c2        1 ED2     -0.155000
     17 CAT        -0.7150    0.4750    0.9130 c3        1 ED2     -0.077000
     18 CAU        -0.8900    0.5110   -0.6400 c3        1 ED2     -0.016000
     19 NBF         0.3430    1.0010   -1.2630 n3        1 ED2     -0.820000
     20 SBI         1.7600    0.1410   -1.0890 s4        1 ED2      2.102800
     21 OAD         2.8080    0.9670   -0.5760 o         1 ED2     -0.552400
     22 OAE         1.6460   -0.8480   -0.0430 o         1 ED2     -0.552400
     23 CBD         2.2380   -0.6290   -2.6830 c1        1 ED2     -0.434000
     24 CAS         3.4310   -1.2990   -2.9430 c1        1 ED2     -0.434000
     25 NBG         3.3950   -1.7400   -4.2290 n2        1 ED2     -0.109500
     26 CAA         4.4610   -2.3760   -4.9210 c2        1 ED2     -0.086000
     27 CAR         2.1950   -1.3540   -4.7750 c1        1 ED2     -0.094000
     28 NAY         1.4860   -0.6650   -3.8070 n2        1 ED2     -0.109500
     29 CAV         0.2970    2.1460   -2.1520 c3        1 ED2      0.033000
     30 CBA         1.5900    2.9600   -2.0060 c2        1 ED2     -0.114000
     31 CAJ         1.5290    4.3060   -1.6220 c2        1 ED2     -0.117000
     32 CAH         2.7060    5.0800   -1.5780 c1        1 ED2     -0.131000
     33 CAG         3.9420    4.5020   -1.9180 c1        1 ED2     -0.130000
     34 CAI         4.0010    3.1450   -2.3060 c1        1 ED2     -0.130000
     35 CAK         2.8310    2.3770   -2.3490 c1        1 ED2     -0.120000
     36 HAB        -1.0790   -4.7690    2.0290 h1        1 ED2      0.106000
     37 HABA       -2.3240   -4.7680    2.9640 h1        1 ED2      0.106000
     38 HABB       -1.0130   -5.4790    3.4240 h1        1 ED2      0.106000
     39 HAQ        -0.0900   -4.1010    5.3970 DU        1 ED2      0.197250
     40 HAP        -0.0800   -0.4340    3.6180 DU        1 ED2      0.197250
     41 HAW        -2.2810   -2.4180    1.4460 h4        1 ED2      0.105500
     42 HAWA       -0.8090   -2.1640    0.9410 h4        1 ED2      0.105500
     43 HAN        -2.2720    1.6810    3.0030 ha        1 ED2      0.149000
     44 HAL        -4.3490    2.4360    3.8430 ha        1 ED2      0.145000
     45 HAM        -6.2140   -0.5820    1.8530 ha        1 ED2      0.143000
     46 HAO        -4.1420   -1.3490    1.0050 ha        1 ED2      0.144000
     47 HAT         0.2050    0.1430    1.1400 h1        1 ED2      0.099000
     48 HATA       -0.8340    1.3730    1.2740 h1        1 ED2      0.099000
     49 HAU        -1.6200    1.1000   -0.8670 h1        1 ED2      0.101000
     50 HAUA       -1.0800   -0.3710   -0.9600 h1        1 ED2      0.101000
     51 HAS         4.1190   -1.4600   -2.3240 DU        1 ED2      0.197250
     52 HAA         5.3170   -2.0760   -4.5480 ha        1 ED2      0.103333
     53 HAAA        4.4200   -2.1450   -5.8650 ha        1 ED2      0.103333
     54 HAAB        4.3820   -3.3500   -4.8190 ha        1 ED2      0.103333
     55 HAR         1.8940   -1.5340   -5.6890 DU        1 ED2      0.197250
     56 HAV        -0.4800    2.7160   -1.9160 h1        1 ED2      0.096000
     57 HAVA        0.2100    1.8420   -3.0640 h1        1 ED2      0.096000
     58 HAJ         0.6400    4.7220   -1.3770 ha        1 ED2      0.164000
     59 HAH         2.6620    6.0460   -1.3020 ha        1 ED2      0.136000
     60 HAG         4.7690    5.0450   -1.8870 ha        1 ED2      0.133500
     61 HAI         4.8840    2.7300   -2.5500 ha        1 ED2      0.133500
     62 HAK         2.8730    1.4290   -2.6200 ha        1 ED2      0.133000
@<TRIPOS>BOND
     1    1    2 1   
     2    1   36 1   
     3    1   37 1   
     4    1   38 1   
     5    2    3 1   
     6    2    6 1   
     7    3    4 1   
     8    4    5 1   
     9    5    6 1   
    10    7    8 1   
    11    7   41 1   
    12    7   42 1   
    13    8    9 1   
    14    8   17 1   
    15    9   10 1   
    16    9   16 1   
    17   10   43 1   
    18   11   12 1   
    19   11   44 1   
    20   12   13 1   
    21   13   14 1   
    22   15   16 1   
    23   15   45 1   
    24   16   46 1   
    25   17   18 1   
    26   17   47 1   
    27   17   48 1   
    28   18   19 1   
    29   18   49 1   
    30   18   50 1   
    31   19   20 1   
    32   19   29 1   
    33   20   21 1   
    34   20   22 1   
    35   23   24 1   
    36   23   28 1   
    37   24   25 1   
    38   25   27 1   
    39   26   52 1   
    40   26   53 1   
    41   26   54 1   
    42   27   28 1   
    43   29   30 1   
    44   29   56 1   
    45   29   57 1   
    46   30   31 1   
    47   30   35 1   
    48   31   32 1   
    49   31   58 1   
    50   32   59 1   
    51   33   34 1   
    52   33   60 1   
    53   34   61 1   
    54   35   62 1   
@<TRIPOS>SUBSTRUCTURE
     1 ED2         1 TEMP              0 ****  ****    0 ROOT
