@<TRIPOS>MOLECULE
ED2
   62    65     1     0     0
SMALL
bcc


@<TRIPOS>ATOM
      1 CAB         4.3090    2.3370    2.0460 c3        1 ED2      0.017600
      2 NBH         3.1280    1.7800    2.6130 na        1 ED2     -0.194900
      3 CAQ         2.9800    1.2920    3.9170 cc        1 ED2      0.390400
      4 NAX         1.7140    0.8810    4.1540 nd        1 ED2     -0.670000
      5 CAP         1.0100    1.1130    2.9770 cd        1 ED2      0.321200
      6 CBC         1.8650    1.6790    2.0030 cc        1 ED2     -0.281900
      7 CAW         1.5400    2.1070    0.6160 c3        1 ED2      0.271100
      8 NBE         1.5390    1.0720   -0.4090 nh        1 ED2     -0.643000
      9 CBB         2.8220    0.6050   -0.7990 ca        1 ED2      0.157600
     10 CAN         3.2470   -0.7310   -0.6230 ca        1 ED2     -0.169500
     11 CAL         4.4830   -1.1550   -1.0960 ca        1 ED2     -0.074000
     12 CAZ         5.3390   -0.2560   -1.7460 ca        1 ED2     -0.049000
     13 CAF         6.6020   -0.6900   -2.2280 cg        1 ED2      0.238800
     14 NAC         7.6380   -1.0440   -2.6230 n1        1 ED2     -0.370800
     15 CAM         4.9390    1.0770   -1.9150 ca        1 ED2     -0.074000
     16 CAO         3.7040    1.5050   -1.4480 ca        1 ED2     -0.169500
     17 CAT         0.5050    0.0620   -0.2560 c3        1 ED2      0.147800
     18 CAU        -0.8860    0.6020   -0.6900 c3        1 ED2      0.228800
     19 NBF        -1.9430   -0.3580   -0.5140 n3        1 ED2     -0.800500
     20 SBI        -2.7920   -0.4140    0.8740 sy        1 ED2      1.472800
     21 OAD        -3.2790   -1.7130    1.1000 o         1 ED2     -0.660800
     22 OAE        -2.0300    0.1550    1.9250 o         1 ED2     -0.660800
     23 CBD        -4.0770    0.6290    0.6080 cc        1 ED2     -0.018800
     24 CAS        -4.5220    1.6800    1.4460 cd        1 ED2     -0.090600
     25 NBG        -5.6410    2.2260    0.8440 na        1 ED2     -0.197900
     26 CAA        -6.4550    3.2870    1.3420 c3        1 ED2      0.013600
     27 CAR        -5.8560    1.4960   -0.3480 cd        1 ED2      0.392400
     28 NAY        -4.9290    0.5410   -0.5060 nc        1 ED2     -0.591000
     29 CAV        -2.2300   -1.2440   -1.6150 c3        1 ED2      0.274100
     30 CBA        -1.3190   -2.4350   -1.7320 ca        1 ED2     -0.121300
     31 CAJ        -1.4870   -3.5280   -0.8750 ca        1 ED2     -0.117500
     32 CAH        -0.6730   -4.6520   -1.0130 ca        1 ED2     -0.135000
     33 CAG         0.3090   -4.6900   -2.0020 ca        1 ED2     -0.126000
     34 CAI         0.4800   -3.5990   -2.8550 ca        1 ED2     -0.135000
     35 CAK        -0.3290   -2.4720   -2.7190 ca        1 ED2     -0.117500
     36 HAB         4.3840    2.0510    0.9600 h1        1 ED2      0.054367
     37 HABA        4.2900    3.4590    2.1240 h1        1 ED2      0.054367
     38 HABB        5.2090    1.9500    2.5930 h1        1 ED2      0.054367
     39 HAQ         3.8100    1.2540    4.6290 h5        1 ED2      0.058100
     40 HAP        -0.0530    0.8650    2.8790 h4        1 ED2      0.078100
     41 HAW         0.5020    2.5490    0.6370 h1        1 ED2      0.064200
     42 HAWA        2.2550    2.9150    0.2830 h1        1 ED2      0.064200
     43 HAN         2.6050   -1.4560   -0.0970 ha        1 ED2      0.147500
     44 HAL         4.7920   -2.2020   -0.9520 ha        1 ED2      0.144500
     45 HAM         5.6060    1.7880   -2.4270 ha        1 ED2      0.144500
     46 HAO         3.4060    2.5530   -1.6060 ha        1 ED2      0.147500
     47 HAT         0.7400   -0.8230   -0.9160 h1        1 ED2      0.065200
     48 HATA        0.4420   -0.2940    0.8140 h1        1 ED2      0.065200
     49 HAU        -1.1410    1.5130   -0.0750 h1        1 ED2      0.054700
     50 HAUA       -0.8320    0.9180   -1.7700 h1        1 ED2      0.054700
     51 HAS        -4.1060    2.0380    2.3910 h4        1 ED2      0.204000
     52 HAA        -6.7320    3.9780    0.5010 h1        1 ED2      0.063033
     53 HAAA       -7.3950    2.8710    1.7970 h1        1 ED2      0.063033
     54 HAAB       -5.8940    3.8630    2.1250 h1        1 ED2      0.063033
     55 HAR        -6.6850    1.7160   -1.0290 h5        1 ED2      0.071100
     56 HAV        -3.2890   -1.6240   -1.4850 h1        1 ED2      0.065700
     57 HAVA       -2.1950   -0.6590   -2.5800 h1        1 ED2      0.065700
     58 HAJ        -2.2660   -3.4940   -0.0930 ha        1 ED2      0.148500
     59 HAH        -0.8090   -5.5110   -0.3380 ha        1 ED2      0.134000
     60 HAG         0.9470   -5.5790   -2.1110 ha        1 ED2      0.131000
     61 HAI         1.2540   -3.6270   -3.6360 ha        1 ED2      0.134000
     62 HAK        -0.1910   -1.6130   -3.3920 ha        1 ED2      0.148500
@<TRIPOS>BOND
     1    1    2 1   
     2    1   36 1   
     3    1   37 1   
     4    1   38 1   
     5    2    3 1   
     6    2    6 1   
     7    3    4 2   
     8    3   39 1   
     9    4    5 1   
    10    5    6 2   
    11    5   40 1   
    12    6    7 1   
    13    7    8 1   
    14    7   41 1   
    15    7   42 1   
    16    8    9 1   
    17    8   17 1   
    18    9   10 ar  
    19    9   16 ar  
    20   10   11 ar  
    21   10   43 1   
    22   11   12 ar  
    23   11   44 1   
    24   12   13 1   
    25   12   15 ar  
    26   13   14 3   
    27   15   16 ar  
    28   15   45 1   
    29   16   46 1   
    30   17   18 1   
    31   17   47 1   
    32   17   48 1   
    33   18   19 1   
    34   18   49 1   
    35   18   50 1   
    36   19   20 1   
    37   19   29 1   
    38   20   21 2   
    39   20   22 2   
    40   20   23 1   
    41   23   24 2   
    42   23   28 1   
    43   24   25 1   
    44   24   51 1   
    45   25   26 1   
    46   25   27 1   
    47   26   52 1   
    48   26   53 1   
    49   26   54 1   
    50   27   28 2   
    51   27   55 1   
    52   29   30 1   
    53   29   56 1   
    54   29   57 1   
    55   30   31 ar  
    56   30   35 ar  
    57   31   32 ar  
    58   31   58 1   
    59   32   33 ar  
    60   32   59 1   
    61   33   34 ar  
    62   33   60 1   
    63   34   35 ar  
    64   34   61 1   
    65   35   62 1   
@<TRIPOS>SUBSTRUCTURE
     1 ED2         1 TEMP              0 ****  ****    0 ROOT
