@<TRIPOS>MOLECULE
ED4
   82    85     1     0     0
SMALL
bcc


@<TRIPOS>ATOM
      1 NAF        -3.6860    6.0880   -0.4180 n1        1 ED4     -0.379800
      2 CAJ        -2.7720    5.3670   -0.4210 cg        1 ED4      0.243800
      3 CBE        -1.6600    4.4880   -0.4260 ca        1 ED4     -0.081000
      4 CAK        -1.8180    3.1370   -0.0870 ca        1 ED4     -0.044500
      5 CAM        -0.7340    2.2740   -0.0950 ca        1 ED4     -0.219500
      6 CAL        -0.3850    4.9560   -0.7680 ca        1 ED4     -0.044500
      7 CAN         0.7080    4.1020   -0.7730 ca        1 ED4     -0.219500
      8 CBF         0.5690    2.7270   -0.4430 ca        1 ED4      0.221600
      9 NBK         1.6650    1.8700   -0.4050 nh        1 ED4     -0.684000
     10 CAY         2.8750    2.1400   -1.1540 c3        1 ED4      0.294100
     11 CBG         4.1020    2.2000   -0.3120 cc        1 ED4     -0.243900
     12 NBN         4.4450    3.2150    0.5930 na        1 ED4     -0.186900
     13 CAB         3.7100    4.4020    0.8780 c3        1 ED4      0.016600
     14 CAP         5.6820    2.8540    1.1450 cc        1 ED4      0.390400
     15 NBA         6.1250    1.6770    0.6470 nd        1 ED4     -0.680000
     16 CAO         5.1550    1.2600   -0.2570 cd        1 ED4      0.310200
     17 CAW         1.5290    0.5160    0.0800 c3        1 ED4      0.186800
     18 CAX         0.9420   -0.4760   -0.9600 c3        1 ED4      0.192800
     19 NBL         0.7680   -1.8170   -0.4730 n3        1 ED4     -0.798500
     20 SBP         1.6130   -3.0710   -1.0930 sy        1 ED4      1.469800
     21 CBH         3.0010   -3.1400   -0.1630 cc        1 ED4     -0.022800
     22 NBB         3.9340   -2.0910   -0.0980 nc        1 ED4     -0.603000
     23 CAQ         4.9320   -2.5180    0.6870 cd        1 ED4      0.400400
     24 NBM         4.6900   -3.8320    1.1500 na        1 ED4     -0.196900
     25 CAA         5.5340   -4.5910    2.0150 c3        1 ED4      0.013600
     26 CAR         3.4730   -4.2210    0.6190 cd        1 ED4     -0.089600
     27 OAI         0.9130   -4.2800   -0.8600 o         1 ED4     -0.655800
     28 OAH         1.9480   -2.8050   -2.4330 o         1 ED4     -0.655800
     29 CAZ        -0.2280   -2.0290    0.5440 c3        1 ED4      0.229800
     30 CBI        -1.5950   -2.5380    0.0500 c3        1 ED4     -0.095700
     31 CAT        -2.4600   -2.8190    1.2720 c3        1 ED4     -0.104900
     32 CAV        -3.8900   -3.1870    0.8780 c3        1 ED4      0.065500
     33 CAS        -2.2650   -1.5390   -0.8760 c3        1 ED4     -0.104900
     34 CAU        -3.7000   -1.9560   -1.2030 c3        1 ED4      0.065500
     35 NBJ        -4.5180   -2.2480   -0.0400 n         1 ED4     -0.394800
     36 CBD        -5.2530   -1.2080    0.5550 c         1 ED4      0.725100
     37 OAG        -5.7920   -1.2480    1.6740 o         1 ED4     -0.588000
     38 OBC        -5.4210   -0.1070   -0.2510 os        1 ED4     -0.448900
     39 CBO        -6.3620    0.9290    0.1380 c3        1 ED4      0.183800
     40 CAE        -5.8910    1.6320    1.4000 c3        1 ED4     -0.112767
     41 CAD        -6.3100    1.8880   -1.0520 c3        1 ED4     -0.112767
     42 CAC        -7.7610    0.3620    0.2990 c3        1 ED4     -0.112767
     43 HAK        -2.8160    2.7530    0.1830 ha        1 ED4      0.143500
     44 HAM        -0.9100    1.2200    0.1720 ha        1 ED4      0.138500
     45 HAL        -0.2450    6.0160   -1.0350 ha        1 ED4      0.143500
     46 HAN         1.6900    4.5270   -1.0300 ha        1 ED4      0.138500
     47 HAY         3.0350    1.3010   -1.8980 h1        1 ED4      0.067200
     48 HAYA        2.7730    3.0940   -1.7440 h1        1 ED4      0.067200
     49 HAB         2.6310    4.1520    1.0690 h1        1 ED4      0.058033
     50 HABA        4.1410    4.9020    1.7860 h1        1 ED4      0.058033
     51 HABB        3.7670    5.1120    0.0080 h1        1 ED4      0.058033
     52 HAP         6.1980    3.4710    1.8870 h5        1 ED4      0.060100
     53 HAO         5.2450    0.3270   -0.8130 h4        1 ED4      0.053100
     54 HAW         2.5590    0.1660    0.3820 h1        1 ED4      0.071200
     55 HAWA        0.8900    0.5300    1.0070 h1        1 ED4      0.071200
     56 HAX        -0.0540   -0.0800   -1.3160 h1        1 ED4      0.064700
     57 HAXA        1.6330   -0.5130   -1.8540 h1        1 ED4      0.064700
     58 HAQ         5.8320   -1.9520    0.9560 h5        1 ED4      0.081100
     59 HAA         5.3590   -4.2920    3.0850 h1        1 ED4      0.063700
     60 HAAA        5.3140   -5.6850    1.9000 h1        1 ED4      0.063700
     61 HAAB        6.6090   -4.4000    1.7550 h1        1 ED4      0.063700
     62 HAR         3.0190   -5.2000    0.7970 h4        1 ED4      0.203000
     63 HAZ         0.1750   -2.7950    1.2720 h1        1 ED4      0.048700
     64 HAZA       -0.3970   -1.0730    1.1150 h1        1 ED4      0.048700
     65 HBI        -1.4440   -3.5060   -0.5090 hc        1 ED4      0.082700
     66 HAT        -2.0240   -3.6710    1.8550 hc        1 ED4      0.051700
     67 HATA       -2.4750   -1.9200    1.9420 hc        1 ED4      0.051700
     68 HAV        -3.8830   -4.1840    0.3520 h1        1 ED4      0.072450
     69 HAVA       -4.5230   -3.2750    1.8060 h1        1 ED4      0.072450
     70 HAS        -2.2650   -0.5210   -0.4040 hc        1 ED4      0.051700
     71 HASA       -1.6980   -1.4690   -1.8410 hc        1 ED4      0.051700
     72 HAU        -4.1920   -1.1520   -1.8190 h1        1 ED4      0.072450
     73 HAUA       -3.6730   -2.9030   -1.8150 h1        1 ED4      0.072450
     74 HAE        -4.8300    1.9590    1.2820 hc        1 ED4      0.051700
     75 HAEA       -6.5280    2.5290    1.5850 hc        1 ED4      0.051700
     76 HAEB       -5.9620    0.9470    2.2790 hc        1 ED4      0.051700
     77 HAD        -6.6280    1.3640   -1.9840 hc        1 ED4      0.051700
     78 HADA       -6.9960    2.7460   -0.8570 hc        1 ED4      0.051700
     79 HADB       -5.2720    2.2710   -1.1920 hc        1 ED4      0.051700
     80 HAC        -7.8190   -0.2870    1.2060 hc        1 ED4      0.051700
     81 HACA       -8.4900    1.2000    0.4060 hc        1 ED4      0.051700
     82 HACB       -8.0340   -0.2450   -0.5970 hc        1 ED4      0.051700
@<TRIPOS>BOND
     1    1    2 3   
     2    2    3 1   
     3    3    4 ar  
     4    3    6 ar  
     5    4    5 ar  
     6    4   43 1   
     7    5    8 ar  
     8    5   44 1   
     9    6    7 ar  
    10    6   45 1   
    11    7    8 ar  
    12    7   46 1   
    13    8    9 1   
    14    9   10 1   
    15    9   17 1   
    16   10   11 1   
    17   10   47 1   
    18   10   48 1   
    19   11   12 1   
    20   11   16 2   
    21   12   13 1   
    22   12   14 1   
    23   13   49 1   
    24   13   50 1   
    25   13   51 1   
    26   14   15 2   
    27   14   52 1   
    28   15   16 1   
    29   16   53 1   
    30   17   18 1   
    31   17   54 1   
    32   17   55 1   
    33   18   19 1   
    34   18   56 1   
    35   18   57 1   
    36   19   20 1   
    37   19   29 1   
    38   20   21 1   
    39   20   27 2   
    40   20   28 2   
    41   21   22 1   
    42   21   26 2   
    43   22   23 2   
    44   23   24 1   
    45   23   58 1   
    46   24   25 1   
    47   24   26 1   
    48   25   59 1   
    49   25   60 1   
    50   25   61 1   
    51   26   62 1   
    52   29   30 1   
    53   29   63 1   
    54   29   64 1   
    55   30   31 1   
    56   30   33 1   
    57   30   65 1   
    58   31   32 1   
    59   31   66 1   
    60   31   67 1   
    61   32   35 1   
    62   32   68 1   
    63   32   69 1   
    64   33   34 1   
    65   33   70 1   
    66   33   71 1   
    67   34   35 1   
    68   34   72 1   
    69   34   73 1   
    70   35   36 1   
    71   36   37 2   
    72   36   38 1   
    73   38   39 1   
    74   39   40 1   
    75   39   41 1   
    76   39   42 1   
    77   40   74 1   
    78   40   75 1   
    79   40   76 1   
    80   41   77 1   
    81   41   78 1   
    82   41   79 1   
    83   42   80 1   
    84   42   81 1   
    85   42   82 1   
@<TRIPOS>SUBSTRUCTURE
     1 ED4         1 TEMP              0 ****  ****    0 ROOT
