@<TRIPOS>MOLECULE
ED4
   84    86     1     0     0
SMALL
bcc


@<TRIPOS>ATOM
      1 NAF        -0.6790    3.6790   -2.0000 n1        1 ED4     -0.245800
      2 CAJ        -0.3280    3.0240   -1.1050 cg        1 ED4      0.177800
      3 CBE         0.1020    2.2240   -0.0120 ca        1 ED4      0.069000
      4 CAK         0.2470    2.7960    1.2610 ca        1 ED4     -0.073000
      5 CAM         0.6710    2.0180    2.3350 ca        1 ED4     -0.115000
      6 CAL         0.3810    0.8630   -0.2040 ca        1 ED4     -0.073000
      7 CAN         0.8030    0.0770    0.8640 ca        1 ED4     -0.115000
      8 CBF         0.9500    0.6540    2.1400 ca        1 ED4     -0.050400
      9 NBK         1.3700   -0.2000    3.2610 n4        1 ED4     -0.566800
     10 CAY         0.5990    0.1090    4.5400 c3        1 ED4      0.232100
     11 CBG         0.4830   -1.0860    5.3810 cc        1 ED4     -0.380900
     12 NBN        -0.6380   -1.9420    5.4500 na        1 ED4     -0.176900
     13 CAB        -1.8940   -1.7560    4.7950 c3        1 ED4      0.003600
     14 CAP        -0.3350   -2.9050    6.4110 cc        1 ED4      0.470400
     15 NBA         0.9090   -2.7250    6.9320 nd        1 ED4     -0.650000
     16 CAO         1.4210   -1.6040    6.3140 cd        1 ED4      0.381200
     17 CAW         2.8540   -0.1920    3.4690 c3        1 ED4      0.096800
     18 CAX         3.4770    1.2130    3.5930 c3        1 ED4      0.128800
     19 NBL         4.9260    1.1920    3.8030 n3        1 ED4     -0.900200
     20 SBP         5.6970    0.2150    6.0080 s4        1 ED4      1.619200
     21 CBH         6.9340   -0.6260    5.6710 cc        1 ED4     -0.258100
     22 NBB         6.8390   -1.9640    5.1530 nc        1 ED4     -0.556000
     23 CAQ         8.0790   -2.4200    5.0560 cd        1 ED4      0.464400
     24 NBM         9.0370   -1.4400    5.4830 na        1 ED4     -0.138900
     25 CAA        10.4610   -1.6410    5.5180 c3        1 ED4     -0.021400
     26 CAR         8.3420   -0.3370    5.8520 cd        1 ED4      0.033400
     27 OAI         5.9250    1.4880    6.4180 o         1 ED4     -0.440400
     28 OAH         4.4740   -0.3590    6.1070 o         1 ED4     -0.440400
     29 CAZ         5.7000    0.7540    2.6410 c3        1 ED4      0.124800
     30 CBI         6.3860    1.8670    1.8360 c3        1 ED4     -0.088700
     31 CAT         7.2630    1.2190    0.7720 c3        1 ED4     -0.110900
     32 CAV         7.8960    2.2760   -0.1380 c3        1 ED4      0.076000
     33 CAS         5.3740    2.8080    1.2030 c3        1 ED4     -0.110900
     34 CAU         6.0690    3.8210    0.2830 c3        1 ED4      0.076000
     35 NBJ         6.9490    3.2220   -0.6930 n         1 ED4     -0.414800
     36 CBD         6.4780    2.9600   -1.9940 c         1 ED4      0.731100
     37 OAG         7.0000    2.1630   -2.7890 o         1 ED4     -0.564000
     38 OBC         5.3770    3.6930   -2.3490 os        1 ED4     -0.454900
     39 CBO         5.1010    3.9070   -3.7690 c3        1 ED4      0.185800
     40 CAE         4.6220    2.6150   -4.4070 c3        1 ED4     -0.115433
     41 CAD         3.9790    4.9410   -3.7350 c3        1 ED4     -0.115433
     42 CAC         6.3220    4.4660   -4.4770 c3        1 ED4     -0.115433
     43 HAK         0.0200    3.8660    1.4150 ha        1 ED4      0.187000
     44 HAM         0.7740    2.4870    3.3280 ha        1 ED4      0.158000
     45 HAL         0.2630    0.4090   -1.2050 ha        1 ED4      0.187000
     46 HAN         1.0080   -0.9930    0.6880 ha        1 ED4      0.158000
     47 HAY        -0.4140    0.5030    4.2300 hx        1 ED4      0.109700
     48 HAYA        1.1590    0.9170    5.0890 hx        1 ED4      0.109700
     49 HAB        -1.7440   -1.7190    3.6830 h1        1 ED4      0.072700
     50 HABA       -2.5770   -2.6130    5.0430 h1        1 ED4      0.072700
     51 HABB       -2.3750   -0.7980    5.1350 h1        1 ED4      0.072700
     52 HAP        -1.0310   -3.7090    6.6950 h5        1 ED4      0.096100
     53 HAO         2.4140   -1.2170    6.5600 h4        1 ED4      0.060100
     54 HAW         3.0480   -0.7890    4.4120 hx        1 ED4      0.114700
     55 HAWA        3.3090   -0.7330    2.5900 hx        1 ED4      0.114700
     56 HAX         3.2200    1.8070    2.6650 h1        1 ED4      0.078700
     57 HAXA        3.0220    1.7400    4.4810 h1        1 ED4      0.078700
     58 HAQ         8.3880   -3.4200    4.7040 h5        1 ED4      0.122100
     59 HAA        10.8220   -1.9190    4.4890 h1        1 ED4      0.104033
     60 HAAA       10.7010   -2.4750    6.2340 h1        1 ED4      0.104033
     61 HAAB       10.9750   -0.7010    5.8540 h1        1 ED4      0.104033
     62 HAR         8.8050    0.5890    6.2290 h4        1 ED4      0.237000
     63 HAZ         6.4970    0.0590    3.0340 h1        1 ED4      0.062200
     64 HAZA        5.0530    0.1590    1.9360 h1        1 ED4      0.062200
     65 HBI         7.0480    2.4680    2.5210 hc        1 ED4      0.060700
     66 HAT         6.6530    0.5080    0.1560 hc        1 ED4      0.047950
     67 HATA        8.0850    0.6330    1.2580 hc        1 ED4      0.047950
     68 HAV         8.6420    2.8760    0.4590 h1        1 ED4      0.082700
     69 HAVA        8.4430    1.7590   -0.9780 h1        1 ED4      0.082700
     70 HAS         4.6220    2.2190    0.6160 hc        1 ED4      0.047950
     71 HASA        4.8250    3.3810    1.9940 hc        1 ED4      0.047950
     72 HAU         6.7020    4.5060    0.9190 h1        1 ED4      0.082700
     73 HAUA        5.2890    4.4450   -0.2370 h1        1 ED4      0.082700
     74 HAE         5.4550    1.8730   -4.4620 hc        1 ED4      0.056367
     75 HAEA        3.7870    2.1780   -3.8110 hc        1 ED4      0.056367
     76 HAEB        4.2580    2.8280   -5.4400 hc        1 ED4      0.056367
     77 HAD         4.3280    5.8750   -3.2350 hc        1 ED4      0.056367
     78 HADA        3.6740    5.1760   -4.7820 hc        1 ED4      0.056367
     79 HADB        3.0990    4.5410   -3.1780 hc        1 ED4      0.056367
     80 HAC         6.0370    4.7800   -5.5100 hc        1 ED4      0.056367
     81 HACA        6.7160    5.3520   -3.9250 hc        1 ED4      0.056367
     82 HACB        7.1260    3.6930   -4.5460 hc        1 ED4      0.056367
     83 HBK1        1.1310   -1.1740    3.0070 hn        1 ED4      0.460800
     84 HBL1        5.1940    2.1460    4.0270 hn        1 ED4      0.403800
@<TRIPOS>BOND
     1    1    2 3   
     2    2    3 1   
     3    3    4 ar  
     4    3    6 ar  
     5    4    5 ar  
     6    4   43 1   
     7    5    8 ar  
     8    5   44 1   
     9    6    7 ar  
    10    6   45 1   
    11    7    8 ar  
    12    7   46 1   
    13    8    9 1   
    14    9   10 1   
    15    9   17 1   
    16    9   83 1   
    17   10   11 1   
    18   10   47 1   
    19   10   48 1   
    20   11   12 1   
    21   11   16 2   
    22   12   13 1   
    23   12   14 1   
    24   13   49 1   
    25   13   50 1   
    26   13   51 1   
    27   14   15 2   
    28   14   52 1   
    29   15   16 1   
    30   16   53 1   
    31   17   18 1   
    32   17   54 1   
    33   17   55 1   
    34   18   19 1   
    35   18   56 1   
    36   18   57 1   
    37   19   29 1   
    38   19   84 1   
    39   20   21 1   
    40   20   27 1   
    41   20   28 1   
    42   21   22 1   
    43   21   26 2   
    44   22   23 2   
    45   23   24 1   
    46   23   58 1   
    47   24   25 1   
    48   24   26 1   
    49   25   59 1   
    50   25   60 1   
    51   25   61 1   
    52   26   62 1   
    53   29   30 1   
    54   29   63 1   
    55   29   64 1   
    56   30   31 1   
    57   30   33 1   
    58   30   65 1   
    59   31   32 1   
    60   31   66 1   
    61   31   67 1   
    62   32   35 1   
    63   32   68 1   
    64   32   69 1   
    65   33   34 1   
    66   33   70 1   
    67   33   71 1   
    68   34   35 1   
    69   34   72 1   
    70   34   73 1   
    71   35   36 1   
    72   36   37 2   
    73   36   38 1   
    74   38   39 1   
    75   39   40 1   
    76   39   41 1   
    77   39   42 1   
    78   40   74 1   
    79   40   75 1   
    80   40   76 1   
    81   41   77 1   
    82   41   78 1   
    83   41   79 1   
    84   42   80 1   
    85   42   81 1   
    86   42   82 1   
@<TRIPOS>SUBSTRUCTURE
     1 ED4         1 TEMP              0 ****  ****    0 ROOT
