@<TRIPOS>MOLECULE
ED4
   83    86     1     0     0
SMALL
bcc


@<TRIPOS>ATOM
      1 NAF        -1.2880   -0.0170   -2.2210 n1        1 ED4     -0.343800
      2 CAJ        -0.7180    0.0010   -1.2390 cg        1 ED4      0.209800
      3 CBE         0.0000    0.0000    0.0000 ca        1 ED4      0.000000
      4 CAK         1.3980    0.0000    0.0000 ca        1 ED4     -0.010000
      5 CAM         2.0850    0.0000    1.1920 ca        1 ED4     -0.212000
      6 CAL        -0.6960    0.0050    1.2130 ca        1 ED4     -0.010000
      7 CAN        -0.0030    0.0050    2.4020 ca        1 ED4     -0.212000
      8 CBF         1.3890   -0.0010    2.3990 ca        1 ED4      0.075600
      9 NBK         2.0870   -0.0010    3.6020 nh        1 ED4     -0.370000
     10 CAY         1.3600    0.1020    4.8700 c3        1 ED4      0.280100
     11 CBG         1.1900   -1.2720    5.4650 cc        1 ED4     -0.481900
     12 NBN         0.1980   -2.1680    5.1740 na        1 ED4      0.315100
     13 CAB        -0.9000   -1.9740    4.2230 c3        1 ED4     -0.048400
     14 CAP         0.4200   -3.2670    5.9260 cc        1 ED4      0.245400
     15 NBA         1.4900   -3.0710    6.6480 nd        1 ED4     -0.620000
     16 CAO         1.9860   -1.8550    6.3810 cd        1 ED4      0.336200
     17 CAW         3.5480   -0.1040    3.6020 c3        1 ED4      0.154800
     18 CAX         4.1590    1.2970    3.5430 c3        1 ED4      0.031800
     19 NBL         5.6200    1.1930    3.5430 nx        1 ED4     -0.223300
     20 SBP         6.4690    1.4360    4.9440 sy        1 ED4      0.930800
     21 CBH         6.6190   -0.1270    5.7420 cc        1 ED4      0.170200
     22 NBB         5.7540   -0.6490    6.6250 nc        1 ED4     -0.529000
     23 CAQ         6.1840   -1.8200    7.0080 cd        1 ED4      0.256400
     24 NBM         7.3470   -2.0830    6.3750 na        1 ED4      0.331100
     25 CAA         8.1610   -3.2930    6.5190 c3        1 ED4     -0.020400
     26 CAR         7.6190   -1.0120    5.5670 cd        1 ED4     -0.294600
     27 OAI         7.7820    1.8180    4.5570 o         1 ED4     -0.505800
     28 OAH         5.6420    2.2350    5.7800 o         1 ED4     -0.505800
     29 CAZ         6.3320    0.8730    2.3030 c3        1 ED4      0.105800
     30 CBI         6.5900    2.1600    1.5160 c3        1 ED4     -0.090700
     31 CAT         7.4730    1.8490    0.3050 c3        1 ED4     -0.048900
     32 CAV         7.7570    3.1460   -0.4600 c3        1 ED4      0.066500
     33 CAS         5.2570    2.7430    1.0420 c3        1 ED4     -0.048900
     34 CAU         5.5170    4.0490    0.2850 c3        1 ED4      0.066500
     35 NBJ         6.4780    3.7880   -0.7940 n         1 ED4     -0.160800
     36 CBD         6.1940    4.1310   -2.0660 c         1 ED4      0.710100
     37 OAG         6.9980    3.9090   -2.9490 o         1 ED4     -0.634000
     38 OBC         5.0180    4.7200   -2.3570 os        1 ED4     -0.422900
     39 CBO         4.7790    5.0600   -3.7480 c3        1 ED4      0.192800
     40 CAE         4.8260    3.7910   -4.6010 c3        1 ED4     -0.027767
     41 CAD         3.4020    5.7140   -3.8830 c3        1 ED4     -0.027767
     42 CAC         5.8570    6.0360   -4.2260 c3        1 ED4     -0.027767
     43 HAK         1.9390   -0.0430   -0.9370 ha        1 ED4      0.118500
     44 HAM         3.1680   -0.0070    1.1920 ha        1 ED4      0.119000
     45 HAL        -1.7770    0.0740    1.2170 ha        1 ED4      0.118500
     46 HAN        -0.5390    0.0830    3.3400 ha        1 ED4      0.119000
     47 HAY         0.3870    0.5430    4.6930 h1        1 ED4      0.039200
     48 HAYA        1.9190    0.7260    5.5570 h1        1 ED4      0.039200
     49 HAB        -1.3950   -1.0330    4.4310 h1        1 ED4      0.038700
     50 HABA       -1.6110   -2.7850    4.3220 h1        1 ED4      0.038700
     51 HABB       -0.5060   -1.9600    3.2140 h1        1 ED4      0.038700
     52 HAP        -0.1890   -4.1640    5.9290 h5        1 ED4      0.033100
     53 HAO         2.8690   -1.4160    6.8290 h4        1 ED4      0.005100
     54 HAW         3.8700   -0.6750    2.7390 h1        1 ED4      0.047700
     55 HAWA        3.8750   -0.6030    4.5070 h1        1 ED4      0.047700
     56 HAX         3.8320    1.7950    2.6390 hx        1 ED4      0.097700
     57 HAXA        3.8380    1.8670    4.4060 hx        1 ED4      0.097700
     58 HAQ         5.6930   -2.4690    7.7230 h5        1 ED4      0.053100
     59 HAA         8.5990   -3.3170    7.5090 h1        1 ED4      0.042367
     60 HAAA        7.5360   -4.1670    6.3790 h1        1 ED4      0.042367
     61 HAAB        8.9480   -3.2890    5.7750 h1        1 ED4      0.042367
     62 HAR         8.4790   -0.8950    4.9180 h4        1 ED4      0.170000
     63 HAZ         5.7300    0.1990    1.7050 hx        1 ED4      0.073700
     64 HAZA        7.2770    0.4000    2.5410 hx        1 ED4      0.073700
     65 HBI         7.0910    2.8810    2.1500 hc        1 ED4      0.061700
     66 HAT         8.4070    1.4170    0.6410 hc        1 ED4      0.030950
     67 HATA        6.9590    1.1520   -0.3460 hc        1 ED4      0.030950
     68 HAV         8.2960    2.9170   -1.3720 h1        1 ED4      0.045950
     69 HAVA        8.3460    3.8110    0.1600 h1        1 ED4      0.045950
     70 HAS         4.6250    2.9430    1.8990 hc        1 ED4      0.030950
     71 HASA        4.7680    2.0360    0.3830 hc        1 ED4      0.030950
     72 HAU         4.5880    4.4140   -0.1370 h1        1 ED4      0.045950
     73 HAUA        5.9270    4.7870    0.9650 h1        1 ED4      0.045950
     74 HAE         4.3760    2.9710   -4.0530 hc        1 ED4      0.021700
     75 HAEA        4.2790    3.9540   -5.5210 hc        1 ED4      0.021700
     76 HAEB        5.8570    3.5490   -4.8310 hc        1 ED4      0.021700
     77 HAD         3.3590    6.5970   -3.2570 hc        1 ED4      0.021700
     78 HADA        2.6370    5.0130   -3.5730 hc        1 ED4      0.021700
     79 HADB        3.2360    5.9960   -4.9160 hc        1 ED4      0.021700
     80 HAC         6.1240    6.7040   -3.4160 hc        1 ED4      0.021700
     81 HACA        6.7320    5.4810   -4.5400 hc        1 ED4      0.021700
     82 HACB        5.4760    6.6140   -5.0600 hc        1 ED4      0.021700
     83 HBL1        5.6900    2.1690    3.3310 hn        1 ED4      0.339800
@<TRIPOS>BOND
     1    1    2 3   
     2    2    3 1   
     3    3    4 ar  
     4    3    6 ar  
     5    4    5 ar  
     6    4   43 1   
     7    5    8 ar  
     8    5   44 1   
     9    6    7 ar  
    10    6   45 1   
    11    7    8 ar  
    12    7   46 1   
    13    8    9 1   
    14    9   10 1   
    15    9   17 1   
    16   10   11 1   
    17   10   47 1   
    18   10   48 1   
    19   11   12 1   
    20   11   16 2   
    21   12   13 1   
    22   12   14 1   
    23   13   49 1   
    24   13   50 1   
    25   13   51 1   
    26   14   15 2   
    27   14   52 1   
    28   15   16 1   
    29   16   53 1   
    30   17   18 1   
    31   17   54 1   
    32   17   55 1   
    33   18   19 1   
    34   18   56 1   
    35   18   57 1   
    36   19   20 1   
    37   19   29 1   
    38   19   83 1   
    39   20   21 1   
    40   20   27 2   
    41   20   28 2   
    42   21   22 1   
    43   21   26 2   
    44   22   23 2   
    45   23   24 1   
    46   23   58 1   
    47   24   25 1   
    48   24   26 1   
    49   25   59 1   
    50   25   60 1   
    51   25   61 1   
    52   26   62 1   
    53   29   30 1   
    54   29   63 1   
    55   29   64 1   
    56   30   31 1   
    57   30   33 1   
    58   30   65 1   
    59   31   32 1   
    60   31   66 1   
    61   31   67 1   
    62   32   35 1   
    63   32   68 1   
    64   32   69 1   
    65   33   34 1   
    66   33   70 1   
    67   33   71 1   
    68   34   35 1   
    69   34   72 1   
    70   34   73 1   
    71   35   36 1   
    72   36   37 2   
    73   36   38 1   
    74   38   39 1   
    75   39   40 1   
    76   39   41 1   
    77   39   42 1   
    78   40   74 1   
    79   40   75 1   
    80   40   76 1   
    81   41   77 1   
    82   41   78 1   
    83   41   79 1   
    84   42   80 1   
    85   42   81 1   
    86   42   82 1   
@<TRIPOS>SUBSTRUCTURE
     1 ED4         1 TEMP              0 ****  ****    0 ROOT
