@<TRIPOS>MOLECULE
ED4
   82    75     1     0     0
SMALL
bcc


@<TRIPOS>ATOM
      1 NAF        -6.1770   -8.3840    1.2280 n1        1 ED4     -0.046000
      2 CAJ        -5.7490   -7.3300    1.1710 c1        1 ED4     -0.091000
      3 CBE        -5.1870   -5.9440    1.0960 c1        1 ED4     -0.041000
      4 CAK        -3.9880   -5.6450    1.7310 c2        1 ED4     -0.071000
      5 CAM        -3.4740   -4.3400    1.6800 c1        1 ED4     -0.176000
      6 CAL        -5.8820   -4.9440    0.4060 c1        1 ED4     -0.075000
      7 CAN        -5.3730   -3.6490    0.3540 c1        1 ED4     -0.154000
      8 CBF        -4.1650   -3.3470    0.9930 c1        1 ED4      0.075000
      9 NBK        -3.6810   -1.9850    1.0090 n3        1 ED4     -0.249000
     10 CAY        -4.6180   -0.8870    1.1290 c3        1 ED4      0.027000
     11 CBG        -4.7380   -0.4830    2.5990 c2        1 ED4     -0.174000
     12 NBN        -5.5280    0.4950    3.0920 n2        1 ED4     -0.137000
     13 CAB        -6.4230    1.2930    2.3450 c2        1 ED4     -0.091000
     14 CAP        -5.4090    0.4860    4.4520 c1        1 ED4     -0.099000
     15 NBA        -4.5350   -0.5100    4.7950 n2        1 ED4     -0.148000
     16 CAO        -4.1200   -1.1080    3.6630 c1        1 ED4     -0.156000
     17 CAW        -2.2210   -1.7120    0.9450 c3        1 ED4     -0.081000
     18 CAX        -1.9650   -0.5110    0.0110 c3        1 ED4     -0.022000
     19 NBL        -0.5220   -0.3140   -0.1580 n3        1 ED4     -0.818000
     20 SBP         0.4640   -0.1510    1.1830 s4        1 ED4      2.100800
     21 CBH         1.5980   -1.5290    1.2850 c1        1 ED4     -0.435000
     22 NBB         1.9020   -2.3760    0.2860 n2        1 ED4     -0.109000
     23 CAQ         2.8600   -3.2050    0.7220 c1        1 ED4     -0.094000
     24 NBM         3.1540   -2.8690    2.0040 n2        1 ED4     -0.109000
     25 CAA         4.1220   -3.5140    2.8440 c2        1 ED4     -0.091000
     26 CAR         2.3790   -1.8400    2.3490 c1        1 ED4     -0.435000
     27 OAI         1.1690    1.1060    1.1660 o         1 ED4     -0.550900
     28 OAH        -0.3100   -0.0190    2.3880 o         1 ED4     -0.550900
     29 CAZ         0.0800   -0.3320   -1.5340 c3        1 ED4     -0.007000
     30 CBI         0.9210    0.7750   -1.6950 c3        1 ED4     -0.134000
     31 CAT         2.4400    0.3720   -1.6330 c3        1 ED4     -0.172500
     32 CAV         3.3810    1.5620   -1.8470 c3        1 ED4     -0.029000
     33 CAS         0.9320    1.2800   -3.1730 c3        1 ED4     -0.172500
     34 CAU         1.8700    2.4660   -3.3920 c3        1 ED4     -0.029000
     35 NBJ         2.7650    2.5620   -2.4240 n         1 ED4     -0.288000
     36 CBD         3.1140    3.9060   -1.9730 c2        1 ED4      0.396000
     37 OAG         2.3120    4.8390   -2.1310 o         1 ED4     -0.406000
     38 OBC         4.4160    4.1650   -1.4330 os        1 ED4     -0.283000
     39 CBO         5.2780    4.9420   -2.3180 c3        1 ED4      0.114000
     40 CAE         4.4440    6.0180   -3.0300 c3        1 ED4     -0.231333
     41 CAD         6.3980    5.6220   -1.4840 c3        1 ED4     -0.231333
     42 CAC         5.9320    3.9780   -3.3980 c3        1 ED4     -0.231333
     43 HAK        -3.5060   -6.3390    2.2100 ha        1 ED4      0.144000
     44 HAM        -2.6480   -4.1330    2.1170 ha        1 ED4      0.147000
     45 HAL        -6.7190   -5.1530   -0.0370 ha        1 ED4      0.145000
     46 HAN        -5.8590   -2.9510   -0.1300 ha        1 ED4      0.145000
     47 HAY        -4.3000   -0.1320    0.6100 h1        1 ED4      0.105500
     48 HAYA       -5.4870   -1.1650    0.7980 h1        1 ED4      0.105500
     49 HAB        -6.0450    1.4610    1.4500 ha        1 ED4      0.105167
     50 HABA       -7.2790    0.8270    2.2560 ha        1 ED4      0.105167
     51 HABB       -6.5620    2.1400    2.8030 ha        1 ED4      0.105167
     52 HAP        -5.8780    1.1010    5.0860 DU        1 ED4      0.198000
     53 HAO        -3.4860   -1.8610    3.6040 DU        1 ED4      0.198000
     54 HAW        -1.8890   -1.5060    1.8400 h1        1 ED4      0.098500
     55 HAWA       -1.7570   -2.4990    0.5990 h1        1 ED4      0.098500
     56 HAX        -2.3560    0.2850    0.3960 h1        1 ED4      0.105500
     57 HAXA       -2.3700   -0.6830   -0.8520 h1        1 ED4      0.105500
     58 HAQ         3.2700   -3.9180    0.2130 DU        1 ED4      0.198000
     59 HAA         3.7160   -3.7330    3.6920 ha        1 ED4      0.105167
     60 HAAA        4.8710   -2.9170    2.9900 ha        1 ED4      0.105167
     61 HAAB        4.4430   -4.3500    2.4030 ha        1 ED4      0.105167
     62 HAR         2.3740   -1.3780    3.2390 DU        1 ED4      0.198000
     63 HAZ        -0.6290   -0.2970   -2.1960 h1        1 ED4      0.090000
     64 HAZA        0.6030   -1.1630   -1.6550 h1        1 ED4      0.090000
     65 HBI         0.7130    1.4820   -1.0780 hc        1 ED4      0.124000
     66 HAT         2.6160   -0.2920   -2.3170 hc        1 ED4      0.090000
     67 HATA        2.6270   -0.0220   -0.7510 hc        1 ED4      0.090000
     68 HAV         4.1380    1.2780   -2.4160 h1        1 ED4      0.101000
     69 HAVA        3.7270    1.8580   -0.9780 h1        1 ED4      0.101000
     70 HAS         1.2140    0.5420   -3.7560 hc        1 ED4      0.090000
     71 HASA        0.0060    1.5540   -3.4260 hc        1 ED4      0.090000
     72 HAU         2.3380    2.3510   -4.2540 h1        1 ED4      0.101000
     73 HAUA        1.3400    3.2930   -3.4230 h1        1 ED4      0.101000
     74 HAE         3.8260    6.4300   -2.3890 hc        1 ED4      0.090889
     75 HAEA        3.9330    5.6070   -3.7590 hc        1 ED4      0.090889
     76 HAEB        5.0420    6.7070   -3.3980 hc        1 ED4      0.090889
     77 HAD         6.8120    4.9560   -0.8880 hc        1 ED4      0.090889
     78 HADA        7.0810    5.9910   -2.0900 hc        1 ED4      0.090889
     79 HADB        6.0070    6.3550   -0.9400 hc        1 ED4      0.090889
     80 HAC         5.3260    3.9020   -4.1870 hc        1 ED4      0.090889
     81 HACA        6.8130    4.3520   -3.6910 hc        1 ED4      0.090889
     82 HACB        6.0710    3.0810   -2.9990 hc        1 ED4      0.090889
@<TRIPOS>BOND
     1    1    2 1   
     2    3    4 1   
     3    3    6 1   
     4    4    5 1   
     5    4   43 1   
     6    5   44 1   
     7    6   45 1   
     8    7    8 1   
     9    7   46 1   
    10    8    9 1   
    11    9   10 1   
    12    9   17 1   
    13   10   11 1   
    14   10   47 1   
    15   10   48 1   
    16   11   12 1   
    17   11   16 1   
    18   12   14 1   
    19   13   49 1   
    20   13   50 1   
    21   13   51 1   
    22   14   15 1   
    23   15   16 1   
    24   17   18 1   
    25   17   54 1   
    26   17   55 1   
    27   18   19 1   
    28   18   56 1   
    29   18   57 1   
    30   19   20 1   
    31   19   29 1   
    32   20   27 1   
    33   20   28 1   
    34   21   22 1   
    35   21   26 1   
    36   22   23 1   
    37   23   24 1   
    38   24   26 1   
    39   25   59 1   
    40   25   60 1   
    41   25   61 1   
    42   29   30 1   
    43   29   63 1   
    44   29   64 1   
    45   30   31 1   
    46   30   33 1   
    47   30   65 1   
    48   31   32 1   
    49   31   66 1   
    50   31   67 1   
    51   32   35 1   
    52   32   68 1   
    53   32   69 1   
    54   33   34 1   
    55   33   70 1   
    56   33   71 1   
    57   34   35 1   
    58   34   72 1   
    59   34   73 1   
    60   35   36 1   
    61   36   37 1   
    62   36   38 1   
    63   38   39 1   
    64   39   40 1   
    65   39   41 1   
    66   39   42 1   
    67   40   74 1   
    68   40   75 1   
    69   40   76 1   
    70   41   77 1   
    71   41   78 1   
    72   41   79 1   
    73   42   80 1   
    74   42   81 1   
    75   42   82 1   
@<TRIPOS>SUBSTRUCTURE
     1 ED4         1 TEMP              0 ****  ****    0 ROOT
