@<TRIPOS>MOLECULE
ED5
   86    88     1     0     0
SMALL
bcc


@<TRIPOS>ATOM
      1 OAG        -0.1190   -1.2930   -0.5430 o         1 ED5     -0.610000
      2 CBE         0.9690   -0.7010   -0.4150 c         1 ED5      0.736100
      3 OBD         1.8180   -1.0370    0.6070 os        1 ED5     -0.444900
      4 CBP         1.2790   -1.7020    1.7870 c3        1 ED5      0.184800
      5 CAC         0.8350   -3.1140    1.4460 c3        1 ED5     -0.114433
      6 CAD         2.4830   -1.7320    2.7270 c3        1 ED5     -0.114433
      7 CAE         0.1490   -0.8880    2.3900 c3        1 ED5     -0.114433
      8 NBL         1.4320    0.3500   -1.2250 n         1 ED5     -0.397800
      9 CAX         0.7430    0.5550   -2.4860 c3        1 ED5      0.069000
     10 CAV         1.3540   -0.2000   -3.6670 c3        1 ED5     -0.113900
     11 CAW         2.8590    0.5920   -1.3130 c3        1 ED5      0.069000
     12 CAU         3.5500   -0.2030   -2.4230 c3        1 ED5     -0.113900
     13 CBK         2.8570   -0.0180   -3.7680 c3        1 ED5     -0.081700
     14 CBB         3.4770   -1.0270   -4.7500 c3        1 ED5      0.112800
     15 NBN         3.0100   -0.9650   -6.1370 n3        1 ED5     -0.903200
     16 SBQ         4.7970   -0.8700   -7.6350 s4        1 ED5      1.647300
     17 OAI         4.0470   -0.1830   -8.5430 o         1 ED5     -0.437400
     18 OAH         5.6110   -0.2310   -6.7490 o         1 ED5     -0.437400
     19 CBJ         5.1110   -2.3740   -7.9720 ca        1 ED5     -0.584500
     20 CAN         4.5020   -2.9340   -9.1320 ca        1 ED5     -0.001000
     21 CAL         4.7760   -4.2180   -9.5560 ca        1 ED5     -0.150000
     22 CAK         5.6760   -5.0120   -8.8300 ca        1 ED5      0.024000
     23 CAM         6.2850   -4.5000   -7.6880 ca        1 ED5     -0.166000
     24 CBF         6.0160   -3.2000   -7.2490 ca        1 ED5      0.113700
     25 CAA         6.7020   -2.7020   -6.0340 c3        1 ED5     -0.115800
     26 CAZ         1.8960   -1.8590   -6.4730 c3        1 ED5      0.066800
     27 CAY         2.1720   -3.3750   -6.3350 c3        1 ED5      0.207800
     28 NBM         1.0250   -4.2280   -6.5390 nh        1 ED5     -0.649000
     29 CBH         0.3490   -4.1570   -7.7780 ca        1 ED5      0.160600
     30 CAQ         1.0780   -3.9900   -8.9800 ca        1 ED5     -0.191000
     31 CAO         0.4410   -4.0150  -10.2150 ca        1 ED5     -0.058500
     32 CAR        -1.0520   -4.3360   -7.8800 ca        1 ED5     -0.191000
     33 CAP        -1.6820   -4.3660   -9.1180 ca        1 ED5     -0.058500
     34 CBG        -0.9430   -4.2040  -10.2970 ca        1 ED5     -0.030000
     35 CAJ        -1.5870   -4.2290  -11.5620 cg        1 ED5      0.219800
     36 NAF        -2.1130   -4.2500  -12.6000 n1        1 ED5     -0.331800
     37 CBA         0.2750   -4.5870   -5.3510 c3        1 ED5      0.276100
     38 CBI        -0.5120   -3.5040   -4.6970 cc        1 ED5     -0.293900
     39 CAS        -1.2490   -2.4480   -5.2810 cd        1 ED5      0.288200
     40 NBC        -1.8380   -1.6660   -4.2960 nd        1 ED5     -0.674000
     41 CAT        -1.4860   -2.2280   -3.1180 cc        1 ED5      0.417400
     42 NBO        -0.6740   -3.3560   -3.3090 na        1 ED5     -0.190900
     43 CAB        -0.1800   -4.2070   -2.2780 c3        1 ED5      0.010600
     44 HAC        -0.1320   -3.0950    0.8870 hc        1 ED5      0.054478
     45 HACA        1.6060   -3.6190    0.8170 hc        1 ED5      0.054478
     46 HACB        0.6960   -3.6960    2.3880 hc        1 ED5      0.054478
     47 HAD         3.3080   -2.3350    2.2800 hc        1 ED5      0.054478
     48 HADA        2.8530   -0.6960    2.9120 hc        1 ED5      0.054478
     49 HADB        2.1730   -2.1910    3.6960 hc        1 ED5      0.054478
     50 HAE        -0.1720   -1.3560    3.3510 hc        1 ED5      0.054478
     51 HAEA        0.4900    0.1560    2.5910 hc        1 ED5      0.054478
     52 HAEB       -0.7250   -0.8550    1.6950 hc        1 ED5      0.054478
     53 HAX        -0.3370    0.2430   -2.3780 h1        1 ED5      0.083200
     54 HAXA        0.7770    1.6630   -2.6920 h1        1 ED5      0.083200
     55 HAV         1.1120   -1.2910   -3.5680 hc        1 ED5      0.056200
     56 HAVA        0.8570    0.1790   -4.5990 hc        1 ED5      0.056200
     57 HAW         3.3460    0.3520   -0.3260 h1        1 ED5      0.083200
     58 HAWA        2.9890    1.6940   -1.5130 h1        1 ED5      0.083200
     59 HAU         4.6140    0.1440   -2.4960 hc        1 ED5      0.056200
     60 HAUA        3.5630   -1.2900   -2.1470 hc        1 ED5      0.056200
     61 HBK         3.0680    1.0280   -4.1300 hc        1 ED5      0.065700
     62 HBB         3.3190   -2.0630   -4.3400 h1        1 ED5      0.072700
     63 HBBA        4.5900   -0.8250   -4.7710 h1        1 ED5      0.072700
     64 HAN         3.7980   -2.3080   -9.7170 ha        1 ED5      0.175000
     65 HAL         4.2920   -4.6210  -10.4620 ha        1 ED5      0.180000
     66 HAK         5.9010   -6.0400   -9.1670 ha        1 ED5      0.176000
     67 HAM         6.9950   -5.1270   -7.1200 ha        1 ED5      0.175000
     68 HAA         5.9610   -2.3520   -5.2700 hc        1 ED5      0.085033
     69 HAAA        7.3290   -3.5030   -5.5650 hc        1 ED5      0.085033
     70 HAAB        7.3760   -1.8400   -6.2830 hc        1 ED5      0.085033
     71 HAZ         0.9940   -1.6110   -5.8340 h1        1 ED5      0.091700
     72 HAZA        1.6180   -1.6450   -7.5470 h1        1 ED5      0.091700
     73 HAY         2.5790   -3.5980   -5.3090 h1        1 ED5      0.051700
     74 HAYA        2.9640   -3.6660   -7.0850 h1        1 ED5      0.051700
     75 HAQ         2.1710   -3.8640   -8.9620 ha        1 ED5      0.137000
     76 HAO         1.0310   -3.8900  -11.1370 ha        1 ED5      0.152000
     77 HAR        -1.6750   -4.4500   -6.9780 ha        1 ED5      0.137000
     78 HAP        -2.7740   -4.5130   -9.1690 ha        1 ED5      0.152000
     79 HBA         1.0230   -5.0130   -4.6160 h1        1 ED5      0.073200
     80 HBAA       -0.4270   -5.4300   -5.6280 h1        1 ED5      0.073200
     81 HAS        -1.3910   -2.2320   -6.3400 h4        1 ED5      0.044100
     82 HAT        -1.7510   -1.8630   -2.1140 h5        1 ED5      0.097100
     83 HAB         0.8810   -4.5030   -2.4960 h1        1 ED5      0.063367
     84 HABA       -0.8060   -5.1370   -2.2030 h1        1 ED5      0.063367
     85 HABB       -0.2140   -3.6540   -1.2960 h1        1 ED5      0.063367
     86 HBN1        2.6650   -0.0230   -6.3030 hn        1 ED5      0.402800
@<TRIPOS>BOND
     1    1    2 2   
     2    2    3 1   
     3    2    8 1   
     4    3    4 1   
     5    4    5 1   
     6    4    6 1   
     7    4    7 1   
     8    5   44 1   
     9    5   45 1   
    10    5   46 1   
    11    6   47 1   
    12    6   48 1   
    13    6   49 1   
    14    7   50 1   
    15    7   51 1   
    16    7   52 1   
    17    8    9 1   
    18    8   11 1   
    19    9   10 1   
    20    9   53 1   
    21    9   54 1   
    22   10   13 1   
    23   10   55 1   
    24   10   56 1   
    25   11   12 1   
    26   11   57 1   
    27   11   58 1   
    28   12   13 1   
    29   12   59 1   
    30   12   60 1   
    31   13   14 1   
    32   13   61 1   
    33   14   15 1   
    34   14   62 1   
    35   14   63 1   
    36   15   26 1   
    37   15   86 1   
    38   16   17 1   
    39   16   18 1   
    40   16   19 1   
    41   19   20 ar  
    42   19   24 ar  
    43   20   21 ar  
    44   20   64 1   
    45   21   22 ar  
    46   21   65 1   
    47   22   23 ar  
    48   22   66 1   
    49   23   24 ar  
    50   23   67 1   
    51   24   25 1   
    52   25   68 1   
    53   25   69 1   
    54   25   70 1   
    55   26   27 1   
    56   26   71 1   
    57   26   72 1   
    58   27   28 1   
    59   27   73 1   
    60   27   74 1   
    61   28   29 1   
    62   28   37 1   
    63   29   30 ar  
    64   29   32 ar  
    65   30   31 ar  
    66   30   75 1   
    67   31   34 ar  
    68   31   76 1   
    69   32   33 ar  
    70   32   77 1   
    71   33   34 ar  
    72   33   78 1   
    73   34   35 1   
    74   35   36 3   
    75   37   38 1   
    76   37   79 1   
    77   37   80 1   
    78   38   39 2   
    79   38   42 1   
    80   39   40 1   
    81   39   81 1   
    82   40   41 2   
    83   41   42 1   
    84   41   82 1   
    85   42   43 1   
    86   43   83 1   
    87   43   84 1   
    88   43   85 1   
@<TRIPOS>SUBSTRUCTURE
     1 ED5         1 TEMP              0 ****  ****    0 ROOT
