@<TRIPOS>MOLECULE
ED5
   86    88     1     0     0
SMALL
bcc


@<TRIPOS>ATOM
      1 OAG        -0.0880   -1.3380   -0.5160 o         1 ED5     -0.610000
      2 CBE         0.9860   -0.7190   -0.4050 c         1 ED5      0.736100
      3 OBD         1.8580   -1.0310    0.6050 os        1 ED5     -0.444900
      4 CBP         1.3540   -1.7080    1.7940 c3        1 ED5      0.184800
      5 CAC         0.9420   -3.1320    1.4610 c3        1 ED5     -0.114433
      6 CAD         2.5710   -1.7050    2.7170 c3        1 ED5     -0.114433
      7 CAE         0.2110   -0.9230    2.4120 c3        1 ED5     -0.114433
      8 NBL         1.4110    0.3430   -1.2220 n         1 ED5     -0.397800
      9 CAX         0.6990    0.5290   -2.4730 c3        1 ED5      0.069000
     10 CAV         1.3120   -0.2120   -3.6630 c3        1 ED5     -0.113900
     11 CAW         2.8300    0.6210   -1.3310 c3        1 ED5      0.069000
     12 CAU         3.5250   -0.1580   -2.4500 c3        1 ED5     -0.113900
     13 CBK         2.8080    0.0080   -3.7860 c3        1 ED5     -0.081700
     14 CBB         3.4390   -0.9870   -4.7750 c3        1 ED5      0.112800
     15 NBN         2.9500   -0.9380   -6.1560 n7        1 ED5     -0.903200
     16 SBQ         4.7130   -0.8010   -7.6800 s4        1 ED5      1.647300
     17 OAI         3.9320   -0.1370   -8.5780 o         1 ED5     -0.437400
     18 OAH         5.5220   -0.1390   -6.8070 o         1 ED5     -0.437400
     19 CBJ         5.0610   -2.2980   -8.0170 ca        1 ED5     -0.584500
     20 CAN         4.4500   -2.8770   -9.1660 ca        1 ED5     -0.001000
     21 CAL         4.7510   -4.1550   -9.5900 ca        1 ED5     -0.150000
     22 CAK         5.6830   -4.9230   -8.8760 ca        1 ED5      0.024000
     23 CAM         6.2950   -4.3910   -7.7440 ca        1 ED5     -0.166000
     24 CBF         5.9980   -3.0970   -7.3050 ca        1 ED5      0.113700
     25 CAA         6.6900   -2.5770   -6.1020 c3        1 ED5     -0.115800
     26 CAZ         1.8540   -1.8600   -6.4740 c3        1 ED5      0.066800
     27 CAY         2.1700   -3.3690   -6.3390 c3        1 ED5      0.207800
     28 NBM         1.0420   -4.2500   -6.5260 nh        1 ED5     -0.649000
     29 CBH         0.3470   -4.1980   -7.7560 ca        1 ED5      0.160600
     30 CAQ         1.0550   -4.0170   -8.9680 ca        1 ED5     -0.191000
     31 CAO         0.4030   -4.0590  -10.1940 ca        1 ED5     -0.058500
     32 CAR        -1.0510   -4.4100   -7.8380 ca        1 ED5     -0.191000
     33 CAP        -1.6970   -4.4580   -9.0670 ca        1 ED5     -0.058500
     34 CBG        -0.9780   -4.2810  -10.2570 ca        1 ED5     -0.030000
     35 CAJ        -1.6390   -4.3240  -11.5130 cg        1 ED5      0.219800
     36 NAF        -2.1780   -4.3590  -12.5430 n1        1 ED5     -0.331800
     37 CBA         0.3160   -4.6260   -5.3270 c3        1 ED5      0.276100
     38 CBI        -0.4870   -3.5620   -4.6630 cc        1 ED5     -0.293900
     39 CAS        -1.2580   -2.5250   -5.2370 cd        1 ED5      0.288200
     40 NBC        -1.8520   -1.7560   -4.2440 nd        1 ED5     -0.674000
     41 CAT        -1.4690   -2.3080   -3.0710 cc        1 ED5      0.417400
     42 NBO        -0.6330   -3.4160   -3.2730 na        1 ED5     -0.190900
     43 CAB        -0.1030   -4.2530   -2.2480 c3        1 ED5      0.010600
     44 HAC         1.7180   -3.6170    0.8230 hc        1 ED5      0.054478
     45 HACA       -0.0330   -3.1390    0.9140 hc        1 ED5      0.054478
     46 HACB        0.8310   -3.7150    2.4060 hc        1 ED5      0.054478
     47 HAD         2.2870   -2.1710    3.6900 hc        1 ED5      0.054478
     48 HADA        2.9160   -0.6600    2.8960 hc        1 ED5      0.054478
     49 HADB        3.4050   -2.2860    2.2590 hc        1 ED5      0.054478
     50 HAE        -0.6730   -0.9140    1.7300 hc        1 ED5      0.054478
     51 HAEA       -0.0840   -1.3970    3.3780 hc        1 ED5      0.054478
     52 HAEB        0.5270    0.1300    2.6060 hc        1 ED5      0.054478
     53 HAX         0.7020    1.6370   -2.6810 h1        1 ED5      0.083200
     54 HAXA       -0.3710    0.1900   -2.3500 h1        1 ED5      0.083200
     55 HAV         0.7920    0.1530   -4.5880 hc        1 ED5      0.056200
     56 HAVA        1.0990   -1.3090   -3.5590 hc        1 ED5      0.056200
     57 HAW         3.3370    0.3950   -0.3510 h1        1 ED5      0.083200
     58 HAWA        2.9290    1.7260   -1.5340 h1        1 ED5      0.083200
     59 HAU         3.5700   -1.2440   -2.1740 hc        1 ED5      0.056200
     60 HAUA        4.5780    0.2150   -2.5390 hc        1 ED5      0.056200
     61 HBK         2.9870    1.0580   -4.1520 hc        1 ED5      0.065700
     62 HBB         4.5460   -0.7570   -4.8130 h1        1 ED5      0.072700
     63 HBBA        3.3130   -2.0260   -4.3620 h1        1 ED5      0.072700
     64 HAN         3.7210   -2.2720   -9.7420 ha        1 ED5      0.175000
     65 HAL         4.2640   -4.5740  -10.4880 ha        1 ED5      0.180000
     66 HAK         5.9290   -5.9460   -9.2130 ha        1 ED5      0.176000
     67 HAM         7.0300   -4.9970   -7.1860 ha        1 ED5      0.175000
     68 HAA         7.3450   -3.3590   -5.6410 hc        1 ED5      0.085033
     69 HAAA        5.9510   -2.2450   -5.3280 hc        1 ED5      0.085033
     70 HAAB        7.3360   -1.6980   -6.3640 hc        1 ED5      0.085033
     71 HAZ         0.9550   -1.6330   -5.8230 h1        1 ED5      0.091700
     72 HAZA        1.5560   -1.6550   -7.5450 h1        1 ED5      0.091700
     73 HAY         2.9580   -3.6410   -7.0990 h1        1 ED5      0.051700
     74 HAYA        2.5960   -3.5800   -5.3180 h1        1 ED5      0.051700
     75 HAQ         2.1450   -3.8650   -8.9650 ha        1 ED5      0.137000
     76 HAO         0.9760   -3.9220  -11.1240 ha        1 ED5      0.152000
     77 HAR        -1.6590   -4.5370   -6.9270 ha        1 ED5      0.137000
     78 HAP        -2.7850   -4.6300   -9.1030 ha        1 ED5      0.152000
     79 HBA        -0.3680   -5.4860   -5.5930 h1        1 ED5      0.073200
     80 HBAA        1.0850   -5.0330   -4.6030 h1        1 ED5      0.073200
     81 HAS        -1.4210   -2.3130   -6.2940 h4        1 ED5      0.044100
     82 HAT        -1.7290   -1.9490   -2.0630 h5        1 ED5      0.097100
     83 HAB        -0.7060   -5.1990   -2.1640 h1        1 ED5      0.063367
     84 HABA        0.9620   -4.5230   -2.4810 h1        1 ED5      0.063367
     85 HABB       -0.1370   -3.7010   -1.2670 h1        1 ED5      0.063367
     86 HBN1        2.5800   -0.0050   -6.3170 hn        1 ED5      0.402800
@<TRIPOS>BOND
     1    1    2 2   
     2    2    3 1   
     3    2    8 1   
     4    3    4 1   
     5    4    5 1   
     6    4    6 1   
     7    4    7 1   
     8    5   44 1   
     9    5   45 1   
    10    5   46 1   
    11    6   47 1   
    12    6   48 1   
    13    6   49 1   
    14    7   50 1   
    15    7   51 1   
    16    7   52 1   
    17    8    9 1   
    18    8   11 1   
    19    9   10 1   
    20    9   53 1   
    21    9   54 1   
    22   10   13 1   
    23   10   55 1   
    24   10   56 1   
    25   11   12 1   
    26   11   57 1   
    27   11   58 1   
    28   12   13 1   
    29   12   59 1   
    30   12   60 1   
    31   13   14 1   
    32   13   61 1   
    33   14   15 1   
    34   14   62 1   
    35   14   63 1   
    36   15   26 1   
    37   15   86 1   
    38   16   17 1   
    39   16   18 1   
    40   16   19 1   
    41   19   20 ar  
    42   19   24 ar  
    43   20   21 ar  
    44   20   64 1   
    45   21   22 ar  
    46   21   65 1   
    47   22   23 ar  
    48   22   66 1   
    49   23   24 ar  
    50   23   67 1   
    51   24   25 1   
    52   25   68 1   
    53   25   69 1   
    54   25   70 1   
    55   26   27 1   
    56   26   71 1   
    57   26   72 1   
    58   27   28 1   
    59   27   73 1   
    60   27   74 1   
    61   28   29 1   
    62   28   37 1   
    63   29   30 ar  
    64   29   32 ar  
    65   30   31 ar  
    66   30   75 1   
    67   31   34 ar  
    68   31   76 1   
    69   32   33 ar  
    70   32   77 1   
    71   33   34 ar  
    72   33   78 1   
    73   34   35 1   
    74   35   36 3   
    75   37   38 1   
    76   37   79 1   
    77   37   80 1   
    78   38   39 2   
    79   38   42 1   
    80   39   40 1   
    81   39   81 1   
    82   40   41 2   
    83   41   42 1   
    84   41   82 1   
    85   42   43 1   
    86   43   83 1   
    87   43   84 1   
    88   43   85 1   
@<TRIPOS>SUBSTRUCTURE
     1 ED5         1 TEMP              0 ****  ****    0 ROOT
