@<TRIPOS>MOLECULE
ED5
   85    88     1     0     0
SMALL
bcc


@<TRIPOS>ATOM
      1 OAG         4.5570   -1.5320    0.4640 o         1 ED5     -0.608000
      2 CBE         4.7600   -0.3050    0.5250 c         1 ED5      0.724100
      3 OBD         5.6430    0.2810   -0.3470 os        1 ED5     -0.442900
      4 CBP         6.5630   -0.5550   -1.0990 c3        1 ED5      0.183800
      5 CAC         5.8090   -1.4170   -2.0990 c3        1 ED5     -0.113433
      6 CAD         7.4270    0.4720   -1.8300 c3        1 ED5     -0.113433
      7 CAE         7.4160   -1.3970   -0.1660 c3        1 ED5     -0.113433
      8 NBL         4.2020    0.5870    1.4620 n         1 ED5     -0.379800
      9 CAX         3.0430    0.0780    2.1860 c3        1 ED5      0.058000
     10 CAV         1.7320    0.2250    1.4190 c3        1 ED5     -0.107400
     11 CAW         4.0220    1.9700    1.0520 c3        1 ED5      0.058000
     12 CAU         2.7490    2.2150    0.2390 c3        1 ED5     -0.107400
     13 CBK         1.5080    1.6380    0.9090 c3        1 ED5     -0.094700
     14 CBB         0.3660    1.6670   -0.1280 c3        1 ED5      0.228800
     15 NBN        -0.9340    1.2900    0.3520 n3        1 ED5     -0.802500
     16 SBQ        -1.9530    2.3590    1.0610 sy        1 ED5      1.503200
     17 OAI        -3.2040    1.7270    1.2610 o         1 ED5     -0.653800
     18 OAH        -1.3560    2.9220    2.2050 o         1 ED5     -0.653800
     19 CBJ        -2.1430    3.5490   -0.1300 ca        1 ED5     -0.380500
     20 CAN        -3.1110    3.2950   -1.1170 ca        1 ED5     -0.025000
     21 CAL        -3.3860    4.2120   -2.1220 ca        1 ED5     -0.160000
     22 CAK        -2.6890    5.4210   -2.1590 ca        1 ED5     -0.060000
     23 CAM        -1.7310    5.6970   -1.1890 ca        1 ED5     -0.165000
     24 CBF        -1.4520    4.7720   -0.1710 ca        1 ED5      0.053700
     25 CAA        -0.4400    5.1320    0.8520 c3        1 ED5     -0.086800
     26 CAZ        -1.3090   -0.0910    0.2010 c3        1 ED5      0.173800
     27 CAY        -1.8440   -0.4440   -1.2110 c3        1 ED5      0.183800
     28 NBM        -2.2110   -1.8290   -1.4070 nh        1 ED5     -0.651000
     29 CBH        -3.2930   -2.3500   -0.6750 ca        1 ED5      0.187600
     30 CAQ        -4.2230   -1.4910   -0.0310 ca        1 ED5     -0.200000
     31 CAO        -5.3600   -1.9980    0.5820 ca        1 ED5     -0.052500
     32 CAR        -3.5540   -3.7430   -0.6270 ca        1 ED5     -0.200000
     33 CAP        -4.6960   -4.2400   -0.0150 ca        1 ED5     -0.052500
     34 CBG        -5.6150   -3.3750    0.5910 ca        1 ED5     -0.068000
     35 CAJ        -6.7840   -3.8870    1.2110 cg        1 ED5      0.244800
     36 NAF        -7.7440   -4.3080    1.7180 n1        1 ED5     -0.379800
     37 CBA        -1.1430   -2.7050   -1.8460 c3        1 ED5      0.282100
     38 CBI        -0.1540   -3.1360   -0.8180 cc        1 ED5     -0.279900
     39 CAS        -0.3420   -3.9550    0.3160 cd        1 ED5      0.316200
     40 NBC         0.8580   -4.1210    0.9990 nd        1 ED5     -0.673000
     41 CAT         1.7800   -3.4210    0.3030 cc        1 ED5      0.404400
     42 NBO         1.2130   -2.8030   -0.8200 na        1 ED5     -0.202900
     43 CAB         1.9020   -2.0020   -1.7740 c3        1 ED5      0.014600
     44 HAC         5.0530   -0.8000   -2.6410 hc        1 ED5      0.052033
     45 HACA        6.5280   -1.8440   -2.8380 hc        1 ED5      0.052033
     46 HACB        5.2840   -2.2540   -1.5770 hc        1 ED5      0.052033
     47 HAD         7.9280    1.1450   -1.0950 hc        1 ED5      0.052033
     48 HADA        8.2010   -0.0630   -2.4280 hc        1 ED5      0.052033
     49 HADB        6.7970    1.0910   -2.5100 hc        1 ED5      0.052033
     50 HAE         6.7880   -2.1570    0.3600 hc        1 ED5      0.052033
     51 HAEA        8.2030   -1.9230   -0.7560 hc        1 ED5      0.052033
     52 HAEB        7.9060   -0.7450    0.5970 hc        1 ED5      0.052033
     53 HAX         3.2120   -1.0080    2.4310 h1        1 ED5      0.075450
     54 HAXA        2.9900    0.6600    3.1490 h1        1 ED5      0.075450
     55 HAV         1.7420   -0.4910    0.5530 hc        1 ED5      0.053950
     56 HAVA        0.8920   -0.0690    2.1020 hc        1 ED5      0.053950
     57 HAW         3.9810    2.5810    1.9980 h1        1 ED5      0.075450
     58 HAWA        4.9160    2.3020    0.4550 h1        1 ED5      0.075450
     59 HAU         2.6200    3.3210    0.1080 hc        1 ED5      0.053950
     60 HAUA        2.8730    1.7660   -0.7810 hc        1 ED5      0.053950
     61 HBK         1.2310    2.2930    1.7840 hc        1 ED5      0.077700
     62 HBB         0.2980    2.7200   -0.5380 h1        1 ED5      0.046200
     63 HBBA        0.6560    0.9940   -0.9870 h1        1 ED5      0.046200
     64 HAN        -3.6790    2.3480   -1.0750 ha        1 ED5      0.151000
     65 HAL        -4.1520    3.9900   -2.8800 ha        1 ED5      0.144000
     66 HAK        -2.9000    6.1560   -2.9500 ha        1 ED5      0.139000
     67 HAM        -1.1880    6.6540   -1.2140 ha        1 ED5      0.141000
     68 HAA         0.0750    6.0900    0.5950 hc        1 ED5      0.065033
     69 HAAA       -0.9320    5.2480    1.8540 hc        1 ED5      0.065033
     70 HAAB        0.3350    4.3290    0.9520 hc        1 ED5      0.065033
     71 HAZ        -0.4220   -0.7530    0.4190 h1        1 ED5      0.078700
     72 HAZA       -2.1060   -0.3360    0.9650 h1        1 ED5      0.078700
     73 HAY        -2.7480    0.1910   -1.4390 h1        1 ED5      0.052700
     74 HAYA       -1.0540   -0.1840   -1.9730 h1        1 ED5      0.052700
     75 HAQ        -4.0650   -0.4000    0.0130 ha        1 ED5      0.149500
     76 HAO        -6.0630   -1.3040    1.0720 ha        1 ED5      0.146000
     77 HAR        -2.8560   -4.4680   -1.0710 ha        1 ED5      0.149500
     78 HAP        -4.8750   -5.3270   -0.0020 ha        1 ED5      0.146000
     79 HBA        -1.6050   -3.6310   -2.2970 h1        1 ED5      0.064700
     80 HBAA       -0.6080   -2.1700   -2.6870 h1        1 ED5      0.064700
     81 HAS        -1.2680   -4.4130    0.6640 h4        1 ED5      0.047100
     82 HAT         2.8440   -3.3030    0.5570 h5        1 ED5      0.087100
     83 HAB         1.9130   -2.5080   -2.7770 h1        1 ED5      0.056033
     84 HABA        1.3910   -1.0050   -1.8800 h1        1 ED5      0.056033
     85 HABB        2.9620   -1.8390   -1.4280 h1        1 ED5      0.056033
@<TRIPOS>BOND
     1    1    2 2   
     2    2    3 1   
     3    2    8 1   
     4    3    4 1   
     5    4    5 1   
     6    4    6 1   
     7    4    7 1   
     8    5   44 1   
     9    5   45 1   
    10    5   46 1   
    11    6   47 1   
    12    6   48 1   
    13    6   49 1   
    14    7   50 1   
    15    7   51 1   
    16    7   52 1   
    17    8    9 1   
    18    8   11 1   
    19    9   10 1   
    20    9   53 1   
    21    9   54 1   
    22   10   13 1   
    23   10   55 1   
    24   10   56 1   
    25   11   12 1   
    26   11   57 1   
    27   11   58 1   
    28   12   13 1   
    29   12   59 1   
    30   12   60 1   
    31   13   14 1   
    32   13   61 1   
    33   14   15 1   
    34   14   62 1   
    35   14   63 1   
    36   15   16 1   
    37   15   26 1   
    38   16   17 2   
    39   16   18 2   
    40   16   19 1   
    41   19   20 ar  
    42   19   24 ar  
    43   20   21 ar  
    44   20   64 1   
    45   21   22 ar  
    46   21   65 1   
    47   22   23 ar  
    48   22   66 1   
    49   23   24 ar  
    50   23   67 1   
    51   24   25 1   
    52   25   68 1   
    53   25   69 1   
    54   25   70 1   
    55   26   27 1   
    56   26   71 1   
    57   26   72 1   
    58   27   28 1   
    59   27   73 1   
    60   27   74 1   
    61   28   29 1   
    62   28   37 1   
    63   29   30 ar  
    64   29   32 ar  
    65   30   31 ar  
    66   30   75 1   
    67   31   34 ar  
    68   31   76 1   
    69   32   33 ar  
    70   32   77 1   
    71   33   34 ar  
    72   33   78 1   
    73   34   35 1   
    74   35   36 3   
    75   37   38 1   
    76   37   79 1   
    77   37   80 1   
    78   38   39 2   
    79   38   42 1   
    80   39   40 1   
    81   39   81 1   
    82   40   41 2   
    83   41   42 1   
    84   41   82 1   
    85   42   43 1   
    86   43   83 1   
    87   43   84 1   
    88   43   85 1   
@<TRIPOS>SUBSTRUCTURE
     1 ED5         1 TEMP              0 ****  ****    0 ROOT
