@<TRIPOS>MOLECULE
ED5
   87    89     1     0     0
SMALL
bcc


@<TRIPOS>ATOM
      1 OAG         0.5490    0.4170   -0.5400 o         1 ED5     -0.576000
      2 CBE         1.7280    0.0480   -0.4200 c         1 ED5      0.730100
      3 OBD         2.1460   -0.6630    0.6680 os        1 ED5     -0.444900
      4 CBP         1.3320   -0.6480    1.8830 c3        1 ED5      0.185800
      5 CAC         0.0450   -1.4220    1.6590 c3        1 ED5     -0.116433
      6 CAD         2.2280   -1.3700    2.8860 c3        1 ED5     -0.116433
      7 CAE         1.0640    0.7770    2.3310 c3        1 ED5     -0.116433
      8 NBL         2.7540    0.3330   -1.3470 n         1 ED5     -0.408800
      9 CAX         2.3320    0.8330   -2.6390 c3        1 ED5      0.073500
     10 CAV         2.1550   -0.2570   -3.7020 c3        1 ED5     -0.113400
     11 CAW         3.9170   -0.5260   -1.4060 c3        1 ED5      0.073500
     12 CAU         3.7990   -1.6630   -2.4280 c3        1 ED5     -0.113400
     13 CBK         3.3930   -1.1340   -3.7990 c3        1 ED5     -0.086700
     14 CBB         3.1690   -2.3320   -4.7320 c3        1 ED5      0.122800
     15 NBN         2.8170   -2.0120   -6.1180 n3        1 ED5     -0.899200
     16 SBQ         4.2180   -3.1850   -7.7760 s4        1 ED5      1.683300
     17 OAI         3.5390   -4.3460   -7.5590 o         1 ED5     -0.447400
     18 OAH         3.7850   -2.3130   -8.7220 o         1 ED5     -0.447400
     19 CBJ         5.6140   -3.0110   -7.1350 ca        1 ED5     -0.633500
     20 CAN         6.0990   -4.0420   -6.2680 ca        1 ED5      0.001000
     21 CAL         7.3590   -4.0030   -5.7160 ca        1 ED5     -0.145000
     22 CAK         8.2110   -2.9200   -5.9970 ca        1 ED5      0.051000
     23 CAM         7.7700   -1.8890   -6.8220 ca        1 ED5     -0.164000
     24 CBF         6.4940   -1.9130   -7.3880 ca        1 ED5      0.128700
     25 CAA         6.0770   -0.7940   -8.2640 c3        1 ED5     -0.122800
     26 CAZ         1.3830   -2.0630   -6.4070 c3        1 ED5      0.112800
     27 CAY         0.7930   -3.4900   -6.4110 c3        1 ED5      0.096800
     28 NBM        -0.6950   -3.4830   -6.5660 n4        1 ED5     -0.562800
     29 CBH        -1.1180   -2.9990   -7.8900 ca        1 ED5     -0.052400
     30 CAQ        -0.7610   -3.7040   -9.0540 ca        1 ED5     -0.112500
     31 CAO        -1.1930   -3.2460  -10.2950 ca        1 ED5     -0.072500
     32 CAR        -1.9160   -1.8430   -7.9760 ca        1 ED5     -0.112500
     33 CAP        -2.3430   -1.3930   -9.2230 ca        1 ED5     -0.072500
     34 CBG        -1.9820   -2.0890  -10.3860 ca        1 ED5      0.072000
     35 CAJ        -2.4180   -1.6260  -11.6570 cg        1 ED5      0.174800
     36 NAF        -2.7730   -1.2460  -12.6970 n1        1 ED5     -0.240800
     37 CBA        -1.2900   -4.8580   -6.2940 c3        1 ED5      0.232100
     38 CBI        -1.1900   -5.2050   -4.8710 cc        1 ED5     -0.372900
     39 CAS        -1.7930   -4.5510   -3.7640 cd        1 ED5      0.369200
     40 NBC        -1.4860   -5.2190   -2.5940 nd        1 ED5     -0.634000
     41 CAT        -0.7280   -6.2850   -2.9590 cc        1 ED5      0.459400
     42 NBO        -0.4960   -6.3100   -4.3360 na        1 ED5     -0.181900
     43 CAB         0.1110   -7.3690   -5.0770 c3        1 ED5      0.004600
     44 HAC        -0.4790   -1.5540    2.6360 hc        1 ED5      0.057144
     45 HACA       -0.6290   -0.8700    0.9600 hc        1 ED5      0.057144
     46 HACB        0.2690   -2.4270    1.2300 hc        1 ED5      0.057144
     47 HAD         2.4540   -2.4030    2.5310 hc        1 ED5      0.057144
     48 HADA        1.7000   -1.4250    3.8670 hc        1 ED5      0.057144
     49 HADB        3.1880   -0.8160    3.0160 hc        1 ED5      0.057144
     50 HAE         2.0200    1.3490    2.3890 hc        1 ED5      0.057144
     51 HAEA        0.5890    0.7620    3.3410 hc        1 ED5      0.057144
     52 HAEB        0.3750    1.2910    1.6180 hc        1 ED5      0.057144
     53 HAX         3.1260    1.5560   -2.9840 h1        1 ED5      0.084450
     54 HAXA        1.3610    1.3950   -2.5220 h1        1 ED5      0.084450
     55 HAV         1.9570    0.2510   -4.6810 hc        1 ED5      0.048700
     56 HAVA        1.2630   -0.8850   -3.4440 hc        1 ED5      0.048700
     57 HAW         4.7930    0.1270   -1.6880 h1        1 ED5      0.084450
     58 HAWA        4.1170   -0.9650   -0.3880 h1        1 ED5      0.084450
     59 HAU         4.7890   -2.1810   -2.4980 hc        1 ED5      0.048700
     60 HAUA        3.0440   -2.4110   -2.0710 hc        1 ED5      0.048700
     61 HBK         4.2400   -0.5070   -4.1990 hc        1 ED5      0.060700
     62 HBB         2.3820   -2.9950   -4.2740 h1        1 ED5      0.064200
     63 HBBA        4.1290   -2.9260   -4.7810 h1        1 ED5      0.064200
     64 HAN         5.4370   -4.9040   -6.0530 ha        1 ED5      0.168000
     65 HAL         7.7090   -4.8210   -5.0610 ha        1 ED5      0.189000
     66 HAK         9.2290   -2.8920   -5.5630 ha        1 ED5      0.190000
     67 HAM         8.4430   -1.0380   -7.0380 ha        1 ED5      0.190000
     68 HAA         5.0950   -0.3650   -7.9370 hc        1 ED5      0.091700
     69 HAAA        5.9660   -1.1410   -9.3260 hc        1 ED5      0.091700
     70 HAAB        6.8340    0.0330   -8.2560 hc        1 ED5      0.091700
     71 HAZ         1.2280   -1.6080   -7.4300 h1        1 ED5      0.087200
     72 HAZA        0.8140   -1.4340   -5.6570 h1        1 ED5      0.087200
     73 HAY         1.0180   -4.0200   -5.4400 hx        1 ED5      0.114200
     74 HAYA        1.2330   -4.0940   -7.2560 hx        1 ED5      0.114200
     75 HAQ        -0.1530   -4.6230   -9.0050 ha        1 ED5      0.158500
     76 HAO        -0.9200   -3.8010  -11.2100 ha        1 ED5      0.187500
     77 HAR        -2.2240   -1.2840   -7.0760 ha        1 ED5      0.158500
     78 HAP        -2.9740   -0.4880   -9.2910 ha        1 ED5      0.187500
     79 HBA        -2.3780   -4.7900   -6.6000 hx        1 ED5      0.116200
     80 HBAA       -0.7660   -5.5990   -6.9620 hx        1 ED5      0.116200
     81 HAS        -2.4310   -3.6650   -3.7600 h4        1 ED5      0.056100
     82 HAT        -0.3350   -7.0480   -2.2710 h5        1 ED5      0.095100
     83 HAB        -0.6570   -7.9040   -5.7010 h1        1 ED5      0.070700
     84 HABA        0.5750   -8.1050   -4.3660 h1        1 ED5      0.070700
     85 HABB        0.9080   -6.9550   -5.7510 h1        1 ED5      0.070700
     86 HBN1        3.1080   -1.0590   -6.3090 hn        1 ED5      0.400800
     87 HBM1       -1.0810   -2.8430   -5.8530 hn        1 ED5      0.452800
@<TRIPOS>BOND
     1    1    2 2   
     2    2    3 1   
     3    2    8 1   
     4    3    4 1   
     5    4    5 1   
     6    4    6 1   
     7    4    7 1   
     8    5   44 1   
     9    5   45 1   
    10    5   46 1   
    11    6   47 1   
    12    6   48 1   
    13    6   49 1   
    14    7   50 1   
    15    7   51 1   
    16    7   52 1   
    17    8    9 1   
    18    8   11 1   
    19    9   10 1   
    20    9   53 1   
    21    9   54 1   
    22   10   13 1   
    23   10   55 1   
    24   10   56 1   
    25   11   12 1   
    26   11   57 1   
    27   11   58 1   
    28   12   13 1   
    29   12   59 1   
    30   12   60 1   
    31   13   14 1   
    32   13   61 1   
    33   14   15 1   
    34   14   62 1   
    35   14   63 1   
    36   15   26 1   
    37   15   86 1   
    38   16   17 1   
    39   16   18 1   
    40   16   19 1   
    41   19   20 ar  
    42   19   24 ar  
    43   20   21 ar  
    44   20   64 1   
    45   21   22 ar  
    46   21   65 1   
    47   22   23 ar  
    48   22   66 1   
    49   23   24 ar  
    50   23   67 1   
    51   24   25 1   
    52   25   68 1   
    53   25   69 1   
    54   25   70 1   
    55   26   27 1   
    56   26   71 1   
    57   26   72 1   
    58   27   28 1   
    59   27   73 1   
    60   27   74 1   
    61   28   29 1   
    62   28   37 1   
    63   28   87 1   
    64   29   30 ar  
    65   29   32 ar  
    66   30   31 ar  
    67   30   75 1   
    68   31   34 ar  
    69   31   76 1   
    70   32   33 ar  
    71   32   77 1   
    72   33   34 ar  
    73   33   78 1   
    74   34   35 1   
    75   35   36 3   
    76   37   38 1   
    77   37   79 1   
    78   37   80 1   
    79   38   39 2   
    80   38   42 1   
    81   39   40 1   
    82   39   81 1   
    83   40   41 2   
    84   41   42 1   
    85   41   82 1   
    86   42   43 1   
    87   43   83 1   
    88   43   84 1   
    89   43   85 1   
@<TRIPOS>SUBSTRUCTURE
     1 ED5         1 TEMP              0 ****  ****    0 ROOT
