@<TRIPOS>MOLECULE
ED7
   67    69     1     0     0
SMALL
bcc


@<TRIPOS>ATOM
      1 CAA         0.7710    1.2590    0.3820 c3        1 ED7     -0.124800
      2 CBA         2.2140    0.9900    0.5790 ca        1 ED7      0.138700
      3 CAL         2.8910    1.6500    1.6050 ca        1 ED7     -0.168000
      4 CAJ         4.2470    1.4270    1.8340 ca        1 ED7      0.057000
      5 CAK         4.9550    0.5270    1.0180 ca        1 ED7     -0.147000
      6 CAQ         4.3020   -0.1330    0.0030 ca        1 ED7      0.015000
      7 CBF         2.9040    0.0550   -0.2570 ca        1 ED7     -0.637500
      8 SBJ         2.2460   -0.7900   -1.3610 s4        1 ED7      1.689300
      9 OAD         2.9980   -1.7250   -1.9970 o         1 ED7     -0.431900
     10 OAE         0.9020   -0.7510   -1.5340 o         1 ED7     -0.431900
     11 NBH         1.9830    0.1010   -3.9670 n3        1 ED7     -0.880200
     12 CAX         2.2310    1.5080   -4.2930 c3        1 ED7      0.182100
     13 CBC         3.3190    2.1470   -3.4840 ca        1 ED7     -0.145300
     14 CAM         4.6470    1.7200   -3.5880 ca        1 ED7     -0.129500
     15 CAH         5.6600    2.4070   -2.9210 ca        1 ED7     -0.120000
     16 CAG         5.3550    3.5300   -2.1510 ca        1 ED7     -0.104000
     17 CAI         4.0310    3.9590   -2.0430 ca        1 ED7     -0.120000
     18 CAN         3.0150    3.2690   -2.7040 ca        1 ED7     -0.129500
     19 CAW         2.5790   -0.8520   -4.8830 c3        1 ED7      0.132800
     20 CAV         1.8520   -0.9830   -6.2400 c3        1 ED7      0.072800
     21 NBG         2.3840   -2.0410   -7.1540 n4        1 ED7     -0.566800
     22 CBD         3.7330   -1.7170   -7.6490 ca        1 ED7     -0.032400
     23 CAR         3.8650   -1.2180   -8.9600 ca        1 ED7     -0.113500
     24 CAO         5.1280   -0.9150   -9.4610 ca        1 ED7     -0.074000
     25 CBB         6.2680   -1.1070   -8.6660 ca        1 ED7      0.067000
     26 CAF         7.5560   -0.7950   -9.1780 cg        1 ED7      0.177800
     27 NAC         8.6110   -0.5400   -9.5960 n1        1 ED7     -0.247800
     28 CAP         6.1330   -1.6090   -7.3640 ca        1 ED7     -0.074000
     29 CAS         4.8750   -1.9130   -6.8520 ca        1 ED7     -0.113500
     30 CAY         2.2810   -3.4350   -6.5470 c3        1 ED7      0.237100
     31 CBE         2.2500   -4.4710   -7.5820 cc        1 ED7     -0.379900
     32 CAT         3.3400   -5.1850   -8.1460 cd        1 ED7      0.410200
     33 NAZ         2.8810   -6.1060   -9.0660 nd        1 ED7     -0.642000
     34 CAU         1.5280   -5.9830   -9.0780 cc        1 ED7      0.476400
     35 NBI         1.0900   -4.9890   -8.2030 na        1 ED7     -0.192900
     36 CAB        -0.2630   -4.6860   -7.8650 c3        1 ED7      0.009600
     37 HAA         0.5600    1.5870   -0.6680 hc        1 ED7      0.092367
     38 HAAA        0.1620    0.3400    0.5900 hc        1 ED7      0.092367
     39 HAAB        0.4110    2.0660    1.0720 hc        1 ED7      0.092367
     40 HAL         2.3400    2.3600    2.2490 ha        1 ED7      0.188000
     41 HAJ         4.7680    1.9550    2.6560 ha        1 ED7      0.188000
     42 HAK         6.0300    0.3500    1.1990 ha        1 ED7      0.189000
     43 HAQ         4.8640   -0.8440   -0.6340 ha        1 ED7      0.171000
     44 HAX         2.5030    1.6300   -5.3840 h1        1 ED7      0.068700
     45 HAXA        1.2720    2.0840   -4.1310 h1        1 ED7      0.068700
     46 HAM         4.9060    0.8590   -4.2210 ha        1 ED7      0.132000
     47 HAH         6.7070    2.0780   -3.0230 ha        1 ED7      0.155500
     48 HAG         6.1600    4.0890   -1.6470 ha        1 ED7      0.160000
     49 HAI         3.7890    4.8570   -1.4530 ha        1 ED7      0.155500
     50 HAN         1.9780    3.6330   -2.6340 ha        1 ED7      0.132000
     51 HAW         3.6500   -0.5530   -5.0700 h1        1 ED7      0.086700
     52 HAWA        2.5800   -1.8560   -4.3640 h1        1 ED7      0.086700
     53 HAV         0.7620   -1.2220   -6.0650 hx        1 ED7      0.099700
     54 HAVA        1.9200   -0.0010   -6.7930 hx        1 ED7      0.099700
     55 HAR         2.9880   -1.0690   -9.6130 ha        1 ED7      0.156500
     56 HAO         5.2290   -0.5290  -10.4920 ha        1 ED7      0.184000
     57 HAP         7.0300   -1.7720   -6.7410 ha        1 ED7      0.184000
     58 HAS         4.8040   -2.3130   -5.8280 ha        1 ED7      0.156500
     59 HAY         1.3410   -3.4420   -5.9230 hx        1 ED7      0.101700
     60 HAYA        3.1740   -3.5930   -5.8780 hx        1 ED7      0.101700
     61 HAT         4.4050   -5.0770   -7.9270 h4        1 ED7      0.058100
     62 HAU         0.8430   -6.5780   -9.7010 h5        1 ED7      0.096100
     63 HAB        -0.9550   -5.2310   -8.5640 h1        1 ED7      0.065700
     64 HABA       -0.4430   -3.5820   -7.9620 h1        1 ED7      0.065700
     65 HABB       -0.4870   -5.0050   -6.8110 h1        1 ED7      0.065700
     66 HBH1        0.9860   -0.0540   -3.9240 hn        1 ED7      0.385800
     67 HBG1        1.7650   -2.0430   -7.9840 hn        1 ED7      0.456800
@<TRIPOS>BOND
     1    1    2 1   
     2    1   37 1   
     3    1   38 1   
     4    1   39 1   
     5    2    3 ar  
     6    2    7 ar  
     7    3    4 ar  
     8    3   40 1   
     9    4    5 ar  
    10    4   41 1   
    11    5    6 ar  
    12    5   42 1   
    13    6    7 ar  
    14    6   43 1   
    15    7    8 1   
    16    8    9 1   
    17    8   10 1   
    18   11   12 1   
    19   11   19 1   
    20   11   66 1   
    21   12   13 1   
    22   12   44 1   
    23   12   45 1   
    24   13   14 ar  
    25   13   18 ar  
    26   14   15 ar  
    27   14   46 1   
    28   15   16 ar  
    29   15   47 1   
    30   16   17 ar  
    31   16   48 1   
    32   17   18 ar  
    33   17   49 1   
    34   18   50 1   
    35   19   20 1   
    36   19   51 1   
    37   19   52 1   
    38   20   21 1   
    39   20   53 1   
    40   20   54 1   
    41   21   22 1   
    42   21   30 1   
    43   21   67 1   
    44   22   23 ar  
    45   22   29 ar  
    46   23   24 ar  
    47   23   55 1   
    48   24   25 ar  
    49   24   56 1   
    50   25   26 1   
    51   25   28 ar  
    52   26   27 3   
    53   28   29 ar  
    54   28   57 1   
    55   29   58 1   
    56   30   31 1   
    57   30   59 1   
    58   30   60 1   
    59   31   32 2   
    60   31   35 1   
    61   32   33 1   
    62   32   61 1   
    63   33   34 2   
    64   34   35 1   
    65   34   62 1   
    66   35   36 1   
    67   36   63 1   
    68   36   64 1   
    69   36   65 1   
@<TRIPOS>SUBSTRUCTURE
     1 ED7         1 TEMP              0 ****  ****    0 ROOT
