@<TRIPOS>MOLECULE
ED7
   65    68     1     0     0
SMALL
bcc


@<TRIPOS>ATOM
      1 CAA        -4.1740   -3.3890   -0.0640 c3        1 ED7     -0.111800
      2 CBA        -4.1810   -2.1520    0.7560 ca        1 ED7      0.048700
      3 CAL        -5.0560   -2.0690    1.8460 ca        1 ED7     -0.158000
      4 CAJ        -5.1000   -0.9220    2.6340 ca        1 ED7     -0.061000
      5 CAK        -4.2670    0.1550    2.3320 ca        1 ED7     -0.163000
      6 CAQ        -3.3970    0.0720    1.2490 ca        1 ED7     -0.020000
      7 CBF        -3.3260   -1.0730    0.4460 ca        1 ED7     -0.374500
      8 SBJ        -2.2850   -1.2310   -0.8810 sy        1 ED7      1.501200
      9 OAD        -1.4390   -2.3490   -0.6490 o         1 ED7     -0.662800
     10 OAE        -3.0520   -1.2970   -2.0670 o         1 ED7     -0.662800
     11 NBH        -1.3630    0.1140   -0.8970 n3        1 ED7     -0.807500
     12 CAX        -1.5440    1.1740   -1.8570 c3        1 ED7      0.262100
     13 CBC        -2.2130    2.4110   -1.3250 ca        1 ED7     -0.122300
     14 CAM        -1.4540    3.4350   -0.7500 ca        1 ED7     -0.118000
     15 CAH        -2.0740    4.5970   -0.2950 ca        1 ED7     -0.130000
     16 CAG        -3.4560    4.7450   -0.4150 ca        1 ED7     -0.121000
     17 CAI        -4.2170    3.7280   -0.9930 ca        1 ED7     -0.130000
     18 CAN        -3.5990    2.5640   -1.4470 ca        1 ED7     -0.118000
     19 CAW        -0.2690    0.2510    0.0280 c3        1 ED7      0.199800
     20 CAV         1.0680   -0.3220   -0.5210 c3        1 ED7      0.184800
     21 NBG         2.1210   -0.2890    0.4660 nh        1 ED7     -0.680000
     22 CBD         3.0690    0.7350    0.4260 ca        1 ED7      0.216600
     23 CAR         4.3600    0.5920    0.9970 ca        1 ED7     -0.208500
     24 CAO         5.2580    1.6490    1.0080 ca        1 ED7     -0.048500
     25 CBB         4.9150    2.8860    0.4460 ca        1 ED7     -0.074000
     26 CAF         5.8370    3.9640    0.4600 cg        1 ED7      0.243800
     27 NAC         6.5920    4.8490    0.4730 n1        1 ED7     -0.378800
     28 CAP         3.6480    3.0430   -0.1320 ca        1 ED7     -0.048500
     29 CAS         2.7410    1.9950   -0.1420 ca        1 ED7     -0.208500
     30 CAY         2.3650   -1.5210    1.1820 c3        1 ED7      0.297100
     31 CBE         3.0230   -2.6190    0.4200 cc        1 ED7     -0.265900
     32 CAT         4.4060   -2.8360    0.2160 cd        1 ED7      0.309200
     33 NAZ         4.6130   -3.9990   -0.5110 nd        1 ED7     -0.670000
     34 CAU         3.3810   -4.5000   -0.7570 cc        1 ED7      0.390400
     35 NBI         2.3740   -3.6940   -0.2090 na        1 ED7     -0.184900
     36 CAB         0.9740   -3.9520   -0.3030 c3        1 ED7      0.014600
     37 HAA        -4.3760   -3.1450   -1.1400 hc        1 ED7      0.073367
     38 HAAA       -3.1760   -3.8940    0.0030 hc        1 ED7      0.073367
     39 HAAB       -4.9550   -4.1090    0.2820 hc        1 ED7      0.073367
     40 HAL        -5.7170   -2.9180    2.0780 ha        1 ED7      0.142000
     41 HAJ        -5.7900   -0.8660    3.4890 ha        1 ED7      0.139000
     42 HAK        -4.2990    1.0680    2.9430 ha        1 ED7      0.142000
     43 HAQ        -2.7630    0.9500    1.0300 ha        1 ED7      0.146000
     44 HAX        -0.5320    1.4630   -2.2680 h1        1 ED7      0.072200
     45 HAXA       -2.1600    0.7700   -2.7170 h1        1 ED7      0.072200
     46 HAM        -0.3610    3.3290   -0.6650 ha        1 ED7      0.137000
     47 HAH        -1.4720    5.4000    0.1560 ha        1 ED7      0.136500
     48 HAG        -3.9450    5.6630   -0.0580 ha        1 ED7      0.136000
     49 HAI        -5.3060    3.8450   -1.0940 ha        1 ED7      0.136500
     50 HAN        -4.2000    1.7660   -1.9110 ha        1 ED7      0.137000
     51 HAW        -0.1300    1.3380    0.2930 h1        1 ED7      0.058700
     52 HAWA       -0.5380   -0.2990    0.9780 h1        1 ED7      0.058700
     53 HAV         0.8900   -1.3930   -0.8370 h1        1 ED7      0.066700
     54 HAVA        1.3670    0.2560   -1.4400 h1        1 ED7      0.066700
     55 HAR         4.6800   -0.3680    1.4290 ha        1 ED7      0.138000
     56 HAO         6.2540    1.5100    1.4580 ha        1 ED7      0.142500
     57 HAP         3.3680    4.0100   -0.5800 ha        1 ED7      0.142500
     58 HAS         1.7510    2.1660   -0.5930 ha        1 ED7      0.138000
     59 HAY         3.0060   -1.2970    2.0840 h1        1 ED7      0.067200
     60 HAYA        1.3600   -1.8720    1.5650 h1        1 ED7      0.067200
     61 HAT         5.2400   -2.2210    0.5520 h4        1 ED7      0.039100
     62 HAU         3.1620   -5.4190   -1.3090 h5        1 ED7      0.061100
     63 HAB         0.5730   -3.6050   -1.2960 h1        1 ED7      0.066033
     64 HABA        0.7880   -5.0540   -0.2020 h1        1 ED7      0.066033
     65 HABB        0.4110   -3.4080    0.5020 h1        1 ED7      0.066033
@<TRIPOS>BOND
     1    1    2 1   
     2    1   37 1   
     3    1   38 1   
     4    1   39 1   
     5    2    3 ar  
     6    2    7 ar  
     7    3    4 ar  
     8    3   40 1   
     9    4    5 ar  
    10    4   41 1   
    11    5    6 ar  
    12    5   42 1   
    13    6    7 ar  
    14    6   43 1   
    15    7    8 1   
    16    8    9 2   
    17    8   10 2   
    18    8   11 1   
    19   11   12 1   
    20   11   19 1   
    21   12   13 1   
    22   12   44 1   
    23   12   45 1   
    24   13   14 ar  
    25   13   18 ar  
    26   14   15 ar  
    27   14   46 1   
    28   15   16 ar  
    29   15   47 1   
    30   16   17 ar  
    31   16   48 1   
    32   17   18 ar  
    33   17   49 1   
    34   18   50 1   
    35   19   20 1   
    36   19   51 1   
    37   19   52 1   
    38   20   21 1   
    39   20   53 1   
    40   20   54 1   
    41   21   22 1   
    42   21   30 1   
    43   22   23 ar  
    44   22   29 ar  
    45   23   24 ar  
    46   23   55 1   
    47   24   25 ar  
    48   24   56 1   
    49   25   26 1   
    50   25   28 ar  
    51   26   27 3   
    52   28   29 ar  
    53   28   57 1   
    54   29   58 1   
    55   30   31 1   
    56   30   59 1   
    57   30   60 1   
    58   31   32 2   
    59   31   35 1   
    60   32   33 1   
    61   32   61 1   
    62   33   34 2   
    63   34   35 1   
    64   34   62 1   
    65   35   36 1   
    66   36   63 1   
    67   36   64 1   
    68   36   65 1   
@<TRIPOS>SUBSTRUCTURE
     1 ED7         1 TEMP              0 ****  ****    0 ROOT
