@<TRIPOS>MOLECULE
ED7
   65    58     1     0     0
SMALL
bcc


@<TRIPOS>ATOM
      1 CAA         4.7400    0.6690    2.8850 c3        1 ED7     -0.211000
      2 CBA         3.4620    0.4970    3.6930 c2        1 ED7      0.067000
      3 CAL         3.3080    1.1720    4.8980 c2        1 ED7     -0.165000
      4 CAJ         2.1860    0.9370    5.6900 c1        1 ED7     -0.062000
      5 CAK         1.2200    0.0250    5.2750 c1        1 ED7     -0.113500
      6 CAQ         1.3740   -0.6550    4.0640 c1        1 ED7     -0.113500
      7 CBF         2.4890   -0.4220    3.2750 c1        1 ED7     -0.821000
      8 SBJ         2.6530   -1.2500    1.6570 s4        1 ED7      2.053800
      9 OAD         3.4390   -0.4650    0.7490 o         1 ED7     -0.541900
     10 OAE         3.4530   -2.4440    1.7600 o         1 ED7     -0.541900
     11 NBH         1.1280   -1.5890    1.0120 n2        1 ED7     -0.822000
     12 CAX         0.3270   -2.6560    1.5900 c3        1 ED7      0.028000
     13 CBC        -1.0870   -2.1560    1.8310 c2        1 ED7     -0.101000
     14 CAM        -1.3510   -1.3080    2.8980 c2        1 ED7     -0.122000
     15 CAH        -2.6490   -0.8920    3.1500 c1        1 ED7     -0.132000
     16 CAG        -3.6870   -1.3240    2.3340 c1        1 ED7     -0.113500
     17 CAI        -3.4260   -2.1710    1.2680 c1        1 ED7     -0.113500
     18 CAN        -2.1240   -2.5880    1.0160 c1        1 ED7     -0.123000
     19 CAW         0.7400   -1.0080   -0.2910 c3        1 ED7     -0.058000
     20 CAV        -0.2790    0.1000   -0.0710 c3        1 ED7     -0.046000
     21 NBG        -0.8410    0.5060   -1.3500 n3        1 ED7     -0.280000
     22 CBD        -0.2780    1.6540   -2.0590 c2        1 ED7      0.109000
     23 CAR        -1.1210    2.6040   -2.6200 c2        1 ED7     -0.203000
     24 CAO        -0.5890    3.6610   -3.3570 c1        1 ED7     -0.063000
     25 CBB         0.7880    3.7640   -3.5320 c1        1 ED7     -0.063000
     26 CAF         1.3650    4.8750   -4.4100 c1        1 ED7     -0.089000
     27 NAC         1.7980    5.7090   -5.0690 n1        1 ED7     -0.048000
     28 CAP         1.6320    2.8140   -2.9720 c1        1 ED7     -0.052000
     29 CAS         1.1000    1.7570   -2.2340 c1        1 ED7     -0.205000
     30 CAY        -2.0960   -0.0910   -1.8130 c3        1 ED7      0.049000
     31 CBE        -1.8380   -0.8990   -3.1090 c2        1 ED7     -0.162000
     32 CAT        -1.3880   -2.1960   -3.1700 c1        1 ED7     -0.170000
     33 NAZ        -1.4590   -2.6010   -4.4500 n2        1 ED7     -0.143000
     34 CAU        -1.9480   -1.5720   -5.1900 c1        1 ED7     -0.097000
     35 NBI        -2.1810   -0.5220   -4.3540 n2        1 ED7     -0.141000
     36 CAB        -2.8110    0.7270   -4.7190 c2        1 ED7     -0.087000
     37 HAA         4.6470    1.4410    2.2870 hc        1 ED7      0.105000
     38 HAAA        4.9010   -0.1360    2.3540 hc        1 ED7      0.105000
     39 HAAB        5.4980    0.8170    3.4960 hc        1 ED7      0.105000
     40 HAL         3.9880    1.8150    5.1900 ha        1 ED7      0.142000
     41 HAJ         2.0770    1.4130    6.5400 ha        1 ED7      0.138000
     42 HAK         0.4320   -0.1410    5.8320 ha        1 ED7      0.140500
     43 HAQ         0.6980   -1.2930    3.7740 ha        1 ED7      0.140500
     44 HAX         0.7230   -2.9360    2.4400 h1        1 ED7      0.100500
     45 HAXA        0.3050   -3.4200    0.9720 h1        1 ED7      0.100500
     46 HAM        -0.6210   -1.0040    3.4720 ha        1 ED7      0.138000
     47 HAH        -2.8340   -0.2930    3.9030 ha        1 ED7      0.134000
     48 HAG        -4.6040   -1.0300    2.5130 ha        1 ED7      0.140500
     49 HAI        -4.1570   -2.4750    0.6940 ha        1 ED7      0.140500
     50 HAN        -1.9390   -3.1870    0.2620 ha        1 ED7      0.144000
     51 HAW         0.3460   -1.7060   -0.8550 h1        1 ED7      0.112500
     52 HAWA        1.5310   -0.6400   -0.7330 h1        1 ED7      0.112500
     53 HAV        -0.9950   -0.2270    0.5110 h1        1 ED7      0.100500
     54 HAVA        0.1590    0.8660    0.3510 h1        1 ED7      0.100500
     55 HAR        -2.0880    2.5330   -2.4980 ha        1 ED7      0.139000
     56 HAO        -1.1830    4.3290   -3.7520 ha        1 ED7      0.143000
     57 HAP         2.6050    2.8870   -3.0950 ha        1 ED7      0.151000
     58 HAS         1.6940    1.0890   -1.8390 ha        1 ED7      0.169000
     59 HAY        -2.7440    0.6150   -1.9940 h1        1 ED7      0.107500
     60 HAYA       -2.4490   -0.6900   -1.1180 h1        1 ED7      0.107500
     61 HAT        -1.0710   -2.7320   -2.4140 DU        1 ED7      0.191000
     62 HAU        -2.1060   -1.5840   -6.1560 DU        1 ED7      0.191000
     63 HAB        -2.2770    1.4750   -4.3790 ha        1 ED7      0.099667
     64 HABA       -2.8750    0.7880   -5.7030 ha        1 ED7      0.099667
     65 HABB       -3.7120    0.7650   -4.3300 ha        1 ED7      0.099667
@<TRIPOS>BOND
     1    1    2 1   
     2    1   37 1   
     3    1   38 1   
     4    1   39 1   
     5    2    3 1   
     6    2    7 1   
     7    3    4 1   
     8    3   40 1   
     9    4   41 1   
    10    5    6 1   
    11    5   42 1   
    12    6   43 1   
    13    7    8 1   
    14    8    9 1   
    15    8   10 1   
    16   11   12 1   
    17   11   19 1   
    18   12   13 1   
    19   12   44 1   
    20   12   45 1   
    21   13   14 1   
    22   13   18 1   
    23   14   15 1   
    24   14   46 1   
    25   15   47 1   
    26   16   17 1   
    27   16   48 1   
    28   17   49 1   
    29   18   50 1   
    30   19   20 1   
    31   19   51 1   
    32   19   52 1   
    33   20   21 1   
    34   20   53 1   
    35   20   54 1   
    36   21   22 1   
    37   21   30 1   
    38   22   23 1   
    39   22   29 1   
    40   23   24 1   
    41   23   55 1   
    42   24   56 1   
    43   25   26 1   
    44   25   28 1   
    45   26   27 1   
    46   28   57 1   
    47   29   58 1   
    48   30   31 1   
    49   30   59 1   
    50   30   60 1   
    51   31   32 1   
    52   31   35 1   
    53   32   33 1   
    54   33   34 1   
    55   34   35 1   
    56   36   63 1   
    57   36   64 1   
    58   36   65 1   
@<TRIPOS>SUBSTRUCTURE
     1 ED7         1 TEMP              0 ****  ****    0 ROOT
