@<TRIPOS>MOLECULE
ED7
   66    69     1     0     0
SMALL
bcc


@<TRIPOS>ATOM
      1 CAA         0.0000    0.0000    0.0000 c3        1 ED7      0.042200
      2 CBA         1.5070    0.0000    0.0000 ca        1 ED7      0.026700
      3 CAL         2.2000    0.0000    1.1970 ca        1 ED7     -0.111000
      4 CAJ         3.5810    0.0010    1.1970 ca        1 ED7     -0.027000
      5 CAK         4.2730    0.0020   -0.0010 ca        1 ED7     -0.113000
      6 CAQ         3.5810    0.0030   -1.1970 ca        1 ED7     -0.099000
      7 CBF         2.1980   -0.0050   -1.1970 ca        1 ED7     -0.176500
      8 SBJ         1.3170   -0.0040   -2.7230 sy        1 ED7      1.002200
      9 OAD         0.9350   -1.3510   -2.9660 o         1 ED7     -0.516800
     10 OAE         0.3850    1.0660   -2.6480 o         1 ED7     -0.516800
     11 NBH         2.3960    0.3980   -3.9130 nx        1 ED7     -0.366300
     12 CAX         2.5110    1.7890   -4.3580 c3        1 ED7      0.191100
     13 CBC         3.6330    2.4640   -3.6110 ca        1 ED7     -0.193300
     14 CAM         4.9170    2.4370   -4.1210 ca        1 ED7     -0.068000
     15 CAH         5.9460    3.0560   -3.4360 ca        1 ED7     -0.088000
     16 CAG         5.6900    3.7030   -2.2410 ca        1 ED7     -0.044000
     17 CAI         4.4050    3.7300   -1.7310 ca        1 ED7     -0.088000
     18 CAN         3.3750    3.1150   -2.4190 ca        1 ED7     -0.068000
     19 CAW         3.2360   -0.6380   -4.5200 c3        1 ED7      0.130800
     20 CAV         2.5640   -1.1570   -5.7930 c3        1 ED7      0.116800
     21 NBG         3.4040   -2.1920   -6.4000 nh        1 ED7     -0.400000
     22 CBD         4.3740   -1.8420   -7.3350 ca        1 ED7      0.134600
     23 CAR         5.1710   -2.8260   -7.9110 ca        1 ED7     -0.198000
     24 CAO         6.1330   -2.4830   -8.8350 ca        1 ED7     -0.041500
     25 CBB         6.3070   -1.1440   -9.1940 ca        1 ED7     -0.040000
     26 CAF         7.3050   -0.7830  -10.1560 cg        1 ED7      0.211800
     27 NAC         8.0860   -0.4810  -10.9240 n1        1 ED7     -0.350800
     28 CAP         5.5050   -0.1570   -8.6130 ca        1 ED7     -0.041500
     29 CAS         4.5410   -0.5080   -7.6950 ca        1 ED7     -0.198000
     30 CAY         3.2220   -3.5960   -6.0250 c3        1 ED7      0.298100
     31 CBE         2.2100   -4.2350   -6.9420 cc        1 ED7     -0.447900
     32 CAT         2.4720   -4.9450   -8.0560 cd        1 ED7      0.350200
     33 NAZ         1.3020   -5.3360   -8.5820 nd        1 ED7     -0.616000
     34 CAU         0.3260   -4.8980   -7.8360 cc        1 ED7      0.266400
     35 NBI         0.8490   -4.2100   -6.7980 na        1 ED7      0.265100
     36 CAB         0.1000   -3.5570   -5.7220 c3        1 ED7     -0.029400
     37 HAA         0.0980    1.0730   -0.1150 hc        1 ED7      0.051367
     38 HAAA       -0.2620   -0.7370   -0.7500 hc        1 ED7      0.051367
     39 HAAB       -0.1000   -0.2510    1.0490 hc        1 ED7      0.051367
     40 HAL         1.8790    0.4740    2.1170 ha        1 ED7      0.137000
     41 HAJ         4.0870    0.1280    2.1460 ha        1 ED7      0.123000
     42 HAK         5.3260    0.2130    0.1410 ha        1 ED7      0.128000
     43 HAQ         4.3500   -0.2170   -1.9280 ha        1 ED7      0.128000
     44 HAX         2.3050    1.7300   -5.4200 hx        1 ED7      0.076200
     45 HAXA        1.4880    2.0820   -4.1550 hx        1 ED7      0.076200
     46 HAM         5.2850    1.6520   -4.7690 ha        1 ED7      0.122500
     47 HAH         6.9300    3.0720   -3.8890 ha        1 ED7      0.129500
     48 HAG         6.4890    4.4140   -2.0690 ha        1 ED7      0.131000
     49 HAI         4.1740    4.4060   -0.9170 ha        1 ED7      0.129500
     50 HAN         2.3820    3.3780   -2.0750 ha        1 ED7      0.122500
     51 HAW         4.1230   -0.2130   -4.9720 hx        1 ED7      0.065700
     52 HAWA        3.4410   -1.2660   -3.6610 hx        1 ED7      0.065700
     53 HAV         1.5540   -1.5440   -5.7320 h1        1 ED7      0.061700
     54 HAVA        2.5420   -0.4550   -6.6170 h1        1 ED7      0.061700
     55 HAR         5.2060   -3.9070   -7.8510 ha        1 ED7      0.134500
     56 HAO         7.0030   -3.0450   -9.1520 ha        1 ED7      0.123500
     57 HAP         5.9100    0.7940   -8.9390 ha        1 ED7      0.123500
     58 HAS         4.3270    0.5020   -7.3650 ha        1 ED7      0.134500
     59 HAY         4.1720   -4.0780   -5.8260 h1        1 ED7      0.022700
     60 HAYA        2.7740   -3.5240   -5.0420 h1        1 ED7      0.022700
     61 HAT         3.3070   -5.3370   -8.6240 h4        1 ED7      0.020100
     62 HAU        -0.7230   -5.1490   -7.7360 h5        1 ED7      0.021100
     63 HAB         0.1270   -2.4760   -5.6580 h1        1 ED7      0.031033
     64 HABA       -0.6660   -4.2220   -5.3440 h1        1 ED7      0.031033
     65 HABB        0.8540   -3.7590   -4.9710 h1        1 ED7      0.031033
     66 HBH1        3.0490    0.8600   -3.3120 hn        1 ED7      0.398800
@<TRIPOS>BOND
     1    1    2 1   
     2    1   37 1   
     3    1   38 1   
     4    1   39 1   
     5    2    3 ar  
     6    2    7 ar  
     7    3    4 ar  
     8    3   40 1   
     9    4    5 ar  
    10    4   41 1   
    11    5    6 ar  
    12    5   42 1   
    13    6    7 ar  
    14    6   43 1   
    15    7    8 1   
    16    8    9 2   
    17    8   10 2   
    18    8   11 1   
    19   11   12 1   
    20   11   19 1   
    21   11   66 1   
    22   12   13 1   
    23   12   44 1   
    24   12   45 1   
    25   13   14 ar  
    26   13   18 ar  
    27   14   15 ar  
    28   14   46 1   
    29   15   16 ar  
    30   15   47 1   
    31   16   17 ar  
    32   16   48 1   
    33   17   18 ar  
    34   17   49 1   
    35   18   50 1   
    36   19   20 1   
    37   19   51 1   
    38   19   52 1   
    39   20   21 1   
    40   20   53 1   
    41   20   54 1   
    42   21   22 1   
    43   21   30 1   
    44   22   23 ar  
    45   22   29 ar  
    46   23   24 ar  
    47   23   55 1   
    48   24   25 ar  
    49   24   56 1   
    50   25   26 1   
    51   25   28 ar  
    52   26   27 3   
    53   28   29 ar  
    54   28   57 1   
    55   29   58 1   
    56   30   31 1   
    57   30   59 1   
    58   30   60 1   
    59   31   32 2   
    60   31   35 1   
    61   32   33 1   
    62   32   61 1   
    63   33   34 2   
    64   34   35 1   
    65   34   62 1   
    66   35   36 1   
    67   36   63 1   
    68   36   64 1   
    69   36   65 1   
@<TRIPOS>SUBSTRUCTURE
     1 ED7         1 TEMP              0 ****  ****    0 ROOT
