@<TRIPOS>MOLECULE
ED8
   62    66     1     0     0
SMALL
bcc


@<TRIPOS>ATOM
      1 C01         5.9730   -4.5740    1.8980 c3        1 ED8      0.158100
      2 N02         6.0490   -3.1360    1.7750 n3        1 ED8     -0.734600
      3 C03         6.7220   -2.7180    0.5530 c3        1 ED8      0.171800
      4 C04         6.8440   -1.2030    0.4170 c3        1 ED8     -0.094900
      5 C05         5.4690   -0.5540    0.5500 c3        1 ED8      0.141100
      6 O06         5.7230    0.8610    0.5390 os        1 ED8     -0.324900
      7 C07         4.6680    1.7060    0.2760 ca        1 ED8      0.165100
      8 C08         5.0270    3.0780    0.3310 ca        1 ED8     -0.173000
      9 C09         4.0970    4.0720    0.0850 ca        1 ED8     -0.032000
     10 C10         2.7820    3.7020   -0.2260 ca        1 ED8      0.036400
     11 N11         1.6410    4.4870   -0.5160 nc        1 ED8     -0.536100
     12 C12         0.6530    3.6220   -0.7360 cd        1 ED8      0.431700
     13 N13         1.0620    2.2580   -0.6150 na        1 ED8     -0.085400
     14 C14         0.2600    1.1480   -0.7790 cc        1 ED8      0.061700
     15 C15        -1.1330    1.1540   -0.8420 cd        1 ED8     -0.261000
     16 C16        -1.6450   -0.1670   -1.0320 cd        1 ED8      0.177100
     17 O17        -2.9590   -0.4920   -1.2230 os        1 ED8     -0.292900
     18 C18        -3.9000    0.3290   -0.5050 c3        1 ED8      0.161700
     19 C19        -5.0000   -0.5430    0.0090 ca        1 ED8     -0.054300
     20 C20        -4.7920   -1.9150    0.1930 ca        1 ED8     -0.108000
     21 C21        -5.8150   -2.7200    0.6930 ca        1 ED8     -0.099000
     22 C22        -7.0510   -2.1650    1.0170 ca        1 ED8     -0.133000
     23 C23        -7.2680   -0.7990    0.8390 ca        1 ED8     -0.089000
     24 C24        -6.2470    0.0110    0.3360 ca        1 ED8     -0.165300
     25 C25        -6.5210    1.4990    0.1450 c3        1 ED8      0.685200
     26 F26        -5.5710    2.3340    0.6880 f         1 ED8     -0.239967
     27 F27        -6.5980    1.9010   -1.1680 f         1 ED8     -0.239967
     28 F28        -7.6980    1.9480    0.6940 f         1 ED8     -0.239967
     29 C29        -0.6430   -1.1270   -1.1060 cc        1 ED8     -0.245700
     30 C30        -0.8750   -2.5740   -1.2360 c         1 ED8      0.715700
     31 N31        -0.0440   -3.2700   -2.0940 n         1 ED8     -0.664000
     32 O32        -1.7420   -3.1820   -0.5770 o         1 ED8     -0.597100
     33 S33         0.8750   -0.4310   -0.9650 ss        1 ED8      0.054200
     34 C34         2.4330    2.2960   -0.2820 ca        1 ED8     -0.037200
     35 C35         3.3690    1.2900   -0.0290 ca        1 ED8     -0.221000
     36 C36         4.8170   -0.9730    1.8610 c3        1 ED8     -0.094900
     37 C37         4.7550   -2.4940    1.9610 c3        1 ED8      0.171800
     38 H01         7.0110   -4.9970    1.8440 h1        1 ED8      0.033367
     39 H01A        5.5320   -4.8290    2.8980 h1        1 ED8      0.033367
     40 H01B        5.3480   -5.0580    1.0980 h1        1 ED8      0.033367
     41 H03         7.7590   -3.1580    0.5720 h1        1 ED8      0.033450
     42 H03A        6.1990   -3.1190   -0.3650 h1        1 ED8      0.033450
     43 H04         7.5250   -0.7910    1.2060 hc        1 ED8      0.064450
     44 H04A        7.2850   -0.9590   -0.5820 hc        1 ED8      0.064450
     45 H05         4.8270   -0.8360   -0.3290 h1        1 ED8      0.046700
     46 H08         6.0690    3.3330    0.5770 ha        1 ED8      0.156000
     47 H09         4.3780    5.1350    0.1310 ha        1 ED8      0.157000
     48 H12        -0.3820    3.8770   -0.9950 h5        1 ED8      0.077800
     49 H15        -1.7710    2.0360   -0.7610 ha        1 ED8      0.171000
     50 H18        -3.4100    0.8610    0.3550 h1        1 ED8      0.071200
     51 H18A       -4.2930    1.0840   -1.2400 h1        1 ED8      0.071200
     52 H20        -3.8100   -2.3570   -0.0650 ha        1 ED8      0.189000
     53 H21        -5.6390   -3.7990    0.8320 ha        1 ED8      0.145000
     54 H22        -7.8590   -2.7980    1.4120 ha        1 ED8      0.141000
     55 H23        -8.2430   -0.3560    1.0950 ha        1 ED8      0.151000
     56 HN31        0.4650   -2.7820   -2.7860 hn        1 ED8      0.307000
     57 HN3A       -0.2500   -4.2250   -2.2640 hn        1 ED8      0.307000
     58 H35         3.0840    0.2290   -0.0560 ha        1 ED8      0.147000
     59 H36         5.4080   -0.5510    2.7150 hc        1 ED8      0.064450
     60 H36A        3.7780   -0.5620    1.9280 hc        1 ED8      0.064450
     61 H37         3.9950   -2.8720    1.2140 h1        1 ED8      0.033450
     62 H37A        4.3860   -2.7710    2.9890 h1        1 ED8      0.033450
@<TRIPOS>BOND
     1    1    2 1   
     2    1   38 1   
     3    1   39 1   
     4    1   40 1   
     5    2    3 1   
     6    2   37 1   
     7    3    4 1   
     8    3   41 1   
     9    3   42 1   
    10    4    5 1   
    11    4   43 1   
    12    4   44 1   
    13    5    6 1   
    14    5   36 1   
    15    5   45 1   
    16    6    7 1   
    17    7    8 ar  
    18    7   35 ar  
    19    8    9 ar  
    20    8   46 1   
    21    9   10 ar  
    22    9   47 1   
    23   10   11 1   
    24   10   34 ar  
    25   11   12 2   
    26   12   13 1   
    27   12   48 1   
    28   13   14 1   
    29   13   34 1   
    30   14   15 2   
    31   14   33 1   
    32   15   16 1   
    33   15   49 1   
    34   16   17 1   
    35   16   29 2   
    36   17   18 1   
    37   18   19 1   
    38   18   50 1   
    39   18   51 1   
    40   19   20 ar  
    41   19   24 ar  
    42   20   21 ar  
    43   20   52 1   
    44   21   22 ar  
    45   21   53 1   
    46   22   23 ar  
    47   22   54 1   
    48   23   24 ar  
    49   23   55 1   
    50   24   25 1   
    51   25   26 1   
    52   25   27 1   
    53   25   28 1   
    54   29   30 1   
    55   29   33 1   
    56   30   31 1   
    57   30   32 2   
    58   31   56 1   
    59   31   57 1   
    60   34   35 ar  
    61   35   58 1   
    62   36   37 1   
    63   36   59 1   
    64   36   60 1   
    65   37   61 1   
    66   37   62 1   
@<TRIPOS>SUBSTRUCTURE
     1 ED8         1 TEMP              0 ****  ****    0 ROOT
