@<TRIPOS>MOLECULE
ED8
   63    67     1     0     0
SMALL
bcc


@<TRIPOS>ATOM
      1 C01         0.0940    0.7700    1.3950 c3        1 ED8      0.161100
      2 N02         1.5120    0.5500    1.2340 n3        1 ED8     -0.735600
      3 C03         2.1710    0.1590    2.4710 c3        1 ED8      0.179800
      4 C04         3.6810   -0.0030    2.3260 c3        1 ED8     -0.097900
      5 C05         3.9990   -0.9660    1.1850 c3        1 ED8      0.142100
      6 O06         5.4300   -0.9160    1.0500 os        1 ED8     -0.311900
      7 C07         6.0670   -1.9600    0.4270 ca        1 ED8      0.180100
      8 C08         7.4790   -1.8220    0.4120 ca        1 ED8     -0.157000
      9 C09         8.2890   -2.7840   -0.1710 ca        1 ED8     -0.013000
     10 C10         7.6830   -3.9040   -0.7490 ca        1 ED8      0.045400
     11 N11         8.2550   -5.0280   -1.4060 nc        1 ED8     -0.482100
     12 C12         7.2460   -5.8000   -1.7680 cd        1 ED8      0.436700
     13 N13         5.9550   -5.2580   -1.3880 na        1 ED8     -0.095400
     14 C14         4.7450   -5.8250   -1.6190 cc        1 ED8      0.219700
     15 C15         4.5210   -7.0510   -2.2700 cd        1 ED8     -0.335000
     16 C16         3.1430   -7.3610   -2.3550 cd        1 ED8      0.305100
     17 O17         2.5770   -8.4460   -2.9180 os        1 ED8     -0.271900
     18 C18         3.4950   -9.4070   -3.5010 c3        1 ED8      0.161700
     19 C19         2.6820  -10.4790   -4.1450 ca        1 ED8     -0.066300
     20 C20         1.3280  -10.6460   -3.8420 ca        1 ED8     -0.111000
     21 C21         0.5940  -11.6730   -4.4380 ca        1 ED8     -0.095000
     22 C22         1.2080  -12.5420   -5.3360 ca        1 ED8     -0.115000
     23 C23         2.5600  -12.3830   -5.6460 ca        1 ED8     -0.074000
     24 C24         3.2960  -11.3550   -5.0560 ca        1 ED8     -0.158300
     25 C25         4.7690  -11.1950   -5.4260 c3        1 ED8      0.684200
     26 F26         5.0420  -10.0670   -6.1650 f         1 ED8     -0.233967
     27 F27         5.6170  -11.0890   -4.3470 f         1 ED8     -0.233967
     28 F28         5.2960  -12.2210   -6.1670 f         1 ED8     -0.233967
     29 C29         2.3130   -6.3720   -1.7620 cc        1 ED8     -0.355700
     30 C30         0.9080   -6.4990   -1.7270 c         1 ED8      0.627700
     31 N31         0.1600   -5.2990   -1.1180 n4        1 ED8     -0.769400
     32 O32         0.1470   -7.3870   -2.0910 o         1 ED8     -0.449100
     33 S33         3.2600   -5.1100   -1.1410 ss        1 ED8     -0.035800
     34 C34         6.2430   -4.0310   -0.7290 ca        1 ED8     -0.048200
     35 C35         5.4230   -3.0670   -0.1470 ca        1 ED8     -0.219000
     36 C36         3.3290   -0.5000   -0.1000 c3        1 ED8     -0.097900
     37 C37         1.8290   -0.3180    0.1140 c3        1 ED8      0.179800
     38 H01        -0.4730   -0.1660    1.6560 h1        1 ED8      0.037033
     39 H01A       -0.0650    1.5220    2.2110 h1        1 ED8      0.037033
     40 H01B       -0.3200    1.1850    0.4390 h1        1 ED8      0.037033
     41 H03         1.9720    0.9690    3.2300 h1        1 ED8      0.027200
     42 H03A        1.7420   -0.8040    2.8800 h1        1 ED8      0.027200
     43 H04         4.1020   -0.3970    3.2860 hc        1 ED8      0.069700
     44 H04A        4.1640    0.9870    2.1190 hc        1 ED8      0.069700
     45 H05         3.6750   -2.0070    1.4590 h1        1 ED8      0.036700
     46 H08         7.9200   -0.9270    0.8790 ha        1 ED8      0.174000
     47 H09         9.3850   -2.6730   -0.1810 ha        1 ED8      0.175000
     48 H12         7.3130   -6.7570   -2.3010 h5        1 ED8      0.090800
     49 H15         5.3100   -7.6960   -2.6660 ha        1 ED8      0.195000
     50 H18         4.1380   -8.8800   -4.2580 h1        1 ED8      0.082700
     51 H18A        4.1330   -9.8330   -2.6780 h1        1 ED8      0.082700
     52 H20         0.8370   -9.9580   -3.1340 ha        1 ED8      0.156000
     53 H21        -0.4730  -11.7940   -4.1920 ha        1 ED8      0.150000
     54 H22         0.6330  -13.3560   -5.8050 ha        1 ED8      0.157000
     55 H23         3.0480  -13.0710   -6.3570 ha        1 ED8      0.166000
     56 HN31       -0.8490   -5.4860   -1.1410 hn        1 ED8      0.458133
     57 HN3A        0.3590   -4.4550   -1.6570 hn        1 ED8      0.458133
     58 H35         4.3290   -3.1630   -0.1430 ha        1 ED8      0.135000
     59 H36         3.4950   -1.2430   -0.9210 hc        1 ED8      0.069700
     60 H36A        3.7920    0.4700   -0.4210 hc        1 ED8      0.069700
     61 H37         1.3590   -1.3420    0.2360 h1        1 ED8      0.027200
     62 H37A        1.3870    0.1470   -0.8120 h1        1 ED8      0.027200
     63 H313        0.4540   -5.1570   -0.1500 hn        1 ED8      0.458133
@<TRIPOS>BOND
     1    1    2 1   
     2    1   38 1   
     3    1   39 1   
     4    1   40 1   
     5    2    3 1   
     6    2   37 1   
     7    3    4 1   
     8    3   41 1   
     9    3   42 1   
    10    4    5 1   
    11    4   43 1   
    12    4   44 1   
    13    5    6 1   
    14    5   36 1   
    15    5   45 1   
    16    6    7 1   
    17    7    8 ar  
    18    7   35 ar  
    19    8    9 ar  
    20    8   46 1   
    21    9   10 ar  
    22    9   47 1   
    23   10   11 1   
    24   10   34 ar  
    25   11   12 2   
    26   12   13 1   
    27   12   48 1   
    28   13   14 1   
    29   13   34 1   
    30   14   15 2   
    31   14   33 1   
    32   15   16 1   
    33   15   49 1   
    34   16   17 1   
    35   16   29 2   
    36   17   18 1   
    37   18   19 1   
    38   18   50 1   
    39   18   51 1   
    40   19   20 ar  
    41   19   24 ar  
    42   20   21 ar  
    43   20   52 1   
    44   21   22 ar  
    45   21   53 1   
    46   22   23 ar  
    47   22   54 1   
    48   23   24 ar  
    49   23   55 1   
    50   24   25 1   
    51   25   26 1   
    52   25   27 1   
    53   25   28 1   
    54   29   30 1   
    55   29   33 1   
    56   30   31 1   
    57   30   32 2   
    58   31   56 1   
    59   31   57 1   
    60   31   63 1   
    61   34   35 ar  
    62   35   58 1   
    63   36   37 1   
    64   36   59 1   
    65   36   60 1   
    66   37   61 1   
    67   37   62 1   
@<TRIPOS>SUBSTRUCTURE
     1 ED8         1 TEMP              0 ****  ****    0 ROOT
