@<TRIPOS>MOLECULE
ED8
   63    67     1     0     0
SMALL
bcc


@<TRIPOS>ATOM
      1 C01         0.1180    0.7890    1.3780 c3        1 ED8      0.161100
      2 N02         1.5350    0.5580    1.2310 n3        1 ED8     -0.735600
      3 C03         2.1780    0.1570    2.4730 c3        1 ED8      0.179800
      4 C04         3.6880   -0.0180    2.3430 c3        1 ED8     -0.097900
      5 C05         4.0090   -0.9800    1.2010 c3        1 ED8      0.142100
      6 O06         5.4420   -0.9420    1.0810 os        1 ED8     -0.311900
      7 C07         6.0760   -1.9820    0.4480 ca        1 ED8      0.180100
      8 C08         7.4870   -1.8470    0.4320 ca        1 ED8     -0.157000
      9 C09         8.2940   -2.8060   -0.1600 ca        1 ED8     -0.013000
     10 C10         7.6850   -3.9210   -0.7440 ca        1 ED8      0.045400
     11 N11         8.2540   -5.0420   -1.4090 nc        1 ED8     -0.482100
     12 C12         7.2430   -5.8090   -1.7740 cd        1 ED8      0.436700
     13 N13         5.9540   -5.2680   -1.3870 na        1 ED8     -0.095400
     14 C14         4.7420   -5.8320   -1.6170 cc        1 ED8      0.219700
     15 C15         4.5140   -7.0530   -2.2760 cd        1 ED8     -0.335000
     16 C16         3.1360   -7.3630   -2.3560 cd        1 ED8      0.305100
     17 O17         2.5670   -8.4420   -2.9250 os        1 ED8     -0.271900
     18 C18         3.4820   -9.3980   -3.5220 c3        1 ED8      0.162700
     19 C19         2.6640  -10.4650   -4.1710 ca        1 ED8     -0.066300
     20 C20         1.3130  -10.6340   -3.8610 ca        1 ED8     -0.111000
     21 C21         0.5750  -11.6560   -4.4620 ca        1 ED8     -0.095000
     22 C22         1.1840  -12.5170   -5.3720 ca        1 ED8     -0.115000
     23 C23         2.5340  -12.3540   -5.6890 ca        1 ED8     -0.074000
     24 C24         3.2730  -11.3310   -5.0940 ca        1 ED8     -0.158300
     25 C25         4.7440  -11.1680   -5.4730 c3        1 ED8      0.684200
     26 F26         5.0120  -10.0330   -6.2020 f         1 ED8     -0.233967
     27 F27         5.5990  -11.0710   -4.3980 f         1 ED8     -0.233967
     28 F28         5.2660  -12.1860   -6.2260 f         1 ED8     -0.233967
     29 C29         2.3090   -6.3780   -1.7500 cc        1 ED8     -0.355700
     30 C30         0.9040   -6.5060   -1.7080 c         1 ED8      0.627700
     31 N31         0.1610   -5.3120   -1.0820 nz        1 ED8     -0.769400
     32 O32         0.1410   -7.3910   -2.0750 o         1 ED8     -0.449100
     33 S33         3.2600   -5.1220   -1.1240 ss        1 ED8     -0.035800
     34 C34         6.2450   -4.0450   -0.7210 ca        1 ED8     -0.048200
     35 C35         5.4280   -3.0830   -0.1320 ca        1 ED8     -0.219000
     36 C36         3.3560   -0.5040   -0.0890 c3        1 ED8     -0.097900
     37 C37         1.8560   -0.3090    0.1110 c3        1 ED8      0.179800
     38 H01        -0.4600   -0.1430    1.6300 h1        1 ED8      0.037033
     39 H01A       -0.2830    1.2110    0.4190 h1        1 ED8      0.037033
     40 H01B       -0.0430    1.5410    2.1950 h1        1 ED8      0.037033
     41 H03         1.7370   -0.8040    2.8740 h1        1 ED8      0.026950
     42 H03A        1.9790    0.9650    3.2330 h1        1 ED8      0.026950
     43 H04         4.1810    0.9690    2.1430 hc        1 ED8      0.069950
     44 H04A        4.0960   -0.4180    3.3050 hc        1 ED8      0.069950
     45 H05         3.6740   -2.0180    1.4690 h1        1 ED8      0.036700
     46 H08         7.9310   -0.9550    0.9030 ha        1 ED8      0.174000
     47 H09         9.3910   -2.6970   -0.1710 ha        1 ED8      0.175000
     48 H12         7.3070   -6.7630   -2.3140 h5        1 ED8      0.090800
     49 H15         5.3010   -7.6950   -2.6830 ha        1 ED8      0.195000
     50 H18         4.1200   -8.8640   -4.2780 h1        1 ED8      0.082700
     51 H18A        4.1240   -9.8320   -2.7070 h1        1 ED8      0.082700
     52 H20         0.8260   -9.9530   -3.1440 ha        1 ED8      0.156000
     53 H21        -0.4900  -11.7800   -4.2110 ha        1 ED8      0.150000
     54 H22         0.6060  -13.3260   -5.8450 ha        1 ED8      0.157000
     55 H23         3.0180  -13.0350   -6.4100 ha        1 ED8      0.166000
     56 HN31        0.4600   -5.1800   -0.1150 hn        1 ED8      0.458133
     57 HN3A        0.3560   -4.4630   -1.6140 hn        1 ED8      0.458133
     58 H35         4.3340   -3.1770   -0.1250 ha        1 ED8      0.135000
     59 H36         3.8310    0.4640   -0.4030 hc        1 ED8      0.069950
     60 H36A        3.5240   -1.2460   -0.9100 hc        1 ED8      0.069950
     61 H37         1.4270    0.1620   -0.8190 h1        1 ED8      0.026950
     62 H37A        1.3760   -1.3300    0.2250 h1        1 ED8      0.026950
     63 H313       -0.8480   -5.4990   -1.1010 hn        1 ED8      0.458133
@<TRIPOS>BOND
     1    1    2 1   
     2    1   38 1   
     3    1   39 1   
     4    1   40 1   
     5    2    3 1   
     6    2   37 1   
     7    3    4 1   
     8    3   41 1   
     9    3   42 1   
    10    4    5 1   
    11    4   43 1   
    12    4   44 1   
    13    5    6 1   
    14    5   36 1   
    15    5   45 1   
    16    6    7 1   
    17    7    8 ar  
    18    7   35 ar  
    19    8    9 ar  
    20    8   46 1   
    21    9   10 ar  
    22    9   47 1   
    23   10   11 1   
    24   10   34 ar  
    25   11   12 2   
    26   12   13 1   
    27   12   48 1   
    28   13   14 1   
    29   13   34 1   
    30   14   15 2   
    31   14   33 1   
    32   15   16 1   
    33   15   49 1   
    34   16   17 1   
    35   16   29 2   
    36   17   18 1   
    37   18   19 1   
    38   18   50 1   
    39   18   51 1   
    40   19   20 ar  
    41   19   24 ar  
    42   20   21 ar  
    43   20   52 1   
    44   21   22 ar  
    45   21   53 1   
    46   22   23 ar  
    47   22   54 1   
    48   23   24 ar  
    49   23   55 1   
    50   24   25 1   
    51   25   26 1   
    52   25   27 1   
    53   25   28 1   
    54   29   30 1   
    55   29   33 1   
    56   30   31 1   
    57   30   32 2   
    58   31   56 1   
    59   31   57 1   
    60   31   63 1   
    61   34   35 ar  
    62   35   58 1   
    63   36   37 1   
    64   36   59 1   
    65   36   60 1   
    66   37   61 1   
    67   37   62 1   
@<TRIPOS>SUBSTRUCTURE
     1 ED8         1 TEMP              0 ****  ****    0 ROOT
