@<TRIPOS>MOLECULE
ED8
   63    67     1     0     0
SMALL
bcc


@<TRIPOS>ATOM
      1 C01         0.1120    0.8030    1.3460 c3        1 ED8      0.161100
      2 N02         1.5290    0.5690    1.2060 n3        1 ED8     -0.735600
      3 C03         2.1660    0.1700    2.4520 c3        1 ED8      0.180300
      4 C04         3.6760   -0.0070    2.3290 c3        1 ED8     -0.098400
      5 C05         4.0020   -0.9720    1.1920 c3        1 ED8      0.142100
      6 O06         5.4350   -0.9360    1.0780 os        1 ED8     -0.311900
      7 C07         6.0700   -1.9780    0.4490 ca        1 ED8      0.180100
      8 C08         7.4820   -1.8430    0.4360 ca        1 ED8     -0.157000
      9 C09         8.2900   -2.8040   -0.1510 ca        1 ED8     -0.013000
     10 C10         7.6830   -3.9200   -0.7340 ca        1 ED8      0.045400
     11 N11         8.2530   -5.0430   -1.3950 nc        1 ED8     -0.482100
     12 C12         7.2430   -5.8100   -1.7610 cd        1 ED8      0.436700
     13 N13         5.9530   -5.2680   -1.3790 na        1 ED8     -0.095400
     14 C14         4.7420   -5.8330   -1.6110 cc        1 ED8      0.219700
     15 C15         4.5160   -7.0560   -2.2680 cd        1 ED8     -0.335000
     16 C16         3.1390   -7.3660   -2.3500 cd        1 ED8      0.305100
     17 O17         2.5710   -8.4470   -2.9180 os        1 ED8     -0.271900
     18 C18         3.4880   -9.4060   -3.5080 c3        1 ED8      0.161700
     19 C19         2.6720  -10.4750   -4.1550 ca        1 ED8     -0.066300
     20 C20         1.3190  -10.6420   -3.8510 ca        1 ED8     -0.111000
     21 C21         0.5840  -11.6660   -4.4500 ca        1 ED8     -0.095000
     22 C22         1.1970  -12.5320   -5.3530 ca        1 ED8     -0.115000
     23 C23         2.5480  -12.3720   -5.6650 ca        1 ED8     -0.074000
     24 C24         3.2850  -11.3460   -5.0720 ca        1 ED8     -0.158300
     25 C25         4.7570  -11.1850   -5.4440 c3        1 ED8      0.684200
     26 F26         5.0300  -10.0530   -6.1780 f         1 ED8     -0.233967
     27 F27         5.6080  -11.0840   -4.3660 f         1 ED8     -0.233967
     28 F28         5.2830  -12.2070   -6.1910 f         1 ED8     -0.233967
     29 C29         2.3100   -6.3800   -1.7500 cc        1 ED8     -0.355700
     30 C30         0.9050   -6.5080   -1.7110 c         1 ED8      0.627700
     31 N31         0.1590   -5.3130   -1.0900 n4        1 ED8     -0.769400
     32 O32         0.1430   -7.3930   -2.0790 o         1 ED8     -0.449100
     33 S33         3.2590   -5.1220   -1.1240 ss        1 ED8     -0.035800
     34 C34         6.2430   -4.0440   -0.7150 ca        1 ED8     -0.048200
     35 C35         5.4240   -3.0810   -0.1300 ca        1 ED8     -0.219000
     36 C36         3.3550   -0.4990   -0.1030 c3        1 ED8     -0.098400
     37 C37         1.8540   -0.3020    0.0900 c3        1 ED8      0.180300
     38 H01        -0.4690   -0.1270    1.5980 h1        1 ED8      0.036700
     39 H01A       -0.0510    1.5570    2.1600 h1        1 ED8      0.036700
     40 H01B       -0.2840    1.2230    0.3840 h1        1 ED8      0.036700
     41 H03         1.7220   -0.7890    2.8540 h1        1 ED8      0.026950
     42 H03A        1.9650    0.9810    3.2090 h1        1 ED8      0.026950
     43 H04         4.0800   -0.4060    3.2940 hc        1 ED8      0.069950
     44 H04A        4.1720    0.9790    2.1300 hc        1 ED8      0.069950
     45 H05         3.6630   -2.0100    1.4600 h1        1 ED8      0.035700
     46 H08         7.9240   -0.9500    0.9070 ha        1 ED8      0.174000
     47 H09         9.3870   -2.6950   -0.1590 ha        1 ED8      0.175000
     48 H12         7.3090   -6.7660   -2.2990 h5        1 ED8      0.090800
     49 H15         5.3040   -7.6990   -2.6690 ha        1 ED8      0.195000
     50 H18         4.1280   -9.8350   -2.6890 h1        1 ED8      0.082700
     51 H18A        4.1280   -8.8740   -4.2650 h1        1 ED8      0.082700
     52 H20         0.8300   -9.9570   -3.1390 ha        1 ED8      0.156000
     53 H21        -0.4820  -11.7890   -4.2030 ha        1 ED8      0.150000
     54 H22         0.6200  -13.3430   -5.8240 ha        1 ED8      0.157000
     55 H23         3.0350  -13.0570   -6.3800 ha        1 ED8      0.166000
     56 HN31        0.4560   -5.1780   -0.1220 hn        1 ED8      0.458133
     57 HN3A        0.3550   -4.4640   -1.6240 hn        1 ED8      0.458133
     58 H35         4.3300   -3.1750   -0.1270 ha        1 ED8      0.135000
     59 H36         3.5250   -1.2430   -0.9210 hc        1 ED8      0.069950
     60 H36A        3.8320    0.4670   -0.4170 hc        1 ED8      0.069950
     61 H37         1.4300    0.1680   -0.8430 h1        1 ED8      0.026950
     62 H37A        1.3720   -1.3210    0.2040 h1        1 ED8      0.026950
     63 H313       -0.8500   -5.5000   -1.1110 hn        1 ED8      0.458133
@<TRIPOS>BOND
     1    1    2 1   
     2    1   38 1   
     3    1   39 1   
     4    1   40 1   
     5    2    3 1   
     6    2   37 1   
     7    3    4 1   
     8    3   41 1   
     9    3   42 1   
    10    4    5 1   
    11    4   43 1   
    12    4   44 1   
    13    5    6 1   
    14    5   36 1   
    15    5   45 1   
    16    6    7 1   
    17    7    8 ar  
    18    7   35 ar  
    19    8    9 ar  
    20    8   46 1   
    21    9   10 ar  
    22    9   47 1   
    23   10   11 1   
    24   10   34 ar  
    25   11   12 2   
    26   12   13 1   
    27   12   48 1   
    28   13   14 1   
    29   13   34 1   
    30   14   15 2   
    31   14   33 1   
    32   15   16 1   
    33   15   49 1   
    34   16   17 1   
    35   16   29 2   
    36   17   18 1   
    37   18   19 1   
    38   18   50 1   
    39   18   51 1   
    40   19   20 ar  
    41   19   24 ar  
    42   20   21 ar  
    43   20   52 1   
    44   21   22 ar  
    45   21   53 1   
    46   22   23 ar  
    47   22   54 1   
    48   23   24 ar  
    49   23   55 1   
    50   24   25 1   
    51   25   26 1   
    52   25   27 1   
    53   25   28 1   
    54   29   30 1   
    55   29   33 1   
    56   30   31 1   
    57   30   32 2   
    58   31   56 1   
    59   31   57 1   
    60   31   63 1   
    61   34   35 ar  
    62   35   58 1   
    63   36   37 1   
    64   36   59 1   
    65   36   60 1   
    66   37   61 1   
    67   37   62 1   
@<TRIPOS>SUBSTRUCTURE
     1 ED8         1 TEMP              0 ****  ****    0 ROOT
