@<TRIPOS>MOLECULE
ED8
   62    57     1     0     0
SMALL
bcc


@<TRIPOS>ATOM
      1 C01        -8.2400   -2.8700    1.4160 c3        1 ED8     -0.127000
      2 N02        -7.4940   -2.2080    2.4560 n3        1 ED8     -0.247000
      3 C03        -7.5670   -0.7530    2.2590 c3        1 ED8     -0.072500
      4 C04        -6.7760   -0.2920    1.0520 c3        1 ED8     -0.207500
      5 C05        -5.3750   -0.7940    1.0660 c3        1 ED8      0.034000
      6 O06        -4.7400   -0.4570   -0.2020 os        1 ED8     -0.216000
      7 C07        -3.7360    0.5330    0.0180 c2        1 ED8      0.116000
      8 C08        -4.2160    1.8340    0.0480 c1        1 ED8     -0.219000
      9 C09        -3.3210    2.9090    0.1080 c1        1 ED8     -0.028000
     10 C10        -1.9170    2.6660    0.1380 c1        1 ED8     -0.101000
     11 N11        -0.8550    3.5040    0.3360 n1        1 ED8     -0.112000
     12 C12         0.2780    2.7400    0.4280 c1        1 ED8     -0.017000
     13 N13        -0.0830    1.4320    0.2880 n3        1 ED8     -0.137000
     14 C14         0.9730    1.0150   -0.5110 c2        1 ED8     -0.166000
     15 C15         2.2270    0.4320   -0.0370 c1        1 ED8     -0.266000
     16 C16         3.2150    0.3040   -1.2730 c1        1 ED8      0.133000
     17 O17         4.5070   -0.2500   -1.2400 o         1 ED8     -0.174000
     18 C18         5.4830    0.5680   -0.5500 c3        1 ED8      0.004000
     19 C19         6.8110   -0.1920   -0.4650 c2        1 ED8     -0.046000
     20 C20         6.8460   -1.5540   -0.7230 c2        1 ED8     -0.107000
     21 C21         8.0340   -2.2630   -0.5640 c1        1 ED8     -0.099000
     22 C22         9.1840   -1.6070   -0.1480 c1        1 ED8     -0.111500
     23 C23         9.1510   -0.2460    0.1100 c1        1 ED8     -0.111500
     24 C24         7.9630    0.4650   -0.0480 c1        1 ED8     -0.159000
     25 C25         7.9150    1.9560    0.2950 c3        1 ED8      0.464000
     26 F26         7.4400    2.6430   -0.7580 f         1 ED8     -0.169000
     27 F27         9.1520    2.3880    0.5890 f         1 ED8     -0.169000
     28 F28         7.1230    2.1440    1.3380 f         1 ED8     -0.169000
     29 C29         2.5350    0.8110   -2.4590 c1        1 ED8     -0.498000
     30 C30         3.0620    0.7350   -3.9010 c1        1 ED8      0.392000
     31 N31         2.2920    1.2730   -4.9660 n3        1 ED8     -0.427000
     32 O32         4.1270    0.2330   -4.1230 o         1 ED8     -0.361000
     33 S33         1.1150    1.2730   -2.0350 ss        1 ED8      0.608000
     34 C34        -1.4450    1.3860    0.1080 c1        1 ED8      0.008000
     35 C35        -2.3540    0.2950    0.0470 c2        1 ED8     -0.174000
     36 C36        -5.3060   -2.2610    1.2640 c3        1 ED8     -0.207500
     37 C37        -6.1050   -2.7170    2.4720 c3        1 ED8     -0.072500
     38 H01        -7.8550   -2.6360    0.5310 h1        1 ED8      0.073333
     39 H01A       -8.1940   -3.8340    1.5460 h1        1 ED8      0.073333
     40 H01B       -9.1770   -2.5800    1.4500 h1        1 ED8      0.073333
     41 H03        -7.2130   -0.3080    3.0570 h1        1 ED8      0.094250
     42 H03A       -8.5060   -0.4950    2.1420 h1        1 ED8      0.094250
     43 H04        -6.7630    0.7010    1.0360 hc        1 ED8      0.099750
     44 H04A       -7.2220   -0.6180    0.2380 hc        1 ED8      0.099750
     45 H05        -4.9020   -0.3650    1.7710 h1        1 ED8      0.095000
     46 H08        -5.1960    2.0060   -0.0590 ha        1 ED8      0.144000
     47 H09        -3.6560    3.8200    0.1290 ha        1 ED8      0.155000
     48 H12         1.2080    3.0820    0.5220 DU        1 ED8      0.188500
     49 H15         2.3960    0.0940    0.8700 DU        1 ED8      0.188500
     50 H18         5.1550    0.7720    0.3740 h1        1 ED8      0.109500
     51 H18A        5.6150    1.4040   -1.0420 h1        1 ED8      0.109500
     52 H20         6.0460   -2.0120   -1.0130 ha        1 ED8      0.191000
     53 H21         8.0590   -3.2220   -0.7470 ha        1 ED8      0.145000
     54 H22        10.0380   -2.1180   -0.0330 ha        1 ED8      0.146000
     55 H23         9.9660    0.2180    0.4060 ha        1 ED8      0.146000
     56 HN31        2.6360    1.2910   -5.8230 hn        1 ED8      0.221500
     57 HN3A        1.4810    1.6610   -4.7910 hn        1 ED8      0.221500
     58 H35        -2.0130   -0.6250   -0.0200 ha        1 ED8      0.156000
     59 H36        -5.6590   -2.7080    0.4600 hc        1 ED8      0.099750
     60 H36A       -4.3640   -2.5220    1.3890 hc        1 ED8      0.099750
     61 H37        -6.1270   -3.6820    2.4870 h1        1 ED8      0.094250
     62 H37A       -5.6570   -2.3950    3.2910 h1        1 ED8      0.094250
@<TRIPOS>BOND
     1    1    2 1   
     2    1   38 1   
     3    1   39 1   
     4    1   40 1   
     5    2    3 1   
     6    2   37 1   
     7    3    4 1   
     8    3   41 1   
     9    3   42 1   
    10    4    5 1   
    11    4   43 1   
    12    4   44 1   
    13    5    6 1   
    14    5   36 1   
    15    5   45 1   
    16    6    7 1   
    17    7    8 1   
    18    7   35 1   
    19    8   46 1   
    20    9   10 1   
    21    9   47 1   
    22   11   12 1   
    23   12   13 1   
    24   13   14 1   
    25   13   34 1   
    26   14   15 1   
    27   14   33 1   
    28   15   16 1   
    29   16   29 1   
    30   17   18 1   
    31   18   19 1   
    32   18   50 1   
    33   18   51 1   
    34   19   20 1   
    35   19   24 1   
    36   20   21 1   
    37   20   52 1   
    38   21   53 1   
    39   22   23 1   
    40   22   54 1   
    41   23   55 1   
    42   24   25 1   
    43   25   26 1   
    44   25   27 1   
    45   25   28 1   
    46   29   33 1   
    47   30   31 1   
    48   30   32 1   
    49   31   56 1   
    50   31   57 1   
    51   34   35 1   
    52   35   58 1   
    53   36   37 1   
    54   36   59 1   
    55   36   60 1   
    56   37   61 1   
    57   37   62 1   
@<TRIPOS>SUBSTRUCTURE
     1 ED8         1 TEMP              0 ****  ****    0 ROOT
