@<TRIPOS>MOLECULE
ED9
   85    87     1     0     0
SMALL
bcc


@<TRIPOS>ATOM
      1 O2         -0.2680    0.4140    0.3870 oh        1 ED9     -0.594800
      2 O3         14.6920   -6.3760   -1.0910 oh        1 ED9     -0.597800
      3 C1          3.1150    1.7240   -0.7260 c3        1 ED9      0.163300
      4 C2          1.5840    1.6550   -0.5740 c3        1 ED9      0.078100
      5 C3          1.1320    0.3990    0.1910 c3        1 ED9      0.150100
      6 C4          1.8680    0.2630    1.5200 c3        1 ED9     -0.072200
      7 C5          3.3440    0.2520    1.3120 ce        1 ED9     -0.089200
      8 C6          4.1080   -0.7290    1.8330 cf        1 ED9     -0.108000
      9 C7          5.5380   -0.8390    1.6670 cf        1 ED9     -0.159000
     10 C8          6.3650   -1.5810    2.4240 c2        1 ED9     -0.070400
     11 C9          5.9570   -2.3570    3.6340 c3        1 ED9     -0.046200
     12 C10         3.8570    1.3830    0.5400 ce        1 ED9     -0.112200
     13 C11         6.5450   -3.7570    3.6890 c3        1 ED9     -0.073400
     14 C12         8.0240   -3.8250    3.3490 c3        1 ED9     -0.067400
     15 C13         8.3080   -3.1200    2.0320 c3        1 ED9     -0.039000
     16 C14         7.8330   -1.6490    2.1980 c3        1 ED9     -0.039500
     17 C15         8.4810   -0.9220    1.0290 c3        1 ED9     -0.074400
     18 C16         9.8180   -1.6380    0.8280 c3        1 ED9     -0.078400
     19 C17         9.8020   -2.9180    1.6890 c3        1 ED9     -0.053700
     20 C18         7.5790   -3.8040    0.8870 c3        1 ED9     -0.083100
     21 C19         4.9120    2.1100    0.9270 c2        1 ED9     -0.176000
     22 C20        10.5110   -4.0790    0.9990 c3        1 ED9     -0.054700
     23 C21        10.4660   -5.3430    1.8360 c3        1 ED9     -0.092100
     24 C22        11.9660   -3.7130    0.7120 c3        1 ED9     -0.079400
     25 C23        12.5480   -4.5450   -0.4130 c3        1 ED9     -0.079400
     26 C24        13.9840   -4.1540   -0.6850 c3        1 ED9     -0.064400
     27 C25        14.6740   -5.0790   -1.6920 c3        1 ED9      0.147800
     28 C26        16.1060   -4.6030   -1.9240 c3        1 ED9     -0.123100
     29 C27        13.9250   -5.1300   -3.0180 c3        1 ED9     -0.123100
     30 O1          3.5130    0.8920   -1.8060 oh        1 ED9     -0.591800
     31 O4          1.0990    2.7740    0.1680 os        1 ED9     -0.423600
     32 C28         0.8170    3.9110   -0.6490 c3        1 ED9      0.131400
     33 C29         0.3740    5.0140    0.2940 c3        1 ED9     -0.089400
     34 C30         0.0350    6.2630   -0.5000 c3        1 ED9      0.133400
     35 O5         -0.3630    7.2500    0.4370 oh        1 ED9     -0.597800
     36 H1         -0.4790    1.2220    0.8750 ho        1 ED9      0.415000
     37 H2         15.1260   -6.9660   -1.7190 ho        1 ED9      0.397000
     38 H3          3.3960    2.7630   -1.0700 h1        1 ED9      0.078700
     39 H4          1.1240    1.6380   -1.6030 h1        1 ED9      0.066700
     40 H5          1.3160   -0.5040   -0.4580 h1        1 ED9      0.076700
     41 H6          1.5970    1.1360    2.1750 hc        1 ED9      0.064700
     42 H7          1.5200   -0.6710    2.0340 hc        1 ED9      0.064700
     43 H8          3.6160   -1.5330    2.4110 ha        1 ED9      0.126000
     44 H9          5.9590   -0.2490    0.8290 ha        1 ED9      0.133000
     45 H10         4.8410   -2.4380    3.7040 hc        1 ED9      0.047700
     46 H11         6.3010   -1.7790    4.5370 hc        1 ED9      0.047700
     47 H12         5.9780   -4.4190    2.9830 hc        1 ED9      0.040700
     48 H13         6.3910   -4.1670    4.7230 hc        1 ED9      0.040700
     49 H14         8.6240   -3.3450    4.1660 hc        1 ED9      0.043200
     50 H15         8.3360   -4.9000    3.2930 hc        1 ED9      0.043200
     51 H16         8.3130   -1.2460    3.1420 hc        1 ED9      0.055700
     52 H17         7.8540   -1.0010    0.1070 hc        1 ED9      0.045200
     53 H18         8.6260    0.1630    1.2530 hc        1 ED9      0.045200
     54 H19        10.6660   -0.9790    1.1380 hc        1 ED9      0.042200
     55 H20         9.9580   -1.8930   -0.2520 hc        1 ED9      0.042200
     56 H21        10.3470   -2.7120    2.6520 hc        1 ED9      0.046700
     57 H22         7.8070   -4.8960    0.8750 hc        1 ED9      0.037367
     58 H23         6.4740   -3.6720    0.9910 hc        1 ED9      0.037367
     59 H24         7.8910   -3.3620   -0.0900 hc        1 ED9      0.037367
     60 H25         5.2800    2.9660    0.3470 ha        1 ED9      0.120500
     61 H26         5.4650    1.8910    1.8510 ha        1 ED9      0.120500
     62 H27         9.9940   -4.2800    0.0180 hc        1 ED9      0.050700
     63 H28         9.4530   -5.8090    1.7970 hc        1 ED9      0.035033
     64 H29        11.2030   -6.0910    1.4520 hc        1 ED9      0.035033
     65 H30        10.7160   -5.1190    2.9010 hc        1 ED9      0.035033
     66 H31        12.0460   -2.6300    0.4340 hc        1 ED9      0.040200
     67 H32        12.5730   -3.8590    1.6440 hc        1 ED9      0.040200
     68 H33        12.5090   -5.6360   -0.1530 hc        1 ED9      0.048700
     69 H34        14.0300   -3.1080   -1.0830 hc        1 ED9      0.047200
     70 H35        16.6310   -5.2880   -2.6320 hc        1 ED9      0.042367
     71 H36        16.6650   -4.5920   -0.9590 hc        1 ED9      0.042367
     72 H37        16.1010   -3.5750   -2.3550 hc        1 ED9      0.042367
     73 H38        14.5240   -5.6830   -3.7810 hc        1 ED9      0.042367
     74 H39        12.9500   -5.6560   -2.8850 hc        1 ED9      0.042367
     75 H40        13.7340   -4.0960   -3.3900 hc        1 ED9      0.042367
     76 H41         3.4440   -0.0230   -1.5060 ho        1 ED9      0.406000
     77 H42         0.0050    3.6520   -1.3810 h1        1 ED9      0.030700
     78 H43         1.7380    4.2110   -1.2160 h1        1 ED9      0.030700
     79 H44         1.1870    5.2390    1.0310 hc        1 ED9      0.069700
     80 H45        -0.5210    4.6810    0.8800 hc        1 ED9      0.069700
     81 H46         0.9300    6.6210   -1.0770 h1        1 ED9      0.021200
     82 H47        -0.8020    6.0590   -1.2220 h1        1 ED9      0.021200
     83 H48        -0.5850    8.0390   -0.0720 ho        1 ED9      0.401000
     84 H49        11.9340   -4.4010   -1.3410 hc        1 ED9      0.048700
     85 H50        14.5660   -4.1860    0.2740 hc        1 ED9      0.047200
@<TRIPOS>BOND
     1    1    5 1   
     2    1   36 1   
     3    2   27 1   
     4    2   37 1   
     5    3    4 1   
     6    3   12 1   
     7    3   30 1   
     8    3   38 1   
     9    4    5 1   
    10    4   31 1   
    11    4   39 1   
    12    5    6 1   
    13    5   40 1   
    14    6    7 1   
    15    6   41 1   
    16    6   42 1   
    17    7    8 2   
    18    7   12 1   
    19    8    9 1   
    20    8   43 1   
    21    9   10 2   
    22    9   44 1   
    23   10   11 1   
    24   10   16 1   
    25   11   13 1   
    26   11   45 1   
    27   11   46 1   
    28   12   21 2   
    29   13   14 1   
    30   13   47 1   
    31   13   48 1   
    32   14   15 1   
    33   14   49 1   
    34   14   50 1   
    35   15   16 1   
    36   15   19 1   
    37   15   20 1   
    38   16   17 1   
    39   16   51 1   
    40   17   18 1   
    41   17   52 1   
    42   17   53 1   
    43   18   19 1   
    44   18   54 1   
    45   18   55 1   
    46   19   22 1   
    47   19   56 1   
    48   20   57 1   
    49   20   58 1   
    50   20   59 1   
    51   21   60 1   
    52   21   61 1   
    53   22   23 1   
    54   22   24 1   
    55   22   62 1   
    56   23   63 1   
    57   23   64 1   
    58   23   65 1   
    59   24   25 1   
    60   24   66 1   
    61   24   67 1   
    62   25   26 1   
    63   25   68 1   
    64   25   84 1   
    65   26   27 1   
    66   26   69 1   
    67   26   85 1   
    68   27   28 1   
    69   27   29 1   
    70   28   70 1   
    71   28   71 1   
    72   28   72 1   
    73   29   73 1   
    74   29   74 1   
    75   29   75 1   
    76   30   76 1   
    77   31   32 1   
    78   32   33 1   
    79   32   77 1   
    80   32   78 1   
    81   33   34 1   
    82   33   79 1   
    83   33   80 1   
    84   34   35 1   
    85   34   81 1   
    86   34   82 1   
    87   35   83 1   
@<TRIPOS>SUBSTRUCTURE
     1 ED9         1 TEMP              0 ****  ****    0 ROOT
