@<TRIPOS>MOLECULE
ED9
   85    87     1     0     0
SMALL
bcc


@<TRIPOS>ATOM
      1 O2         -0.2710    0.3300    0.2030 oh        1 ED9     -0.596800
      2 O3         14.7540   -6.4610   -0.8890 oh        1 ED9     -0.597800
      3 C1          3.0780    1.7940   -0.8010 c3        1 ED9      0.164300
      4 C2          1.5490    1.6900   -0.6470 c3        1 ED9      0.078100
      5 C3          1.1330    0.3760    0.0350 c3        1 ED9      0.155100
      6 C4          1.8540    0.2010    1.3660 c3        1 ED9     -0.069200
      7 C5          3.3330    0.2240    1.1730 ce        1 ED9     -0.071200
      8 C6          4.1060   -0.7580    1.6800 cf        1 ED9     -0.109000
      9 C7          5.5390   -0.8510    1.5160 cf        1 ED9     -0.150000
     10 C8          6.3780   -1.5290    2.3170 c2        1 ED9     -0.081400
     11 C9          5.9810   -2.2260    3.5790 c3        1 ED9     -0.044200
     12 C10         3.8420    1.3740    0.4290 ce        1 ED9     -0.060200
     13 C11         6.5840   -3.6120    3.7270 c3        1 ED9     -0.073400
     14 C12         8.0620   -3.6880    3.3870 c3        1 ED9     -0.067400
     15 C13         8.3350   -3.0710    2.0230 c3        1 ED9     -0.039000
     16 C14         7.8450   -1.5970    2.0910 c3        1 ED9     -0.036500
     17 C15         8.4810   -0.9440    0.8730 c3        1 ED9     -0.074400
     18 C16         9.8250   -1.6590    0.7150 c3        1 ED9     -0.078400
     19 C17         9.8260   -2.8770    1.6610 c3        1 ED9     -0.053700
     20 C18         7.6100   -3.8380    0.9310 c3        1 ED9     -0.083100
     21 C19         4.9250    2.0630    0.8090 c2        1 ED9     -0.190000
     22 C20        10.5450   -4.0750    1.0490 c3        1 ED9     -0.054700
     23 C21        10.5170   -5.2790    1.9710 c3        1 ED9     -0.092100
     24 C22        11.9950   -3.7140    0.7320 c3        1 ED9     -0.079400
     25 C23        12.5830   -4.6160   -0.3340 c3        1 ED9     -0.079400
     26 C24        14.0130   -4.2270   -0.6410 c3        1 ED9     -0.064400
     27 C25        14.7110   -5.2120   -1.5830 c3        1 ED9      0.147800
     28 C26        16.1330   -4.7320   -1.8600 c3        1 ED9     -0.123100
     29 C27        13.9540   -5.3720   -2.8960 c3        1 ED9     -0.123100
     30 O1          3.5160    0.9610   -1.8700 oh        1 ED9     -0.583800
     31 O4          1.0480    2.7460    0.1720 os        1 ED9     -0.420600
     32 C28         0.7580    3.9390   -0.5560 c3        1 ED9      0.130400
     33 C29         0.2780    4.9550    0.4640 c3        1 ED9     -0.089400
     34 C30        -0.0730    6.2570   -0.2330 c3        1 ED9      0.133400
     35 O5         -0.5070    7.1570    0.7740 oh        1 ED9     -0.596800
     36 H1         -0.5150    1.0790    0.7630 ho        1 ED9      0.412000
     37 H2         15.1900   -7.0890   -1.4760 ho        1 ED9      0.397000
     38 H3          3.3310    2.8680   -1.0460 h1        1 ED9      0.036700
     39 H4          1.0720    1.7340   -1.6670 h1        1 ED9      0.047700
     40 H5          1.3690   -0.4780   -0.6610 h1        1 ED9      0.091700
     41 H6          1.5600    1.0400    2.0550 hc        1 ED9      0.062700
     42 H7          1.5190   -0.7610    1.8360 hc        1 ED9      0.062700
     43 H8          3.6220   -1.5810    2.2370 ha        1 ED9      0.124000
     44 H9          5.9440   -0.3140    0.6360 ha        1 ED9      0.136000
     45 H10         4.8650   -2.3130    3.6560 hc        1 ED9      0.046700
     46 H11         6.3200   -1.5850    4.4400 hc        1 ED9      0.046700
     47 H12         6.4380   -3.9540    4.7860 hc        1 ED9      0.040200
     48 H13         6.0220   -4.3270    3.0690 hc        1 ED9      0.040200
     49 H14         8.6590   -3.1470    4.1670 hc        1 ED9      0.042200
     50 H15         8.3860   -4.7610    3.4020 hc        1 ED9      0.042200
     51 H16         8.3240   -1.1260    3.0030 hc        1 ED9      0.053700
     52 H17         7.8500   -1.0930   -0.0390 hc        1 ED9      0.045700
     53 H18         8.6160    0.1540    1.0220 hc        1 ED9      0.045700
     54 H19         9.9630   -1.9860   -0.3460 hc        1 ED9      0.041700
     55 H20        10.6670   -0.9720    0.9740 hc        1 ED9      0.041700
     56 H21        10.3720   -2.5990    2.6060 hc        1 ED9      0.045700
     57 H22         6.5040   -3.7090    1.0290 hc        1 ED9      0.037700
     58 H23         7.9150   -3.4610   -0.0760 hc        1 ED9      0.037700
     59 H24         7.8480   -4.9270    0.9930 hc        1 ED9      0.037700
     60 H25         5.3000    2.9280    0.2460 ha        1 ED9      0.120000
     61 H26         5.4950    1.8030    1.7100 ha        1 ED9      0.120000
     62 H27        10.0270   -4.3480    0.0860 hc        1 ED9      0.050700
     63 H28         9.5080   -5.7570    1.9680 hc        1 ED9      0.035033
     64 H29        11.2600   -6.0430    1.6360 hc        1 ED9      0.035033
     65 H30        10.7670   -4.9800    3.0170 hc        1 ED9      0.035033
     66 H31        12.0620   -2.6520    0.3790 hc        1 ED9      0.040200
     67 H32        12.6070   -3.7880    1.6690 hc        1 ED9      0.040200
     68 H33        11.9640   -4.5450   -1.2670 hc        1 ED9      0.048700
     69 H34        14.0420   -3.2110   -1.1130 hc        1 ED9      0.047200
     70 H35        16.6980   -4.6410   -0.9020 hc        1 ED9      0.042200
     71 H36        16.1100   -3.7390   -2.3660 hc        1 ED9      0.042200
     72 H37        16.6660   -5.4600   -2.5190 hc        1 ED9      0.042200
     73 H38        13.7440   -4.3710   -3.3400 hc        1 ED9      0.042200
     74 H39        12.9890   -5.9020   -2.7180 hc        1 ED9      0.042200
     75 H40        14.5580   -5.9680   -3.6210 hc        1 ED9      0.042200
     76 H41         3.0590    1.2650   -2.6640 ho        1 ED9      0.396000
     77 H42        -0.0360    3.7280   -1.3210 h1        1 ED9      0.027700
     78 H43         1.6820    4.3020   -1.0800 h1        1 ED9      0.027700
     79 H44         1.0740    5.1350    1.2310 hc        1 ED9      0.071200
     80 H45        -0.6200    4.5590    1.0060 hc        1 ED9      0.071200
     81 H46         0.8250    6.6790   -0.7620 h1        1 ED9      0.020200
     82 H47        -0.8930    6.0970   -0.9840 h1        1 ED9      0.020200
     83 H48        -0.7360    7.9800    0.3260 ho        1 ED9      0.401000
     84 H49        12.5600   -5.6860    0.0020 hc        1 ED9      0.048700
     85 H50        14.5990   -4.1820    0.3150 hc        1 ED9      0.047200
@<TRIPOS>BOND
     1    1    5 1   
     2    1   36 1   
     3    2   27 1   
     4    2   37 1   
     5    3    4 1   
     6    3   12 1   
     7    3   30 1   
     8    3   38 1   
     9    4    5 1   
    10    4   31 1   
    11    4   39 1   
    12    5    6 1   
    13    5   40 1   
    14    6    7 1   
    15    6   41 1   
    16    6   42 1   
    17    7    8 2   
    18    7   12 1   
    19    8    9 1   
    20    8   43 1   
    21    9   10 2   
    22    9   44 1   
    23   10   11 1   
    24   10   16 1   
    25   11   13 1   
    26   11   45 1   
    27   11   46 1   
    28   12   21 2   
    29   13   14 1   
    30   13   47 1   
    31   13   48 1   
    32   14   15 1   
    33   14   49 1   
    34   14   50 1   
    35   15   16 1   
    36   15   19 1   
    37   15   20 1   
    38   16   17 1   
    39   16   51 1   
    40   17   18 1   
    41   17   52 1   
    42   17   53 1   
    43   18   19 1   
    44   18   54 1   
    45   18   55 1   
    46   19   22 1   
    47   19   56 1   
    48   20   57 1   
    49   20   58 1   
    50   20   59 1   
    51   21   60 1   
    52   21   61 1   
    53   22   23 1   
    54   22   24 1   
    55   22   62 1   
    56   23   63 1   
    57   23   64 1   
    58   23   65 1   
    59   24   25 1   
    60   24   66 1   
    61   24   67 1   
    62   25   26 1   
    63   25   68 1   
    64   25   84 1   
    65   26   27 1   
    66   26   69 1   
    67   26   85 1   
    68   27   28 1   
    69   27   29 1   
    70   28   70 1   
    71   28   71 1   
    72   28   72 1   
    73   29   73 1   
    74   29   74 1   
    75   29   75 1   
    76   30   76 1   
    77   31   32 1   
    78   32   33 1   
    79   32   77 1   
    80   32   78 1   
    81   33   34 1   
    82   33   79 1   
    83   33   80 1   
    84   34   35 1   
    85   34   81 1   
    86   34   82 1   
    87   35   83 1   
@<TRIPOS>SUBSTRUCTURE
     1 ED9         1 TEMP              0 ****  ****    0 ROOT
