@<TRIPOS>MOLECULE
EDA
   36    39     1     0     0
SMALL
bcc


@<TRIPOS>ATOM
      1 P          -0.4450   -1.7510   -2.7720 p5        1 EDA      1.355900
      2 OP1        -1.1650   -1.8350   -1.4400 o         1 EDA     -0.929833
      3 OP2        -1.2840   -2.0030   -3.9820 o         1 EDA     -0.929833
      4 OP3         0.9480   -2.3370   -2.7350 o         1 EDA     -0.929833
      5 O5'        -0.0210   -0.0820   -2.9210 os        1 EDA     -0.567200
      6 N9          1.7600    0.8800    1.8640 na        1 EDA     -0.246000
      7 C4          0.6530    0.0190    1.9410 cc        1 EDA      0.409800
      8 N3          0.3620   -1.0760    1.1460 nc        1 EDA     -0.651000
      9 C2         -0.8550   -1.5700    1.2470 cd        1 EDA      0.565400
     10 N1         -1.7730   -1.1500    2.2240 na        1 EDA     -0.165100
     11 C6         -1.4590   -0.1170    3.1820 cd        1 EDA      0.032700
     12 C10        -3.0570   -1.5920    2.5380 cd        1 EDA     -0.192100
     13 C11        -3.4640   -0.8480    3.6620 cc        1 EDA     -0.050400
     14 N6         -2.4820    0.0560    4.0620 nc        1 EDA     -0.312600
     15 C5         -0.1930    0.5310    3.0010 cd        1 EDA     -0.067900
     16 N7          0.3860    1.6740    3.5580 nd        1 EDA     -0.543100
     17 C8          1.5120    1.8730    2.8420 cc        1 EDA      0.349700
     18 C2'         3.1980   -0.2770    0.1410 c3        1 EDA     -0.105400
     19 C5'         0.2100    0.6210   -1.7690 c3        1 EDA      0.216400
     20 C4'         1.7230    0.7870   -1.4940 c3        1 EDA      0.072100
     21 O4'         1.9240    1.6880   -0.3740 os        1 EDA     -0.445600
     22 C1'         2.6180    1.0410    0.6910 c3        1 EDA      0.259800
     23 C3'         2.4310   -0.5400   -1.1600 c3        1 EDA      0.121100
     24 O3'         3.3470   -0.8970   -2.1760 oh        1 EDA     -0.664800
     25 H2         -1.1860   -2.2650    0.3970 h5        1 EDA      0.196100
     26 H10        -3.5600   -2.3520    1.9460 h4        1 EDA      0.182000
     27 H11        -4.4110   -0.9150    4.1930 h4        1 EDA      0.150000
     28 H8          2.2090    2.7020    2.9920 h5        1 EDA      0.046800
     29 H2'         3.0870   -1.1330    0.8460 hc        1 EDA      0.052200
     30 H2''        4.2860   -0.1300   -0.0700 hc        1 EDA      0.052200
     31 H5'        -0.2930    0.1290   -0.8940 h1        1 EDA      0.004200
     32 H5''       -0.2080    1.6650   -1.8810 h1        1 EDA      0.004200
     33 H4'         2.2170    1.2920   -2.3660 h1        1 EDA      0.051700
     34 H1'         3.4270    1.7630    1.0130 h2        1 EDA      0.038700
     35 H3'         1.6500   -1.3630   -1.0690 h1        1 EDA      0.161700
     36 HO3'        2.8380   -1.4920   -2.7660 ho        1 EDA      0.479000
@<TRIPOS>BOND
     1    1    2 1   
     2    1    3 1   
     3    1    4 1   
     4    1    5 1   
     5    5   19 1   
     6    6    7 1   
     7    6   17 1   
     8    6   22 1   
     9    7    8 1   
    10    7   15 2   
    11    8    9 2   
    12    9   10 1   
    13    9   25 1   
    14   10   11 1   
    15   10   12 1   
    16   11   14 2   
    17   11   15 1   
    18   12   13 2   
    19   12   26 1   
    20   13   14 1   
    21   13   27 1   
    22   15   16 1   
    23   16   17 2   
    24   17   28 1   
    25   18   22 1   
    26   18   23 1   
    27   18   29 1   
    28   18   30 1   
    29   19   20 1   
    30   19   31 1   
    31   19   32 1   
    32   20   21 1   
    33   20   23 1   
    34   20   33 1   
    35   21   22 1   
    36   22   34 1   
    37   23   24 1   
    38   23   35 1   
    39   24   36 1   
@<TRIPOS>SUBSTRUCTURE
     1 EDA         1 TEMP              0 ****  ****    0 ROOT
