@<TRIPOS>MOLECULE
EDB
   51    54     1     0     0
SMALL
bcc


@<TRIPOS>ATOM
      1 C1          0.0220    0.2450    0.2730 ca        1 EDB     -0.092000
      2 C2          0.9790   -0.3680    1.0790 ca        1 EDB     -0.094000
      3 C3          0.7940   -0.4610    2.4550 ca        1 EDB     -0.067000
      4 C4         -0.3640    0.0620    3.0490 ca        1 EDB      0.029400
      5 C5         -1.3390    0.6860    2.2570 ca        1 EDB      0.022400
      6 C6         -1.1380    0.7760    0.8610 ca        1 EDB     -0.033400
      7 C13        -5.0890   -2.6310   -2.8700 cc        1 EDB      0.280800
      8 C14        -4.1500   -1.6430   -2.5690 cd        1 EDB     -0.380600
      9 C15        -4.4490   -1.1490   -1.2330 cd        1 EDB      0.765500
     10 N16        -5.5390   -1.9570   -0.7260 na        1 EDB     -0.342800
     11 N17        -6.0450   -2.7130   -1.7980 na        1 EDB     -0.444800
     12 C23        -6.4870   -1.3730    0.1870 ca        1 EDB      0.109600
     13 C24        -7.7990   -1.0330   -0.1930 ca        1 EDB     -0.098000
     14 C25        -8.6880   -0.5200    0.7590 ca        1 EDB     -0.141300
     15 C26        -8.2730   -0.3300    2.0810 ca        1 EDB     -0.102000
     16 C27        -6.9710   -0.6620    2.4530 ca        1 EDB     -0.113000
     17 C28        -6.0750   -1.1840    1.5230 ca        1 EDB     -0.058000
     18 N36        -3.8720   -0.1960   -0.4810 ne        1 EDB     -0.766100
     19 C38        -2.7640    0.4490   -0.9840 c         1 EDB      0.702500
     20 O40        -2.1740    0.4380   -2.0730 o         1 EDB     -0.527100
     21 N42        -2.1250    1.4420    0.0130 n4        1 EDB     -0.520200
     22 C45        -5.7620   -4.9670   -5.8460 cc        1 EDB     -0.110100
     23 S46        -6.4140   -4.5280   -4.3930 ss        1 EDB      0.110200
     24 C47        -5.1840   -3.4290   -4.0390 cc        1 EDB     -0.201900
     25 C48        -4.2430   -3.3940   -5.0790 cd        1 EDB     -0.052000
     26 C49        -4.5840   -4.2890   -6.1220 cd        1 EDB     -0.160000
     27 C56       -10.0580   -0.1090    0.3430 c3        1 EDB     -0.089100
     28 C58       -10.9500   -1.3120    0.1780 c         1 EDB      0.550100
     29 O60       -10.8920   -2.2050   -0.6470 o         1 EDB     -0.384100
     30 N62       -12.0980   -1.4430    1.1660 n4        1 EDB     -0.767400
     31 CL64       -2.7350    1.3440    2.9590 cl        1 EDB     -0.037400
     32 CL66       -0.5620   -0.0640    4.7190 cl        1 EDB     -0.000400
     33 H1          0.1790    0.3060   -0.8190 ha        1 EDB      0.176000
     34 H2          1.8940   -0.7800    0.6180 ha        1 EDB      0.181000
     35 H3          1.5620   -0.9460    3.0860 ha        1 EDB      0.187000
     36 HN17       -6.2460   -3.6540   -1.4810 hn        1 EDB      0.444800
     37 H24        -8.1410   -1.1640   -1.2330 ha        1 EDB      0.164000
     38 H26        -8.9580    0.0990    2.8290 ha        1 EDB      0.143000
     39 H27        -6.6440   -0.5110    3.4960 ha        1 EDB      0.169000
     40 H28        -5.0490   -1.4400    1.8380 ha        1 EDB      0.176000
     41 HN42       -2.8470    1.8830    0.5990 hn        1 EDB      0.469300
     42 H48        -3.3520   -2.7590   -5.0890 ha        1 EDB      0.173000
     43 H49        -3.9830   -4.4210   -7.0280 ha        1 EDB      0.188000
     44 H56       -10.0190    0.3950   -0.6690 hc        1 EDB      0.116200
     45 H56A      -10.4830    0.6310    1.0730 hc        1 EDB      0.116200
     46 HN62      -11.7330   -1.4930    2.1220 hn        1 EDB      0.472800
     47 HN6A      -12.7200   -0.6310    1.0920 hn        1 EDB      0.472800
     48 H14        -3.3390   -1.2750   -3.2000 ha        1 EDB      0.216000
     49 H422       -1.6440    2.1610   -0.5450 hn        1 EDB      0.469300
     50 H623      -12.6410   -2.2960    0.9710 hn        1 EDB      0.472800
     51 H45        -6.2200   -5.7080   -6.5080 h4        1 EDB      0.203000
@<TRIPOS>BOND
     1    1    2 ar  
     2    1    6 ar  
     3    1   33 1   
     4    2    3 ar  
     5    2   34 1   
     6    3    4 ar  
     7    3   35 1   
     8    4    5 ar  
     9    4   32 1   
    10    5    6 ar  
    11    5   31 1   
    12    6   21 1   
    13    7    8 2   
    14    7   11 1   
    15    7   24 1   
    16    8    9 1   
    17    8   48 1   
    18    9   10 1   
    19    9   18 2   
    20   10   11 1   
    21   10   12 1   
    22   11   36 1   
    23   12   13 ar  
    24   12   17 ar  
    25   13   14 ar  
    26   13   37 1   
    27   14   15 ar  
    28   14   27 1   
    29   15   16 ar  
    30   15   38 1   
    31   16   17 ar  
    32   16   39 1   
    33   17   40 1   
    34   18   19 1   
    35   19   20 2   
    36   19   21 1   
    37   21   41 1   
    38   21   49 1   
    39   22   23 1   
    40   22   26 2   
    41   22   51 1   
    42   23   24 1   
    43   24   25 2   
    44   25   26 1   
    45   25   42 1   
    46   26   43 1   
    47   27   28 1   
    48   27   44 1   
    49   27   45 1   
    50   28   29 2   
    51   28   30 1   
    52   30   46 1   
    53   30   47 1   
    54   30   50 1   
@<TRIPOS>SUBSTRUCTURE
     1 EDB         1 TEMP              0 ****  ****    0 ROOT
