@<TRIPOS>MOLECULE
EDB
   49    41     1     0     0
SMALL
bcc


@<TRIPOS>ATOM
      1 C1          5.3300    1.4030   -0.2650 c1        1 EDB     -0.144000
      2 C2          6.7140    1.2710   -0.2550 c1        1 EDB     -0.120250
      3 C3          7.3370    0.5810    0.7730 c1        1 EDB     -0.120250
      4 C4          6.5820    0.0220    1.7910 c1        1 EDB     -0.077000
      5 C5          5.1970    0.1540    1.7810 c1        1 EDB     -0.077000
      6 C6          4.5730    0.8440    0.7520 c1        1 EDB      0.100000
      7 C13        -0.6230   -1.1110   -2.6980 c1        1 EDB      0.071000
      8 C14         0.4140   -0.6910   -1.9880 c1        1 EDB     -0.228000
      9 C15         0.0600   -0.0560   -0.7970 c1        1 EDB      0.190000
     10 N16        -1.4840   -0.0970   -0.7810 n3        1 EDB     -0.122000
     11 N17        -1.8580   -0.8300   -2.1130 n2        1 EDB     -0.156000
     12 C23        -2.3550    0.7770   -0.0120 c2        1 EDB      0.020000
     13 C24        -3.1660    0.2470    0.9850 c2        1 EDB     -0.105000
     14 C25        -3.9730    1.0900    1.7470 c1        1 EDB     -0.082000
     15 C26        -3.9660    2.4530    1.5110 c1        1 EDB     -0.120250
     16 C27        -3.1550    2.9820    0.5140 c1        1 EDB     -0.120250
     17 C28        -2.3490    2.1400   -0.2470 c1        1 EDB     -0.125000
     18 N36         0.8570    0.4600    0.1030 n1        1 EDB     -0.309000
     19 C38         2.2800    0.4060   -0.0830 c1        1 EDB      0.377000
     20 O40         2.7440   -0.1200   -1.0800 o         1 EDB     -0.393000
     21 N42         3.1520    0.9340    0.9200 n3        1 EDB     -0.301000
     22 C45        -0.3130   -4.6820   -4.4890 c1        1 EDB     -0.432000
     23 S46        -0.3710   -3.8160   -3.1990 ss        1 EDB      0.619000
     24 C47        -0.4730   -2.3250   -3.6380 c2        1 EDB     -0.379000
     25 C48        -0.4770   -2.2860   -5.0910 c1        1 EDB     -0.107000
     26 C49        -0.3750   -3.7850   -5.6330 c1        1 EDB     -0.160000
     27 C56        -4.9370    0.4970    2.7810 c3        1 EDB     -0.148000
     28 C58        -4.4530    0.8430    4.1820 c2        1 EDB      0.300000
     29 O60        -3.3590    1.3290    4.3390 o         1 EDB     -0.377000
     30 N62        -5.3140    0.6340    5.3120 n         1 EDB     -0.428000
     31 CL64        4.2460   -0.5590    3.0520 cl        1 EDB      0.006500
     32 CL66        7.3760   -0.7500    3.1460 cl        1 EDB      0.006500
     33 H1          4.8920    1.8880   -0.9880 ha        1 EDB      0.178000
     34 H2          7.2480    1.6650   -0.9730 ha        1 EDB      0.144750
     35 H3          8.3080    0.4880    0.7800 ha        1 EDB      0.144750
     36 H14         1.2720   -1.1470   -2.0590 ha        1 EDB      0.208000
     37 HN17       -2.6390   -1.2610   -2.2830 hn        1 EDB      0.205000
     38 H24        -3.1700   -0.7100    1.1500 ha        1 EDB      0.156000
     39 H26        -4.5290    3.0410    2.0420 ha        1 EDB      0.144750
     40 H27        -3.1500    3.9410    0.3480 ha        1 EDB      0.144750
     41 H28        -1.7800    2.5110   -0.9460 ha        1 EDB      0.151000
     42 HN42        2.8040    1.2810    1.6900 hn        1 EDB      0.251000
     43 H45        -0.2470   -5.6560   -4.5260 DU        1 EDB      0.169333
     44 H48        -0.5320   -1.4860   -5.6390 DU        1 EDB      0.169333
     45 H49        -0.3570   -4.0550   -6.5760 DU        1 EDB      0.169333
     46 H56        -5.8360    0.8700    2.6430 hc        1 EDB      0.123500
     47 H56A       -4.9680   -0.4780    2.6770 hc        1 EDB      0.123500
     48 HN62       -4.9660    0.6250    6.1550 hn        1 EDB      0.229000
     49 HN6A       -6.2090    0.5250    5.1880 hn        1 EDB      0.229000
@<TRIPOS>BOND
     1    1    6 1   
     2    1   33 1   
     3    2    3 1   
     4    2   34 1   
     5    3   35 1   
     6    4    5 1   
     7    4   32 1   
     8    5   31 1   
     9    6   21 1   
    10    7    8 1   
    11    7   24 1   
    12    8   36 1   
    13    9   10 1   
    14    9   18 1   
    15   10   11 1   
    16   10   12 1   
    17   11   37 1   
    18   12   13 1   
    19   12   17 1   
    20   13   14 1   
    21   13   38 1   
    22   14   27 1   
    23   15   16 1   
    24   15   39 1   
    25   16   40 1   
    26   17   41 1   
    27   19   20 1   
    28   19   21 1   
    29   21   42 1   
    30   22   23 1   
    31   22   26 1   
    32   23   24 1   
    33   24   25 1   
    34   25   26 1   
    35   27   28 1   
    36   27   46 1   
    37   27   47 1   
    38   28   29 1   
    39   28   30 1   
    40   30   48 1   
    41   30   49 1   
@<TRIPOS>SUBSTRUCTURE
     1 EDB         1 TEMP              0 ****  ****    0 ROOT
