@<TRIPOS>MOLECULE
EDB
   50    53     1     0     0
SMALL
bcc


@<TRIPOS>ATOM
      1 C1         -0.2610    0.9890    0.1650 ca        1 EDB     -0.139000
      2 C2          1.0350    1.4920    0.2340 ca        1 EDB     -0.096000
      3 C3          1.8170    1.3050    1.3690 ca        1 EDB     -0.133000
      4 C4          1.2950    0.5970    2.4560 ca        1 EDB      0.042400
      5 C5         -0.0030    0.0730    2.4050 ca        1 EDB     -0.032600
      6 C6         -0.8050    0.2680    1.2470 ca        1 EDB      0.077600
      7 C13        -5.3570   -3.0590   -2.4110 cc        1 EDB      0.165800
      8 C14        -4.3430   -2.2850   -1.9130 cd        1 EDB     -0.305600
      9 C15        -4.7380   -1.8350   -0.5530 cd        1 EDB      0.692500
     10 N16        -6.0630   -2.4620   -0.2880 na        1 EDB     -0.360800
     11 N17        -6.4740   -3.1110   -1.4720 na        1 EDB     -0.462800
     12 C23        -7.0220   -1.5580    0.2950 ca        1 EDB      0.126600
     13 C24        -8.0850   -0.9780   -0.4250 ca        1 EDB     -0.124000
     14 C25        -9.0050   -0.1510    0.2260 ca        1 EDB     -0.183300
     15 C26        -8.8680    0.1200    1.5930 ca        1 EDB     -0.153000
     16 C27        -7.8140   -0.4470    2.3060 ca        1 EDB     -0.113000
     17 C28        -6.8960   -1.2830    1.6750 ca        1 EDB     -0.063000
     18 N36        -4.1460   -1.1090    0.3440 ne        1 EDB     -0.701100
     19 C38        -2.8370   -0.5580    0.0890 c         1 EDB      0.820500
     20 O40        -2.4160   -0.3370   -1.0690 o         1 EDB     -0.616100
     21 N42        -2.1190   -0.2330    1.2360 ns        1 EDB     -0.439100
     22 C45        -6.0530   -4.9510   -5.6970 cc        1 EDB     -0.135100
     23 S46        -6.8190   -4.4370   -4.3130 ss        1 EDB      0.035200
     24 C47        -5.4250   -3.7350   -3.6690 cc        1 EDB     -0.125900
     25 C48        -4.3480   -3.8910   -4.5340 cd        1 EDB     -0.090000
     26 C49        -4.7180   -4.6010   -5.7140 cd        1 EDB     -0.155000
     27 C56       -10.0880    0.5010   -0.5530 c3        1 EDB     -0.094100
     28 C58       -11.4140   -0.1950   -0.4570 c         1 EDB      0.549100
     29 O60       -12.4690    0.0760   -1.0010 o         1 EDB     -0.398100
     30 N62       -11.4590   -1.4140    0.4500 nz        1 EDB     -0.762400
     31 Cl64       -0.6160   -0.7920    3.7370 cl        1 EDB     -0.076400
     32 Cl66        2.2640    0.3830    3.8310 cl        1 EDB     -0.056400
     33 H1         -0.8550    1.1540   -0.7500 ha        1 EDB      0.176000
     34 H2          1.4430    2.0490   -0.6240 ha        1 EDB      0.150000
     35 H3          2.8400    1.7090    1.4140 ha        1 EDB      0.160000
     36 HN17       -6.6670   -4.0740   -1.2180 hn        1 EDB      0.404800
     37 H24        -8.1810   -1.1440   -1.5110 ha        1 EDB      0.161000
     38 H26        -9.5590    0.8140    2.0960 ha        1 EDB      0.139000
     39 H27        -7.6920   -0.2200    3.3780 ha        1 EDB      0.163000
     40 H28        -6.0590   -1.7100    2.2550 ha        1 EDB      0.183000
     41 HN42       -2.4990   -0.4890    2.1230 hn        1 EDB      0.341500
     42 H48        -3.3360   -3.5230   -4.3430 ha        1 EDB      0.171000
     43 H49        -4.0160   -4.8300   -6.5200 ha        1 EDB      0.173000
     44 H56        -9.8240    0.5560   -1.6500 hc        1 EDB      0.135700
     45 H56A      -10.2500    1.5630   -0.2000 hc        1 EDB      0.135700
     46 HN62      -10.8500   -2.1420    0.0630 hn        1 EDB      0.470467
     47 HN6A      -12.4160   -1.7730    0.5330 hn        1 EDB      0.470467
     48 H14        -3.4060   -1.9780   -2.3830 ha        1 EDB      0.215000
     49 H623      -11.0990   -1.1560    1.3760 hn        1 EDB      0.470467
     50 H45        -6.5680   -5.5000   -6.4870 h4        1 EDB      0.186000
@<TRIPOS>BOND
     1    1    2 ar  
     2    1    6 ar  
     3    1   33 1   
     4    2    3 ar  
     5    2   34 1   
     6    3    4 ar  
     7    3   35 1   
     8    4    5 ar  
     9    4   32 1   
    10    5    6 ar  
    11    5   31 1   
    12    6   21 1   
    13    7    8 2   
    14    7   11 1   
    15    7   24 1   
    16    8    9 1   
    17    8   48 1   
    18    9   10 1   
    19    9   18 2   
    20   10   11 1   
    21   10   12 1   
    22   11   36 1   
    23   12   13 ar  
    24   12   17 ar  
    25   13   14 ar  
    26   13   37 1   
    27   14   15 ar  
    28   14   27 1   
    29   15   16 ar  
    30   15   38 1   
    31   16   17 ar  
    32   16   39 1   
    33   17   40 1   
    34   18   19 1   
    35   19   20 2   
    36   19   21 1   
    37   21   41 1   
    38   22   23 1   
    39   22   26 2   
    40   22   50 1   
    41   23   24 1   
    42   24   25 2   
    43   25   26 1   
    44   25   42 1   
    45   26   43 1   
    46   27   28 1   
    47   27   44 1   
    48   27   45 1   
    49   28   29 2   
    50   28   30 1   
    51   30   46 1   
    52   30   47 1   
    53   30   49 1   
@<TRIPOS>SUBSTRUCTURE
     1 EDB         1 TEMP              0 ****  ****    0 ROOT
