@<TRIPOS>MOLECULE
EDB
   49    52     1     0     0
SMALL
bcc


@<TRIPOS>ATOM
      1 C1         -4.4280   -1.0140    1.0900 ca        1 EDB     -0.146000
      2 C2         -5.7780   -1.1930    1.3690 ca        1 EDB     -0.097000
      3 C3         -6.6660   -0.1220    1.3410 ca        1 EDB     -0.147000
      4 C4         -6.1900    1.1530    1.0230 ca        1 EDB      0.044400
      5 C5         -4.8370    1.3570    0.7280 ca        1 EDB     -0.040600
      6 C6         -3.9250    0.2640    0.7600 ca        1 EDB      0.095600
      7 C13         2.1370   -2.4400   -0.6650 cc        1 EDB      0.164800
      8 C14         0.8290   -2.1580   -0.3650 cd        1 EDB     -0.313600
      9 C15         0.6400   -0.6920   -0.5270 cd        1 EDB      0.712500
     10 N16         1.9200   -0.1770   -1.0410 na        1 EDB     -0.356800
     11 N17         2.8680   -1.2190   -0.9480 na        1 EDB     -0.443800
     12 C23         2.3370    1.1080   -0.5350 ca        1 EDB      0.104600
     13 C24         3.3630    1.2680    0.4150 ca        1 EDB     -0.118000
     14 C25         3.7600    2.5480    0.8120 ca        1 EDB     -0.090300
     15 C26         3.1240    3.6730    0.2770 ca        1 EDB     -0.135000
     16 C27         2.1000    3.5170   -0.6540 ca        1 EDB     -0.128000
     17 C28         1.7030    2.2490   -1.0700 ca        1 EDB     -0.091000
     18 N36        -0.3870    0.0890   -0.3350 ne        1 EDB     -0.721100
     19 C38        -1.6560   -0.4590    0.0440 c         1 EDB      0.822500
     20 O40        -1.9470   -1.6750   -0.0310 o         1 EDB     -0.633100
     21 N42        -2.5660    0.4980    0.5120 n         1 EDB     -0.443100
     22 C45         4.3610   -5.5840   -0.6140 cc        1 EDB     -0.164100
     23 S46         4.4600   -3.9290   -0.5630 ss        1 EDB      0.088200
     24 C47         2.7940   -3.7120   -0.6710 cc        1 EDB     -0.123900
     25 C48         2.1370   -4.9360   -0.7380 cd        1 EDB     -0.108000
     26 C49         3.0550   -6.0250   -0.7070 cd        1 EDB     -0.162000
     27 C56         4.8410    2.7050    1.8210 c3        1 EDB     -0.112100
     28 C58         6.2290    2.8140    1.2120 c         1 EDB      0.657100
     29 O60         7.2080    2.2480    1.7400 o         1 EDB     -0.615100
     30 N62         6.3990    3.5970    0.0970 n         1 EDB     -0.669000
     31 CL64       -4.2870    2.9200    0.3370 cl        1 EDB     -0.078400
     32 CL66       -7.2890    2.4480    0.9960 cl        1 EDB     -0.073400
     33 H1         -3.7520   -1.8850    1.1220 ha        1 EDB      0.179000
     34 H2         -6.1470   -2.2000    1.6190 ha        1 EDB      0.143000
     35 H3         -7.7320   -0.2740    1.5660 ha        1 EDB      0.152000
     36 HN17        3.3460   -1.2690   -1.8400 hn        1 EDB      0.409800
     37 H24         3.8660    0.3940    0.8590 ha        1 EDB      0.156000
     38 H26         3.4240    4.6810    0.6020 ha        1 EDB      0.136000
     39 H27         1.5960    4.4030   -1.0680 ha        1 EDB      0.140000
     40 H28         0.8860    2.1440   -1.8020 ha        1 EDB      0.158000
     41 HN42       -2.2880    1.4580    0.4710 hn        1 EDB      0.341500
     42 H45         5.2380   -6.2310   -0.5730 h4        1 EDB      0.179000
     43 H48         1.0530   -5.0560   -0.8110 ha        1 EDB      0.166000
     44 H49         2.7440   -7.0710   -0.7520 ha        1 EDB      0.162000
     45 H56         4.6670    3.6270    2.4390 hc        1 EDB      0.084700
     46 H56A        4.8530    1.8250    2.5220 hc        1 EDB      0.084700
     47 HN62        5.6150    3.9480   -0.3920 hn        1 EDB      0.311500
     48 HN6A        7.2890    3.6430   -0.3330 hn        1 EDB      0.311500
     49 H14         0.0290   -2.8270   -0.0450 ha        1 EDB      0.206000
@<TRIPOS>BOND
     1    1    2 ar  
     2    1    6 ar  
     3    1   33 1   
     4    2    3 ar  
     5    2   34 1   
     6    3    4 ar  
     7    3   35 1   
     8    4    5 ar  
     9    4   32 1   
    10    5    6 ar  
    11    5   31 1   
    12    6   21 1   
    13    7    8 2   
    14    7   11 1   
    15    7   24 1   
    16    8    9 1   
    17    8   49 1   
    18    9   10 1   
    19    9   18 2   
    20   10   11 1   
    21   10   12 1   
    22   11   36 1   
    23   12   13 ar  
    24   12   17 ar  
    25   13   14 ar  
    26   13   37 1   
    27   14   15 ar  
    28   14   27 1   
    29   15   16 ar  
    30   15   38 1   
    31   16   17 ar  
    32   16   39 1   
    33   17   40 1   
    34   18   19 1   
    35   19   20 2   
    36   19   21 1   
    37   21   41 1   
    38   22   23 1   
    39   22   26 2   
    40   22   42 1   
    41   23   24 1   
    42   24   25 2   
    43   25   26 1   
    44   25   43 1   
    45   26   44 1   
    46   27   28 1   
    47   27   45 1   
    48   27   46 1   
    49   28   29 2   
    50   28   30 1   
    51   30   47 1   
    52   30   48 1   
@<TRIPOS>SUBSTRUCTURE
     1 EDB         1 TEMP              0 ****  ****    0 ROOT
