@<TRIPOS>MOLECULE
EDB
   50    53     1     0     0
SMALL
bcc


@<TRIPOS>ATOM
      1 C1         -0.2630    0.9960    0.1560 ca        1 EDB     -0.139000
      2 C2          1.0320    1.5000    0.2240 ca        1 EDB     -0.096000
      3 C3          1.8120    1.3240    1.3610 ca        1 EDB     -0.133000
      4 C4          1.2890    0.6250    2.4530 ca        1 EDB      0.042400
      5 C5         -0.0090    0.1000    2.4050 ca        1 EDB     -0.032600
      6 C6         -0.8090    0.2840    1.2430 ca        1 EDB      0.077600
      7 C13        -5.3520   -3.0760   -2.3940 cc        1 EDB      0.165800
      8 C14        -4.3390   -2.2980   -1.9010 cd        1 EDB     -0.305600
      9 C15        -4.7380   -1.8350   -0.5450 cd        1 EDB      0.692500
     10 N16        -6.0630   -2.4610   -0.2780 na        1 EDB     -0.360800
     11 N17        -6.4710   -3.1200   -1.4570 na        1 EDB     -0.462800
     12 C23        -7.0240   -1.5520    0.2950 ca        1 EDB      0.126600
     13 C24        -8.0850   -0.9780   -0.4320 ca        1 EDB     -0.124000
     14 C25        -9.0070   -0.1460    0.2100 ca        1 EDB     -0.183300
     15 C26        -8.8720    0.1380    1.5740 ca        1 EDB     -0.153000
     16 C27        -7.8210   -0.4230    2.2940 ca        1 EDB     -0.113000
     17 C28        -6.9010   -1.2650    1.6730 ca        1 EDB     -0.063000
     18 N36        -4.1480   -1.1020    0.3460 ne        1 EDB     -0.701100
     19 C38        -2.8390   -0.5520    0.0890 c         1 EDB      0.820500
     20 O40        -2.4150   -0.3410   -1.0700 o         1 EDB     -0.616100
     21 N42        -2.1220   -0.2170    1.2340 n         1 EDB     -0.439100
     22 C45        -6.0410   -4.9980   -5.6650 cc        1 EDB     -0.135100
     23 S46        -6.8100   -4.4720   -4.2860 ss        1 EDB      0.035200
     24 C47        -5.4180   -3.7640   -3.6450 cc        1 EDB     -0.125900
     25 C48        -4.3390   -3.9280   -4.5070 cd        1 EDB     -0.090000
     26 C49        -4.7060   -4.6480   -5.6810 cd        1 EDB     -0.155000
     27 C56       -10.0880    0.4990   -0.5780 c3        1 EDB     -0.094100
     28 C58       -11.4130   -0.1970   -0.4790 c         1 EDB      0.549100
     29 O60       -12.4680    0.0690   -1.0290 o         1 EDB     -0.398100
     30 N62       -11.4610   -1.4080    0.4380 n4        1 EDB     -0.762400
     31 CL64       -0.6240   -0.7540    3.7430 cl        1 EDB     -0.076400
     32 CL66        2.2550    0.4230    3.8320 cl        1 EDB     -0.056400
     33 H1         -0.8550    1.1530   -0.7610 ha        1 EDB      0.176000
     34 H2          1.4420    2.0500   -0.6390 ha        1 EDB      0.150000
     35 H3          2.8350    1.7290    1.4050 ha        1 EDB      0.160000
     36 HN17       -6.6650   -4.0810   -1.1940 hn        1 EDB      0.404800
     37 H24        -8.1790   -1.1540   -1.5160 ha        1 EDB      0.161000
     38 H26        -9.5650    0.8360    2.0700 ha        1 EDB      0.140000
     39 H27        -7.7010   -0.1870    3.3650 ha        1 EDB      0.163000
     40 H28        -6.0640   -1.6860    2.2590 ha        1 EDB      0.183000
     41 HN42       -2.5040   -0.4670    2.1230 hn        1 EDB      0.341500
     42 H48        -3.3270   -3.5570   -4.3170 ha        1 EDB      0.171000
     43 H49        -4.0020   -4.8830   -6.4830 ha        1 EDB      0.173000
     44 H56       -10.2510    1.5630   -0.2340 hc        1 EDB      0.135700
     45 H56A       -9.8220    0.5450   -1.6750 hc        1 EDB      0.135700
     46 HN62      -10.8500   -2.1390    0.0590 hn        1 EDB      0.470467
     47 HN6A      -12.4180   -1.7670    0.5210 hn        1 EDB      0.470467
     48 H14        -3.4020   -1.9940   -2.3720 ha        1 EDB      0.215000
     49 H623      -11.1030   -1.1410    1.3630 hn        1 EDB      0.470467
     50 H45        -6.5540   -5.5540   -6.4510 h4        1 EDB      0.186000
@<TRIPOS>BOND
     1    1    2 ar  
     2    1    6 ar  
     3    1   33 1   
     4    2    3 ar  
     5    2   34 1   
     6    3    4 ar  
     7    3   35 1   
     8    4    5 ar  
     9    4   32 1   
    10    5    6 ar  
    11    5   31 1   
    12    6   21 1   
    13    7    8 2   
    14    7   11 1   
    15    7   24 1   
    16    8    9 1   
    17    8   48 1   
    18    9   10 1   
    19    9   18 2   
    20   10   11 1   
    21   10   12 1   
    22   11   36 1   
    23   12   13 ar  
    24   12   17 ar  
    25   13   14 ar  
    26   13   37 1   
    27   14   15 ar  
    28   14   27 1   
    29   15   16 ar  
    30   15   38 1   
    31   16   17 ar  
    32   16   39 1   
    33   17   40 1   
    34   18   19 1   
    35   19   20 2   
    36   19   21 1   
    37   21   41 1   
    38   22   23 1   
    39   22   26 2   
    40   22   50 1   
    41   23   24 1   
    42   24   25 2   
    43   25   26 1   
    44   25   42 1   
    45   26   43 1   
    46   27   28 1   
    47   27   44 1   
    48   27   45 1   
    49   28   29 2   
    50   28   30 1   
    51   30   46 1   
    52   30   47 1   
    53   30   49 1   
@<TRIPOS>SUBSTRUCTURE
     1 EDB         1 TEMP              0 ****  ****    0 ROOT
