@<TRIPOS>MOLECULE
EDC
   34    36     1     0     0
SMALL
bcc


@<TRIPOS>ATOM
      1 OP3        -5.4740    0.2070    1.0210 o         1 EDC     -0.928833
      2 P          -4.0080    0.0510    1.2710 p5        1 EDC      1.330900
      3 N1          1.9560   -0.5760   -0.3130 n         1 EDC     -0.360000
      4 C2          3.3110   -0.6800   -0.6690 c         1 EDC      0.700300
      5 O2          3.7570   -1.5200   -1.4830 o         1 EDC     -0.665500
      6 N3          4.2040    0.2170   -0.0290 n         1 EDC     -0.209000
      7 C4          3.7740    1.2080    0.9100 cc        1 EDC      0.519300
      8 N4          4.8320    1.9320    1.3530 nd        1 EDC     -0.698000
      9 C5          2.3630    1.2690    1.2080 cc        1 EDC     -0.344800
     10 C6          1.5220    0.3940    0.5820 cd        1 EDC      0.042600
     11 C7          5.9490    1.4080    0.6940 cd        1 EDC      0.290200
     12 C8          5.5900    0.3550   -0.1610 cc        1 EDC     -0.245600
     13 C1'         0.9720   -1.4510   -1.0030 c3        1 EDC      0.303500
     14 C2'         0.3630   -2.5220   -0.0760 c3        1 EDC     -0.132400
     15 C3'        -1.0680   -2.0400    0.2030 c3        1 EDC      0.154100
     16 O3'        -1.9470   -3.1290    0.0450 oh        1 EDC     -0.669800
     17 C4'        -1.3380   -0.9450   -0.8490 c3        1 EDC      0.049100
     18 O4'        -0.0820   -0.6640   -1.5260 os        1 EDC     -0.434600
     19 C5'        -1.9190    0.3650   -0.2650 c3        1 EDC      0.227400
     20 O5'        -3.2840    0.3430   -0.2940 os        1 EDC     -0.552200
     21 OP1        -3.3090    1.0810    2.1110 o         1 EDC     -0.928833
     22 OP2        -3.4850   -1.3580    1.4740 o         1 EDC     -0.928833
     23 H5          1.9970    2.0160    1.9220 ha        1 EDC      0.180000
     24 H6          0.4180    0.4050    0.7500 h4        1 EDC      0.229000
     25 H7          6.9420    1.8160    0.8720 h4        1 EDC      0.022100
     26 H8          6.1640   -0.2850   -0.8260 h4        1 EDC      0.180000
     27 H1'         1.5130   -1.9010   -1.8870 h2        1 EDC      0.083700
     28 H2'         0.3450   -3.5000   -0.6180 hc        1 EDC      0.054700
     29 H2''        0.9340   -2.6570    0.8710 hc        1 EDC      0.054700
     30 H3'        -1.1670   -1.6240    1.2450 h1        1 EDC      0.103700
     31 HO3'       -2.7910   -2.8420    0.4680 ho        1 EDC      0.502000
     32 H4'        -2.0240   -1.3320   -1.6490 h1        1 EDC      0.078700
     33 H5'        -1.5440    0.5160    0.7900 h1        1 EDC     -0.002300
     34 H5''       -1.5330    1.2070   -0.9130 h1        1 EDC     -0.002300
@<TRIPOS>BOND
     1    1    2 1   
     2    2   20 1   
     3    2   21 1   
     4    2   22 1   
     5    3    4 1   
     6    3   10 1   
     7    3   13 1   
     8    4    5 2   
     9    4    6 1   
    10    6    7 1   
    11    6   12 1   
    12    7    8 2   
    13    7    9 1   
    14    8   11 1   
    15    9   10 2   
    16    9   23 1   
    17   10   24 1   
    18   11   12 2   
    19   11   25 1   
    20   12   26 1   
    21   13   14 1   
    22   13   18 1   
    23   13   27 1   
    24   14   15 1   
    25   14   28 1   
    26   14   29 1   
    27   15   16 1   
    28   15   17 1   
    29   15   30 1   
    30   16   31 1   
    31   17   18 1   
    32   17   19 1   
    33   17   32 1   
    34   19   20 1   
    35   19   33 1   
    36   19   34 1   
@<TRIPOS>SUBSTRUCTURE
     1 EDC         1 TEMP              0 ****  ****    0 ROOT
