@<TRIPOS>MOLECULE
EDC
   34    33     1     0     0
SMALL
bcc


@<TRIPOS>ATOM
      1 OP3        -1.3810   -2.7580   -5.3710 o         1 EDC     -0.928833
      2 P          -0.0310   -2.2610   -5.1000 p5        1 EDC      1.564500
      3 N1          0.4990    0.6150    1.0900 n         1 EDC     -0.253000
      4 C2          0.5070    1.0160    2.4980 c2        1 EDC      0.401000
      5 O2          0.2950    0.2290    3.3260 o         1 EDC     -0.390000
      6 N3          0.8550    2.4240    2.8790 n         1 EDC     -0.188000
      7 C4          1.1640    3.3340    1.9170 c1        1 EDC      0.058000
      8 N4          1.4430    4.5370    2.5410 n2        1 EDC     -0.172000
      9 C5          1.1540    2.9270    0.4720 c1        1 EDC     -0.235000
     10 C6          0.8150    1.5370    0.1020 c2        1 EDC      0.040000
     11 C7          1.3070    4.3610    3.8650 c1        1 EDC     -0.175000
     12 C8          0.9400    3.0460    4.0860 c1        1 EDC     -0.156000
     13 C1'         0.2130   -0.7150    0.7400 c3        1 EDC      0.155000
     14 C2'        -1.0690   -0.9670    0.9250 c3        1 EDC     -0.211000
     15 C3'        -1.4460   -1.9630   -0.1880 c3        1 EDC      0.043000
     16 O3'        -1.6140   -3.1630    0.3180 oh        1 EDC     -0.397000
     17 C4'        -0.2190   -1.9620   -1.1970 c3        1 EDC     -0.062000
     18 O4'         0.5010   -0.9520   -0.8520 os        1 EDC     -0.291000
     19 C5'        -0.7170   -1.7940   -2.6500 c3        1 EDC      0.077000
     20 O5'         0.2560   -2.3410   -3.5540 os        1 EDC     -0.714000
     21 OP1         0.0790   -0.8520   -5.5500 o         1 EDC     -0.928833
     22 OP2         0.9660   -3.1030   -5.8420 o         1 EDC     -0.928833
     23 H5          1.4140    3.5920   -0.2420 ha        1 EDC      0.180000
     24 H6          0.8100    1.2630   -0.8530 h4        1 EDC      0.229000
     25 H7          1.4170    5.0730    4.5730 DU        1 EDC      0.169500
     26 H8          0.7660    2.6260    4.9790 DU        1 EDC      0.169500
     27 H1'         0.7510   -1.3220    1.2700 h2        1 EDC      0.123000
     28 H2'        -1.5760   -0.1720    0.8410 hc        1 EDC      0.094000
     29 H2''       -1.2220   -1.3930    1.8490 hc        1 EDC      0.094000
     30 H3'        -2.2910   -1.6590   -0.6600 h1        1 EDC      0.143000
     31 HO3'       -2.4860   -3.2910    0.5010 ho        1 EDC      0.301000
     32 H4'         0.3100   -2.8210   -1.1040 h1        1 EDC      0.118000
     33 H5'        -1.5610   -2.2640   -2.7600 h1        1 EDC      0.037000
     34 H5''       -0.8470   -0.8290   -2.8480 h1        1 EDC      0.037000
@<TRIPOS>BOND
     1    1    2 1   
     2    2   20 1   
     3    2   21 1   
     4    2   22 1   
     5    3    4 1   
     6    3   10 1   
     7    3   13 1   
     8    4    5 1   
     9    4    6 1   
    10    6    7 1   
    11    6   12 1   
    12    7    8 1   
    13    8   11 1   
    14    9   10 1   
    15    9   23 1   
    16   10   24 1   
    17   11   12 1   
    18   13   14 1   
    19   13   18 1   
    20   13   27 1   
    21   14   15 1   
    22   14   28 1   
    23   14   29 1   
    24   15   16 1   
    25   15   17 1   
    26   15   30 1   
    27   16   31 1   
    28   17   18 1   
    29   17   19 1   
    30   17   32 1   
    31   19   20 1   
    32   19   33 1   
    33   19   34 1   
@<TRIPOS>SUBSTRUCTURE
     1 EDC         1 TEMP              0 ****  ****    0 ROOT
