@<TRIPOS>MOLECULE
EDD
   54    49     1     0     0
SMALL
bcc


@<TRIPOS>ATOM
      1 C1          0.9460    0.5600    0.1240 c1        1 EDD     -0.049000
      2 C2          2.2800    0.1630    0.0660 c1        1 EDD     -0.115000
      3 C3          3.0470    0.1230    1.2290 c1        1 EDD     -0.115000
      4 C4          2.4800    0.4810    2.4490 c1        1 EDD     -0.105000
      5 C5          1.1470    0.8780    2.5080 c1        1 EDD     -0.062000
      6 C6          0.3790    0.9170    1.3460 c1        1 EDD     -0.134000
      7 C13         0.5210    1.2670    3.8550 c3        1 EDD     -0.146000
      8 C14         1.1770    2.5500    4.3700 c2        1 EDD      0.305000
      9 N15         0.9570    2.9720    5.7200 n         1 EDD     -0.433000
     10 O19         1.8310    3.2450    3.6130 o         1 EDD     -0.378000
     11 N21         0.2090    0.7700   -1.0950 n3        1 EDD     -0.123000
     12 N23         0.0610    2.1330   -1.8620 n3        1 EDD     -0.137000
     13 C24        -1.0880    1.9590   -2.6360 c2        1 EDD     -0.007000
     14 C25        -1.6610    0.7660   -2.4900 c1        1 EDD     -0.218000
     15 C26        -0.9940   -0.0720   -1.5890 c1        1 EDD      0.139000
     16 C32        -1.2560    2.7440   -3.9620 c3        1 EDD     -0.005000
     17 C34        -0.4420    2.0590   -5.0700 c3        1 EDD     -0.209333
     18 C36        -2.7420    2.7680   -4.3580 c3        1 EDD     -0.209333
     19 C38        -0.7540    4.1840   -3.7730 c3        1 EDD     -0.209333
     20 N40        -1.3220   -1.3170   -1.2370 n1        1 EDD     -0.222000
     21 C42        -0.5130   -2.0330   -0.2880 c1        1 EDD      0.374000
     22 N43        -0.9010   -3.3580    0.1350 n3        1 EDD     -0.325000
     23 C44        -0.1230   -4.0550    1.1290 c2        1 EDD      0.110000
     24 O48         0.4690   -1.5060    0.1920 o         1 EDD     -0.348000
     25 C50        -1.2440   -4.8770    1.2140 c2        1 EDD     -0.153000
     26 C51        -1.2050   -6.0280    1.9930 c1        1 EDD     -0.095000
     27 C52        -0.0450   -6.3580    2.6880 c1        1 EDD     -0.151000
     28 C53         1.0750   -5.5380    2.6030 c1        1 EDD     -0.032000
     29 C54         1.0360   -4.3850    1.8230 c1        1 EDD     -0.122000
     30 CL61        2.4370   -3.3540    1.7210 cl        1 EDD      0.001000
     31 CL63        2.5010   -5.9100    3.5370 cl        1 EDD      0.003000
     32 H2          2.6800   -0.0900   -0.7950 ha        1 EDD      0.148000
     33 H3          3.9870   -0.1560    1.1870 ha        1 EDD      0.148000
     34 H4          3.0210    0.4530    3.2680 ha        1 EDD      0.165000
     35 H6         -0.5610    1.1970    1.3880 ha        1 EDD      0.150000
     36 H13         0.6640    0.5420    4.5050 hc        1 EDD      0.123500
     37 H13A       -0.4420    1.4170    3.7380 hc        1 EDD      0.123500
     38 HN15        0.2610    2.6210    6.2030 hn        1 EDD      0.225500
     39 HN1A        1.4930    3.6200    6.0910 hn        1 EDD      0.225500
     40 HN23        0.4240    2.9350   -1.6080 hn        1 EDD      0.188000
     41 H25        -2.1830    0.3800   -3.2240 ha        1 EDD      0.188000
     42 H34        -0.2500    2.7070   -5.7850 hc        1 EDD      0.084333
     43 H34A       -0.9580    1.3070   -5.4390 hc        1 EDD      0.084333
     44 H34B        0.4020    1.7240   -4.6970 hc        1 EDD      0.084333
     45 H36        -3.2920    2.9170   -3.5570 hc        1 EDD      0.084333
     46 H36A       -2.8980    3.4960   -5.0030 hc        1 EDD      0.084333
     47 H36B       -2.9860    1.9090   -4.7680 hc        1 EDD      0.084333
     48 H38        -1.0900    4.5390   -2.9220 hc        1 EDD      0.084333
     49 H38A        0.2310    4.1900   -3.7650 hc        1 EDD      0.084333
     50 H38B       -1.0790    4.7460   -4.5140 hc        1 EDD      0.084333
     51 HN43       -1.6100   -3.7790   -0.2690 hn        1 EDD      0.254000
     52 H50        -2.0610   -4.6440    0.7250 ha        1 EDD      0.179000
     53 H51        -1.9970   -6.6080    2.0530 ha        1 EDD      0.143000
     54 H52        -0.0170   -7.1720    3.2380 ha        1 EDD      0.151000
@<TRIPOS>BOND
     1    1    6 1   
     2    1   11 1   
     3    2    3 1   
     4    2   32 1   
     5    3   33 1   
     6    4    5 1   
     7    4   34 1   
     8    5    7 1   
     9    6   35 1   
    10    7    8 1   
    11    7   36 1   
    12    7   37 1   
    13    8    9 1   
    14    8   10 1   
    15    9   38 1   
    16    9   39 1   
    17   11   12 1   
    18   11   15 1   
    19   12   13 1   
    20   12   40 1   
    21   13   14 1   
    22   13   16 1   
    23   14   41 1   
    24   15   20 1   
    25   16   17 1   
    26   16   18 1   
    27   16   19 1   
    28   17   42 1   
    29   17   43 1   
    30   17   44 1   
    31   18   45 1   
    32   18   46 1   
    33   18   47 1   
    34   19   48 1   
    35   19   49 1   
    36   19   50 1   
    37   21   22 1   
    38   21   24 1   
    39   22   23 1   
    40   22   51 1   
    41   23   25 1   
    42   23   29 1   
    43   25   26 1   
    44   25   52 1   
    45   26   53 1   
    46   27   28 1   
    47   27   54 1   
    48   28   31 1   
    49   29   30 1   
@<TRIPOS>SUBSTRUCTURE
     1 EDD         1 TEMP              0 ****  ****    0 ROOT
