@<TRIPOS>MOLECULE
EDD
   56    58     1     0     0
SMALL
bcc


@<TRIPOS>ATOM
      1 C1         -1.3610    0.4700    0.2060 ca        1 EDD      0.106600
      2 C2         -2.1100    1.6430    0.4130 ca        1 EDD     -0.067000
      3 C3         -1.9020    2.4010    1.5650 ca        1 EDD     -0.107000
      4 C4         -0.9470    2.0180    2.5030 ca        1 EDD     -0.086000
      5 C5         -0.1930    0.8560    2.2990 ca        1 EDD     -0.131300
      6 C6         -0.3960    0.0780    1.1550 ca        1 EDD     -0.075000
      7 C13         0.8740    0.4860    3.2700 c3        1 EDD     -0.085100
      8 C14         0.3330   -0.3360    4.4090 c         1 EDD      0.545100
      9 N15         1.2030   -0.3570    5.6620 n4        1 EDD     -0.772400
     10 O19        -0.6760   -1.0080    4.4940 o         1 EDD     -0.373100
     11 N21        -1.5420   -0.3640   -0.9540 na        1 EDD     -0.336800
     12 N23        -0.6350   -0.1760   -2.0100 na        1 EDD     -0.436800
     13 C24        -1.2620   -0.6170   -3.2070 cc        1 EDD      0.178800
     14 C25        -2.6180   -0.8070   -2.9660 cd        1 EDD     -0.365600
     15 C26        -2.8410   -0.5700   -1.5390 cd        1 EDD      0.758500
     16 C32        -0.5060   -0.7630   -4.4950 c3        1 EDD     -0.015800
     17 C34        -1.4340   -1.3260   -5.5640 c3        1 EDD     -0.098433
     18 C36         0.0050    0.6060   -4.9360 c3        1 EDD     -0.098433
     19 C38         0.6710   -1.7120   -4.2970 c3        1 EDD     -0.098433
     20 N40        -3.9650   -0.5670   -0.8010 ne        1 EDD     -0.768100
     21 C42        -5.1340   -0.9920   -1.3940 c         1 EDD      0.701500
     22 N43        -6.3610   -0.9120   -0.4570 n4        1 EDD     -0.520200
     23 C44        -7.0690    0.3550   -0.6200 ca        1 EDD     -0.035400
     24 O48        -5.4230   -1.4520   -2.5060 o         1 EDD     -0.526100
     25 C50        -7.7100    0.6290   -1.8410 ca        1 EDD     -0.090000
     26 C51        -8.4130    1.8220   -1.9940 ca        1 EDD     -0.095000
     27 C52        -8.4820    2.7430   -0.9520 ca        1 EDD     -0.067000
     28 C53        -7.8400    2.4810    0.2660 ca        1 EDD      0.027400
     29 C54        -7.1280    1.2840    0.4430 ca        1 EDD      0.021400
     30 CL61       -6.3620    0.9420    1.9150 cl        1 EDD     -0.037400
     31 CL63       -7.9390    3.6150    1.5110 cl        1 EDD     -0.003400
     32 H2         -2.8600    1.9720   -0.3260 ha        1 EDD      0.168000
     33 H3         -2.4910    3.3200    1.7240 ha        1 EDD      0.171000
     34 H4         -0.7810    2.6430    3.3940 ha        1 EDD      0.147000
     35 H6          0.1980   -0.8370    1.0000 ha        1 EDD      0.150000
     36 H13         1.3660    1.4210    3.6600 hc        1 EDD      0.112200
     37 H13A        1.6690   -0.1340    2.7610 hc        1 EDD      0.112200
     38 HN15        1.2430    0.5790    6.0780 hn        1 EDD      0.472800
     39 HN1A        2.1550   -0.6540    5.4280 hn        1 EDD      0.472800
     40 HN23        0.2740   -0.5580   -1.7970 hn        1 EDD      0.453800
     41 H25        -3.4000   -1.0760   -3.6780 ha        1 EDD      0.219000
     42 H34        -1.8320   -2.3220   -5.2560 hc        1 EDD      0.057033
     43 H34A       -2.2890   -0.6320   -5.7470 hc        1 EDD      0.057033
     44 H34B       -0.8680   -1.4490   -6.5200 hc        1 EDD      0.057033
     45 H36        -0.8450    1.3180   -5.0660 hc        1 EDD      0.057033
     46 H36A        0.5340    0.5010   -5.9150 hc        1 EDD      0.057033
     47 H36B        0.7200    1.0250   -4.1900 hc        1 EDD      0.057033
     48 H38         0.3280   -2.6870   -3.8760 hc        1 EDD      0.057033
     49 H38A        1.4380   -1.2660   -3.6190 hc        1 EDD      0.057033
     50 H38B        1.1560   -1.9080   -5.2850 hc        1 EDD      0.057033
     51 HN43       -6.9950   -1.6770   -0.7280 hn        1 EDD      0.470300
     52 H50        -7.6570   -0.0900   -2.6780 ha        1 EDD      0.179000
     53 H51        -8.9220    2.0330   -2.9500 ha        1 EDD      0.182000
     54 H52        -9.0470    3.6840   -1.0820 ha        1 EDD      0.188000
     55 H153        0.8100   -1.0100    6.3550 hn        1 EDD      0.472800
     56 H432       -6.0760   -1.0300    0.5250 hn        1 EDD      0.470300
@<TRIPOS>BOND
     1    1    2 ar  
     2    1    6 ar  
     3    1   11 1   
     4    2    3 ar  
     5    2   32 1   
     6    3    4 ar  
     7    3   33 1   
     8    4    5 ar  
     9    4   34 1   
    10    5    6 ar  
    11    5    7 1   
    12    6   35 1   
    13    7    8 1   
    14    7   36 1   
    15    7   37 1   
    16    8    9 1   
    17    8   10 2   
    18    9   38 1   
    19    9   39 1   
    20    9   55 1   
    21   11   12 1   
    22   11   15 1   
    23   12   13 1   
    24   12   40 1   
    25   13   14 2   
    26   13   16 1   
    27   14   15 1   
    28   14   41 1   
    29   15   20 2   
    30   16   17 1   
    31   16   18 1   
    32   16   19 1   
    33   17   42 1   
    34   17   43 1   
    35   17   44 1   
    36   18   45 1   
    37   18   46 1   
    38   18   47 1   
    39   19   48 1   
    40   19   49 1   
    41   19   50 1   
    42   20   21 1   
    43   21   22 1   
    44   21   24 2   
    45   22   23 1   
    46   22   51 1   
    47   22   56 1   
    48   23   25 ar  
    49   23   29 ar  
    50   25   26 ar  
    51   25   52 1   
    52   26   27 ar  
    53   26   53 1   
    54   27   28 ar  
    55   27   54 1   
    56   28   29 ar  
    57   28   31 1   
    58   29   30 1   
@<TRIPOS>SUBSTRUCTURE
     1 EDD         1 TEMP              0 ****  ****    0 ROOT
