@<TRIPOS>MOLECULE
EDD
   55    57     1     0     0
SMALL
bcc


@<TRIPOS>ATOM
      1 C1         -0.3720    0.1280    0.0970 ca        1 EDD      0.136600
      2 C2          0.6720   -0.8240    0.1020 ca        1 EDD     -0.102000
      3 C3          1.2070   -1.2700    1.3060 ca        1 EDD     -0.105000
      4 C4          0.7230   -0.7960    2.5260 ca        1 EDD     -0.106000
      5 C5         -0.3170    0.1360    2.5350 ca        1 EDD     -0.164300
      6 C6         -0.8650    0.5970    1.3320 ca        1 EDD     -0.157000
      7 C13        -0.8980    0.5920    3.8250 c3        1 EDD     -0.094100
      8 C14        -0.4770    1.9780    4.2240 c         1 EDD      0.551100
      9 N15        -0.2260    2.9520    3.0860 n4        1 EDD     -0.765400
     10 O19        -0.3200    2.4430    5.3380 o         1 EDD     -0.395100
     11 N21        -0.9040    0.7170   -1.1020 na        1 EDD     -0.374800
     12 N23        -0.1810    0.4650   -2.2890 na        1 EDD     -0.446800
     13 C24        -1.1410    0.3160   -3.3640 cc        1 EDD      0.098800
     14 C25        -2.4120    0.2530   -2.8640 cd        1 EDD     -0.321600
     15 C26        -2.3310    0.4420   -1.3910 cd        1 EDD      0.705500
     16 C32        -0.6830    0.2090   -4.7870 c3        1 EDD     -0.003800
     17 C34        -1.8980    0.1500   -5.7060 c3        1 EDD     -0.093767
     18 C36         0.1630    1.4250   -5.1530 c3        1 EDD     -0.093767
     19 C38         0.1430   -1.0610   -4.9630 c3        1 EDD     -0.093767
     20 N40        -3.2390    0.4280   -0.4630 ne        1 EDD     -0.732100
     21 C42        -4.6300    0.3070   -0.8150 c         1 EDD      0.814500
     22 N43        -5.3860   -0.5060    0.0340 n         1 EDD     -0.441100
     23 C44        -6.7920   -0.4830    0.0940 ca        1 EDD      0.069600
     24 O48        -5.1200    0.9100   -1.7940 o         1 EDD     -0.601100
     25 C50        -7.5860   -0.2450   -1.0460 ca        1 EDD     -0.131000
     26 C51        -8.9740   -0.2770   -0.9560 ca        1 EDD     -0.095000
     27 C52        -9.6090   -0.5510    0.2510 ca        1 EDD     -0.130000
     28 C53        -8.8400   -0.7920    1.3940 ca        1 EDD      0.042400
     29 C54        -7.4420   -0.7540    1.3290 ca        1 EDD     -0.031600
     30 CL61       -6.5230   -1.0450    2.7350 cl        1 EDD     -0.091400
     31 CL63       -9.6320   -1.1250    2.8560 cl        1 EDD     -0.055400
     32 H2          1.0670   -1.2370   -0.8420 ha        1 EDD      0.177000
     33 H3          2.0160   -2.0200    1.2960 ha        1 EDD      0.164000
     34 H4          1.1470   -1.1730    3.4690 ha        1 EDD      0.153000
     35 H6         -1.7260    1.2840    1.3600 ha        1 EDD      0.149000
     36 H13        -0.5940   -0.0950    4.6680 hc        1 EDD      0.132200
     37 H13A       -2.0260    0.5840    3.7760 hc        1 EDD      0.132200
     38 HN15        0.1790    3.8250    3.4390 hn        1 EDD      0.472133
     39 HN1A       -1.1100    3.1560    2.6090 hn        1 EDD      0.472133
     40 HN23        0.4290    1.2580   -2.4500 hn        1 EDD      0.409800
     41 H25        -3.3600    0.1070   -3.3840 ha        1 EDD      0.208000
     42 H34        -2.5210   -0.7470   -5.4730 hc        1 EDD      0.049478
     43 H34A       -1.5600    0.0820   -6.7690 hc        1 EDD      0.049478
     44 H34B       -2.5240    1.0660   -5.5880 hc        1 EDD      0.049478
     45 H36         0.3810    1.4090   -6.2490 hc        1 EDD      0.049478
     46 H36A       -0.3830    2.3690   -4.9150 hc        1 EDD      0.049478
     47 H36B        1.1360    1.4150   -4.6070 hc        1 EDD      0.049478
     48 H38        -0.4580   -1.9580   -4.6810 hc        1 EDD      0.049478
     49 H38A        0.4510   -1.1580   -6.0320 hc        1 EDD      0.049478
     50 H38B        1.0610   -1.0280   -4.3300 hc        1 EDD      0.049478
     51 HN43       -4.9270   -0.9160    0.8210 hn        1 EDD      0.331500
     52 H50        -7.1110   -0.0220   -2.0170 ha        1 EDD      0.176000
     53 H51        -9.5780   -0.0860   -1.8590 ha        1 EDD      0.152000
     54 H52       -10.7080   -0.5800    0.3090 ha        1 EDD      0.162000
     55 H153        0.4110    2.5190    2.4050 hn        1 EDD      0.472133
@<TRIPOS>BOND
     1    1    2 ar  
     2    1    6 ar  
     3    1   11 1   
     4    2    3 ar  
     5    2   32 1   
     6    3    4 ar  
     7    3   33 1   
     8    4    5 ar  
     9    4   34 1   
    10    5    6 ar  
    11    5    7 1   
    12    6   35 1   
    13    7    8 1   
    14    7   36 1   
    15    7   37 1   
    16    8    9 1   
    17    8   10 2   
    18    9   38 1   
    19    9   39 1   
    20    9   55 1   
    21   11   12 1   
    22   11   15 1   
    23   12   13 1   
    24   12   40 1   
    25   13   14 2   
    26   13   16 1   
    27   14   15 1   
    28   14   41 1   
    29   15   20 2   
    30   16   17 1   
    31   16   18 1   
    32   16   19 1   
    33   17   42 1   
    34   17   43 1   
    35   17   44 1   
    36   18   45 1   
    37   18   46 1   
    38   18   47 1   
    39   19   48 1   
    40   19   49 1   
    41   19   50 1   
    42   20   21 1   
    43   21   22 1   
    44   21   24 2   
    45   22   23 1   
    46   22   51 1   
    47   23   25 ar  
    48   23   29 ar  
    49   25   26 ar  
    50   25   52 1   
    51   26   27 ar  
    52   26   53 1   
    53   27   28 ar  
    54   27   54 1   
    55   28   29 ar  
    56   28   31 1   
    57   29   30 1   
@<TRIPOS>SUBSTRUCTURE
     1 EDD         1 TEMP              0 ****  ****    0 ROOT
