@<TRIPOS>MOLECULE
EDD
   54    56     1     0     0
SMALL
bcc


@<TRIPOS>ATOM
      1 C1         -2.8260    0.8760   -0.2140 ca        1 EDD      0.102600
      2 C2         -3.8080    0.9750   -1.2170 ca        1 EDD     -0.126000
      3 C3         -4.0310    2.1970   -1.8470 ca        1 EDD     -0.125000
      4 C4         -3.2870    3.3220   -1.5040 ca        1 EDD     -0.115000
      5 C5         -2.3020    3.2320   -0.5140 ca        1 EDD     -0.088300
      6 C6         -2.0700    2.0150    0.1310 ca        1 EDD     -0.105000
      7 C13        -1.4890    4.4260   -0.1610 c3        1 EDD     -0.113100
      8 C14        -2.0890    5.2510    0.9670 c         1 EDD      0.658100
      9 N15        -2.5550    4.5990    2.0800 n         1 EDD     -0.671000
     10 O19        -2.1170    6.4970    0.9060 o         1 EDD     -0.615100
     11 N21        -2.5740   -0.3330    0.5340 na        1 EDD     -0.359800
     12 N23        -3.6330   -1.2650    0.5870 na        1 EDD     -0.442800
     13 C24        -3.0470   -2.5850    0.5930 cc        1 EDD      0.081800
     14 C25        -1.7120   -2.5160    0.3000 cd        1 EDD     -0.324600
     15 C26        -1.3540   -1.0750    0.1800 cd        1 EDD      0.711500
     16 C32        -3.8900   -3.7980    0.8440 c3        1 EDD     -0.001800
     17 C34        -3.0040   -5.0380    0.8580 c3        1 EDD     -0.091433
     18 C36        -4.5940   -3.6710    2.1910 c3        1 EDD     -0.091433
     19 C38        -4.9290   -3.9350   -0.2640 c3        1 EDD     -0.091433
     20 N40        -0.2380   -0.4680   -0.1160 ne        1 EDD     -0.723100
     21 C42         0.9620   -1.2200   -0.3300 c         1 EDD      0.821500
     22 N43         1.9780   -0.4950   -0.9670 n         1 EDD     -0.442100
     23 C44         3.3060   -0.9210   -1.1080 ca        1 EDD      0.094600
     24 O48         1.1140   -2.4160    0.0150 o         1 EDD     -0.634100
     25 C50         3.6670   -2.2860   -1.1300 ca        1 EDD     -0.146000
     26 C51         4.9920   -2.6640   -1.3140 ca        1 EDD     -0.097000
     27 C52         5.9930   -1.7140   -1.4900 ca        1 EDD     -0.147000
     28 C53         5.6590   -0.3580   -1.4770 ca        1 EDD      0.044400
     29 C54         4.3330    0.0490   -1.2830 ca        1 EDD     -0.040600
     30 CL61        3.9570    1.7090   -1.2650 cl        1 EDD     -0.077400
     31 CL63        6.8950    0.7870   -1.6960 cl        1 EDD     -0.071400
     32 H2         -4.4050    0.1000   -1.5170 ha        1 EDD      0.151000
     33 H3         -4.8020    2.2690   -2.6300 ha        1 EDD      0.139000
     34 H4         -3.4690    4.2820   -2.0110 ha        1 EDD      0.144000
     35 H6         -1.2780    1.9470    0.8950 ha        1 EDD      0.155000
     36 H13        -0.4550    4.1170    0.1530 hc        1 EDD      0.085700
     37 H13A       -1.3860    5.1040   -1.0520 hc        1 EDD      0.085700
     38 HN15       -2.6260    3.6140    2.0930 hn        1 EDD      0.312500
     39 HN1A       -2.9770    5.1190    2.8090 hn        1 EDD      0.312500
     40 HN23       -4.1650   -1.0800    1.4280 hn        1 EDD      0.409800
     41 H25        -0.9850   -3.3160    0.1610 ha        1 EDD      0.206000
     42 H34        -2.2280   -4.9540    1.6560 hc        1 EDD      0.045700
     43 H34A       -3.6270   -5.9430    1.0560 hc        1 EDD      0.045700
     44 H34B       -2.4940   -5.1640   -0.1270 hc        1 EDD      0.045700
     45 H36        -5.3630   -2.8630    2.1660 hc        1 EDD      0.045700
     46 H36A       -5.1080   -4.6320    2.4350 hc        1 EDD      0.045700
     47 H36B       -3.8570   -3.4480    2.9980 hc        1 EDD      0.045700
     48 H38        -4.4280   -4.0080   -1.2590 hc        1 EDD      0.045700
     49 H38A       -5.5320   -4.8610   -0.0970 hc        1 EDD      0.045700
     50 H38B       -5.6180   -3.0570   -0.2720 hc        1 EDD      0.045700
     51 HN43        1.8090    0.4750   -1.1450 hn        1 EDD      0.340500
     52 H50         2.8980   -3.0660   -0.9940 ha        1 EDD      0.178000
     53 H51         5.2500   -3.7350   -1.3230 ha        1 EDD      0.143000
     54 H52         7.0380   -2.0250   -1.6370 ha        1 EDD      0.152000
@<TRIPOS>BOND
     1    1    2 ar  
     2    1    6 ar  
     3    1   11 1   
     4    2    3 ar  
     5    2   32 1   
     6    3    4 ar  
     7    3   33 1   
     8    4    5 ar  
     9    4   34 1   
    10    5    6 ar  
    11    5    7 1   
    12    6   35 1   
    13    7    8 1   
    14    7   36 1   
    15    7   37 1   
    16    8    9 1   
    17    8   10 2   
    18    9   38 1   
    19    9   39 1   
    20   11   12 1   
    21   11   15 1   
    22   12   13 1   
    23   12   40 1   
    24   13   14 2   
    25   13   16 1   
    26   14   15 1   
    27   14   41 1   
    28   15   20 2   
    29   16   17 1   
    30   16   18 1   
    31   16   19 1   
    32   17   42 1   
    33   17   43 1   
    34   17   44 1   
    35   18   45 1   
    36   18   46 1   
    37   18   47 1   
    38   19   48 1   
    39   19   49 1   
    40   19   50 1   
    41   20   21 1   
    42   21   22 1   
    43   21   24 2   
    44   22   23 1   
    45   22   51 1   
    46   23   25 ar  
    47   23   29 ar  
    48   25   26 ar  
    49   25   52 1   
    50   26   27 ar  
    51   26   53 1   
    52   27   28 ar  
    53   27   54 1   
    54   28   29 ar  
    55   28   31 1   
    56   29   30 1   
@<TRIPOS>SUBSTRUCTURE
     1 EDD         1 TEMP              0 ****  ****    0 ROOT
