@<TRIPOS>MOLECULE
EDD
   55    57     1     0     0
SMALL
bcc


@<TRIPOS>ATOM
      1 C1         -0.4070    0.1150    0.1090 ca        1 EDD      0.135600
      2 C2          0.6180   -0.8570    0.1170 ca        1 EDD     -0.101000
      3 C3          1.1340   -1.3210    1.3230 ca        1 EDD     -0.107000
      4 C4          0.6480   -0.8440    2.5410 ca        1 EDD     -0.112000
      5 C5         -0.3730    0.1090    2.5470 ca        1 EDD     -0.170300
      6 C6         -0.9010    0.5870    1.3420 ca        1 EDD     -0.152000
      7 C13        -0.9580    0.5680    3.8330 c3        1 EDD     -0.095100
      8 C14        -0.5580    1.9570    4.2360 c         1 EDD      0.551100
      9 N15         0.0590    2.8200    3.1490 nz        1 EDD     -0.762400
     10 O19        -0.6680    2.5030    5.3190 o         1 EDD     -0.397100
     11 N21        -0.9220    0.7170   -1.0900 na        1 EDD     -0.374800
     12 N23        -0.1850    0.4740   -2.2710 na        1 EDD     -0.447800
     13 C24        -1.1330    0.3290   -3.3580 cc        1 EDD      0.096800
     14 C25        -2.4090    0.2630   -2.8740 cd        1 EDD     -0.318600
     15 C26        -2.3460    0.4430   -1.3980 cd        1 EDD      0.705500
     16 C32        -0.6570    0.2310   -4.7760 c3        1 EDD     -0.003800
     17 C34        -1.8620    0.1750   -5.7090 c3        1 EDD     -0.093767
     18 C36         0.1910    1.4500   -5.1250 c3        1 EDD     -0.093767
     19 C38         0.1720   -1.0370   -4.9490 c3        1 EDD     -0.093767
     20 N40        -3.2630    0.4230   -0.4790 ne        1 EDD     -0.730100
     21 C42        -4.6500    0.2970   -0.8450 c         1 EDD      0.814500
     22 N43        -5.4230   -0.4670    0.0330 ns        1 EDD     -0.440100
     23 C44        -6.8300   -0.4380    0.0690 ca        1 EDD      0.070600
     24 O48        -5.1220    0.8500   -1.8620 o         1 EDD     -0.602100
     25 C50        -7.6050   -0.2510   -1.0940 ca        1 EDD     -0.132000
     26 C51        -8.9950   -0.2770   -1.0260 ca        1 EDD     -0.095000
     27 C52        -9.6490   -0.4950    0.1820 ca        1 EDD     -0.130000
     28 C53        -8.9000   -0.6860    1.3470 ca        1 EDD      0.042400
     29 C54        -7.5010   -0.6530    1.3030 ca        1 EDD     -0.031600
     30 Cl61       -6.6060   -0.8820    2.7360 cl        1 EDD     -0.091400
     31 Cl63       -9.7170   -0.9520    2.8090 cl        1 EDD     -0.056400
     32 H2          1.0130   -1.2720   -0.8260 ha        1 EDD      0.177000
     33 H3          1.9270   -2.0880    1.3150 ha        1 EDD      0.164000
     34 H4          1.0540   -1.2390    3.4860 ha        1 EDD      0.151000
     35 H6         -1.7490    1.2920    1.3670 ha        1 EDD      0.154000
     36 H13        -0.6600   -0.1160    4.6810 hc        1 EDD      0.135200
     37 H13A       -2.0870    0.5550    3.7780 hc        1 EDD      0.135200
     38 HN15       -0.6030    2.9120    2.3700 hn        1 EDD      0.471133
     39 HN1A        0.2970    3.7480    3.5130 hn        1 EDD      0.471133
     40 HN23        0.4230    1.2710   -2.4210 hn        1 EDD      0.408800
     41 H25        -3.3510    0.1190   -3.4050 ha        1 EDD      0.210000
     42 H34        -2.4910    1.0900   -5.5930 hc        1 EDD      0.049367
     43 H34A       -1.5120    0.1130   -6.7680 hc        1 EDD      0.049367
     44 H34B       -2.4860   -0.7230   -5.4890 hc        1 EDD      0.049367
     45 H36        -0.3590    2.3920   -4.8880 hc        1 EDD      0.049367
     46 H36A        0.4210    1.4400   -6.2190 hc        1 EDD      0.049367
     47 H36B        1.1570    1.4390   -4.5680 hc        1 EDD      0.049367
     48 H38        -0.4310   -1.9360   -4.6790 hc        1 EDD      0.049367
     49 H38A        1.0830   -1.0060   -4.3050 hc        1 EDD      0.049367
     50 H38B        0.4920   -1.1280   -6.0150 hc        1 EDD      0.049367
     51 HN43       -4.9790   -0.8330    0.8490 hn        1 EDD      0.331500
     52 H50        -7.1140   -0.0730   -2.0660 ha        1 EDD      0.176000
     53 H51        -9.5820   -0.1250   -1.9450 ha        1 EDD      0.152000
     54 H52       -10.7500   -0.5180    0.2230 ha        1 EDD      0.161000
     55 H153        0.9040    2.3580    2.7950 hn        1 EDD      0.471133
@<TRIPOS>BOND
     1    1    2 ar  
     2    1    6 ar  
     3    1   11 1   
     4    2    3 ar  
     5    2   32 1   
     6    3    4 ar  
     7    3   33 1   
     8    4    5 ar  
     9    4   34 1   
    10    5    6 ar  
    11    5    7 1   
    12    6   35 1   
    13    7    8 1   
    14    7   36 1   
    15    7   37 1   
    16    8    9 1   
    17    8   10 2   
    18    9   38 1   
    19    9   39 1   
    20    9   55 1   
    21   11   12 1   
    22   11   15 1   
    23   12   13 1   
    24   12   40 1   
    25   13   14 2   
    26   13   16 1   
    27   14   15 1   
    28   14   41 1   
    29   15   20 2   
    30   16   17 1   
    31   16   18 1   
    32   16   19 1   
    33   17   42 1   
    34   17   43 1   
    35   17   44 1   
    36   18   45 1   
    37   18   46 1   
    38   18   47 1   
    39   19   48 1   
    40   19   49 1   
    41   19   50 1   
    42   20   21 1   
    43   21   22 1   
    44   21   24 2   
    45   22   23 1   
    46   22   51 1   
    47   23   25 ar  
    48   23   29 ar  
    49   25   26 ar  
    50   25   52 1   
    51   26   27 ar  
    52   26   53 1   
    53   27   28 ar  
    54   27   54 1   
    55   28   29 ar  
    56   28   31 1   
    57   29   30 1   
@<TRIPOS>SUBSTRUCTURE
     1 EDD         1 TEMP              0 ****  ****    0 ROOT
