@<TRIPOS>MOLECULE
EDG
   20    20     1     0     0
SMALL
bcc


@<TRIPOS>ATOM
      1 O2'         2.2560    0.2670   -1.0790 oh        1 EDG     -0.593800
      2 C2'         1.5720    0.1530    0.1540 c3        1 EDG      0.075100
      3 C1'         0.7770    1.4310    0.5130 c3        1 EDG      0.116800
      4 N4'        -0.5880    1.0650    0.8680 n3        1 EDG     -0.798200
      5 C3'         0.5030   -0.9550   -0.0100 c3        1 EDG      0.122100
      6 O3'         0.7220   -2.0100    0.9060 oh        1 EDG     -0.595800
      7 C4'        -0.8510   -0.2920    0.3730 c3        1 EDG      0.118500
      8 C5'        -1.7770   -0.2870   -0.8560 c3        1 EDG      0.145400
      9 O5'        -3.0750    0.1590   -0.5300 oh        1 EDG     -0.599800
     10 HO2'        2.8050    1.0580   -1.0240 ho        1 EDG      0.406000
     11 H2'         2.3000   -0.1130    0.9670 h1        1 EDG      0.051700
     12 H1'1        1.2790    1.9910    1.3450 h1        1 EDG      0.056700
     13 H1'2        0.7290    2.1040   -0.3880 h1        1 EDG      0.056700
     14 H3'         0.4960   -1.3410   -1.0640 h1        1 EDG      0.071700
     15 HN4'       -0.7070    1.0890    1.8640 hn        1 EDG      0.361800
     16 H4'        -1.3530   -0.9080    1.1750 h1        1 EDG      0.084700
     17 HO3'        1.5110   -2.4800    0.6070 ho        1 EDG      0.409000
     18 H5'1       -1.3410    0.3370   -1.6810 h1        1 EDG      0.049700
     19 H5'2       -1.9190   -1.3430   -1.2120 h1        1 EDG      0.049700
     20 HO5'       -3.0020    1.0760   -0.2380 ho        1 EDG      0.411000
@<TRIPOS>BOND
     1    1    2 1   
     2    1   10 1   
     3    2    3 1   
     4    2    5 1   
     5    2   11 1   
     6    3    4 1   
     7    3   12 1   
     8    3   13 1   
     9    4    7 1   
    10    4   15 1   
    11    5    6 1   
    12    5    7 1   
    13    5   14 1   
    14    6   17 1   
    15    7    8 1   
    16    7   16 1   
    17    8    9 1   
    18    8   18 1   
    19    8   19 1   
    20    9   20 1   
@<TRIPOS>SUBSTRUCTURE
     1 EDG         1 TEMP              0 ****  ****    0 ROOT
