@<TRIPOS>MOLECULE
EDG
   20    20     1     0     0
SMALL
bcc


@<TRIPOS>ATOM
      1 O2'         0.1650   -0.1340   -0.4030 oh        1 EDG     -0.593800
      2 C2'         1.5420   -0.1090   -0.0800 c3        1 EDG      0.075100
      3 C1'         1.8010   -0.3040    1.4330 c3        1 EDG      0.116800
      4 N4'         2.8010   -1.3460    1.6200 n7        1 EDG     -0.798200
      5 C3'         2.2000   -1.3330   -0.7630 c3        1 EDG      0.122100
      6 O3'         3.2040   -0.9260   -1.6720 oh        1 EDG     -0.595800
      7 C4'         2.9070   -2.1200    0.3770 c3        1 EDG      0.118500
      8 C5'         2.2600   -3.5100    0.5070 c3        1 EDG      0.145400
      9 O5'         2.9600   -4.3290    1.4180 oh        1 EDG     -0.599800
     10 HO2'       -0.2650    0.5310    0.1490 ho        1 EDG      0.406000
     11 H2'         2.0000    0.8480   -0.4490 h1        1 EDG      0.051700
     12 H1'1        2.1200    0.6600    1.9100 h1        1 EDG      0.056700
     13 H1'2        0.8510   -0.6460    1.9310 h1        1 EDG      0.056700
     14 H3'         1.4240   -1.9560   -1.2830 h1        1 EDG      0.071700
     15 HN4'        3.6920   -0.9390    1.8390 hn        1 EDG      0.361800
     16 H4'         3.9920   -2.2730    0.1050 h1        1 EDG      0.084700
     17 HO3'        2.7540   -0.5240   -2.4250 ho        1 EDG      0.409000
     18 H5'1        1.1820   -3.4220    0.8060 h1        1 EDG      0.049700
     19 H5'2        2.3400   -4.0460   -0.4770 h1        1 EDG      0.049700
     20 HO5'        2.8980   -3.9150    2.2870 ho        1 EDG      0.411000
@<TRIPOS>BOND
     1    1    2 1   
     2    1   10 1   
     3    2    3 1   
     4    2    5 1   
     5    2   11 1   
     6    3    4 1   
     7    3   12 1   
     8    3   13 1   
     9    4    7 1   
    10    4   15 1   
    11    5    6 1   
    12    5    7 1   
    13    5   14 1   
    14    6   17 1   
    15    7    8 1   
    16    7   16 1   
    17    8    9 1   
    18    8   18 1   
    19    8   19 1   
    20    9   20 1   
@<TRIPOS>SUBSTRUCTURE
     1 EDG         1 TEMP              0 ****  ****    0 ROOT
