@<TRIPOS>MOLECULE
EDG
   20    20     1     0     0
SMALL
bcc


@<TRIPOS>ATOM
      1 O2'         0.1100   -0.2130   -0.3940 oh        1 EDG     -0.593800
      2 C2'         1.4780   -0.1280   -0.0450 c3        1 EDG      0.075100
      3 C1'         1.7220   -0.3610    1.4660 c3        1 EDG      0.116800
      4 N4'         2.7720   -1.3560    1.6360 n3        1 EDG     -0.798200
      5 C3'         2.2100   -1.2920   -0.7560 c3        1 EDG      0.122100
      6 O3'         3.2070   -0.8040   -1.6320 oh        1 EDG     -0.595800
      7 C4'         2.9380   -2.0800    0.3700 c3        1 EDG      0.118500
      8 C5'         2.3620   -3.5060    0.4420 c3        1 EDG      0.145400
      9 O5'         3.0900   -4.3170    1.3380 oh        1 EDG     -0.599800
     10 HO2'       -0.3640    0.4090    0.1720 ho        1 EDG      0.406000
     11 H2'         1.8910    0.8630   -0.3740 h1        1 EDG      0.051700
     12 H1'1        0.7830   -0.7680    1.9350 h1        1 EDG      0.056700
     13 H1'2        1.9820    0.6010    1.9790 h1        1 EDG      0.056700
     14 H3'         1.4760   -1.9370   -1.3100 h1        1 EDG      0.071700
     15 HN4'        3.6360   -0.9110    1.8850 hn        1 EDG      0.361800
     16 H4'         4.0340   -2.1680    0.1130 h1        1 EDG      0.084700
     17 HO3'        2.7480   -0.4000   -2.3800 ho        1 EDG      0.409000
     18 H5'1        2.4870   -4.0030   -0.5580 h1        1 EDG      0.049700
     19 H5'2        1.2760   -3.4840    0.7240 h1        1 EDG      0.049700
     20 HO5'        2.9920   -3.9370    2.2200 ho        1 EDG      0.411000
@<TRIPOS>BOND
     1    1    2 1   
     2    1   10 1   
     3    2    3 1   
     4    2    5 1   
     5    2   11 1   
     6    3    4 1   
     7    3   12 1   
     8    3   13 1   
     9    4    7 1   
    10    4   15 1   
    11    5    6 1   
    12    5    7 1   
    13    5   14 1   
    14    6   17 1   
    15    7    8 1   
    16    7   16 1   
    17    8    9 1   
    18    8   18 1   
    19    8   19 1   
    20    9   20 1   
@<TRIPOS>SUBSTRUCTURE
     1 EDG         1 TEMP              0 ****  ****    0 ROOT
