@<TRIPOS>MOLECULE
EDG
   20    20     1     0     0
SMALL
bcc


@<TRIPOS>ATOM
      1 O2'        -1.5640    1.3190   -0.6020 oh        1 EDG     -0.597800
      2 C2'        -0.0790    1.3190   -0.6020 c3        1 EDG      0.127100
      3 C1'         0.4780    1.3190    0.9080 c3        1 EDG      0.151800
      4 N4'         1.0140   -0.1100    1.1560 n3        1 EDG     -0.795200
      5 C3'         0.3550    0.2570   -1.1070 c3        1 EDG      0.089100
      6 O3'         1.6320    0.5040   -1.7710 oh        1 EDG     -0.592800
      7 C4'         0.5650   -0.8090    0.1610 c3        1 EDG      0.138500
      8 C5'        -0.7340   -1.4360    0.5230 c3        1 EDG      0.106400
      9 O5'        -0.4980   -2.6100    1.2680 oh        1 EDG     -0.593800
     10 HO2'       -1.8590    2.0930   -0.9200 ho        1 EDG      0.407000
     11 H2'         0.2620    2.0920   -1.0900 h1        1 EDG      0.071700
     12 H1'1        1.1990    1.9700    1.0010 h1        1 EDG      0.059200
     13 H1'2       -0.2430    1.5210    1.5340 h1        1 EDG      0.059200
     14 H3'        -0.2930   -0.1010   -1.7440 h1        1 EDG      0.048700
     15 HN4'        0.6690   -0.4330    1.9350 hn        1 EDG      0.373800
     16 H4'         1.2130   -1.4970   -0.0840 h1        1 EDG      0.083700
     17 HO3'        1.6000    0.1890   -2.6010 ho        1 EDG      0.407000
     18 H5'1       -1.2600   -0.8110    1.0570 h1        1 EDG      0.027200
     19 H5'2       -1.2250   -1.6610   -0.2910 h1        1 EDG      0.027200
     20 HO5'       -1.2300   -3.1130    1.2690 ho        1 EDG      0.403000
@<TRIPOS>BOND
     1    1    2 1   
     2    1   10 1   
     3    2    3 1   
     4    2    5 1   
     5    2   11 1   
     6    3    4 1   
     7    3   12 1   
     8    3   13 1   
     9    4    7 1   
    10    4   15 1   
    11    5    6 1   
    12    5    7 1   
    13    5   14 1   
    14    6   17 1   
    15    7    8 1   
    16    7   16 1   
    17    8    9 1   
    18    8   18 1   
    19    8   19 1   
    20    9   20 1   
@<TRIPOS>SUBSTRUCTURE
     1 EDG         1 TEMP              0 ****  ****    0 ROOT
