@<TRIPOS>MOLECULE
EDG
   20    20     1     0     0
SMALL
bcc


@<TRIPOS>ATOM
      1 O2'         0.1110   -0.1690   -0.3180 oh        1 EDG     -0.593800
      2 C2'         1.4970   -0.1170   -0.0390 c3        1 EDG      0.075100
      3 C1'         1.8100   -0.3280    1.4620 c3        1 EDG      0.116800
      4 N4'         2.8390   -1.3490    1.6000 n3        1 EDG     -0.798200
      5 C3'         2.1600   -1.3150   -0.7620 c3        1 EDG      0.122100
      6 O3'         3.1250   -0.8720   -1.6960 oh        1 EDG     -0.595800
      7 C4'         2.9220   -2.1020    0.3420 c3        1 EDG      0.118500
      8 C5'         2.3110   -3.5090    0.4720 c3        1 EDG      0.145400
      9 O5'         3.0590   -4.3240    1.3470 oh        1 EDG     -0.599800
     10 HO2'       -0.3160    0.4770    0.2580 ho        1 EDG      0.406000
     11 H2'         1.9210    0.8560   -0.4080 h1        1 EDG      0.051700
     12 H1'1        0.8850   -0.7000    1.9850 h1        1 EDG      0.056700
     13 H1'2        2.1230    0.6360    1.9420 h1        1 EDG      0.056700
     14 H3'         1.3820   -1.9480   -1.2660 h1        1 EDG      0.071700
     15 HN4'        3.7270   -0.9250    1.7970 hn        1 EDG      0.361800
     16 H4'         4.0010   -2.2270    0.0330 h1        1 EDG      0.084700
     17 HO3'        2.6410   -0.4700   -2.4280 ho        1 EDG      0.409000
     18 H5'1        1.2420   -3.4500    0.8070 h1        1 EDG      0.049700
     19 H5'2        2.3710   -4.0280   -0.5220 h1        1 EDG      0.049700
     20 HO5'        3.0170   -3.9240    2.2240 ho        1 EDG      0.411000
@<TRIPOS>BOND
     1    1    2 1   
     2    1   10 1   
     3    2    3 1   
     4    2    5 1   
     5    2   11 1   
     6    3    4 1   
     7    3   12 1   
     8    3   13 1   
     9    4    7 1   
    10    4   15 1   
    11    5    6 1   
    12    5    7 1   
    13    5   14 1   
    14    6   17 1   
    15    7    8 1   
    16    7   16 1   
    17    8    9 1   
    18    8   18 1   
    19    8   19 1   
    20    9   20 1   
@<TRIPOS>SUBSTRUCTURE
     1 EDG         1 TEMP              0 ****  ****    0 ROOT
