@<TRIPOS>MOLECULE
EDM
   28    28     1     0     0
SMALL
bcc


@<TRIPOS>ATOM
      1 C23         4.1500    0.6300    0.4600 c3        1 EDM      0.193100
      2 N21         2.9590    1.2870   -0.0070 nh        1 EDM     -0.762300
      3 C25         2.8540    2.7080    0.2110 c3        1 EDM      0.193100
      4 C1          1.7940    0.5200   -0.1130 ca        1 EDM      0.682200
      5 C2          1.8690   -0.9060   -0.2210 ca        1 EDM     -0.375600
      6 N6          0.5670    1.1430   -0.1740 nb        1 EDM     -0.699000
      7 C5         -0.5190    0.3530   -0.3610 ca        1 EDM      0.488900
      8 S17        -2.0410    1.2640   -0.4180 sy        1 EDM      1.318900
      9 C29        -3.1640    0.0620   -0.7620 c3        1 EDM     -0.366300
     10 O27        -2.2810    1.7700    0.8570 o         1 EDM     -0.636300
     11 O19        -1.9800    2.1510   -1.4900 o         1 EDM     -0.636300
     12 N4         -0.5320   -0.9970   -0.4810 nb        1 EDM     -0.694000
     13 C3          0.6740   -1.6260   -0.4090 ca        1 EDM      0.511100
     14 C13         0.7590   -3.0870   -0.5260 ce        1 EDM     -0.259800
     15 C15        -0.2820   -3.9080   -0.6740 c2        1 EDM     -0.151000
     16 H23         3.9590    0.0190    1.3840 h1        1 EDM      0.048033
     17 H23A        4.5380   -0.0500   -0.3460 h1        1 EDM      0.048033
     18 H23B        4.9410    1.3910    0.6920 h1        1 EDM      0.048033
     19 H25         3.8740    3.1680    0.1260 h1        1 EDM      0.048033
     20 H25A        2.1920    3.1640   -0.5740 h1        1 EDM      0.048033
     21 H25B        2.4280    2.9450    1.2240 h1        1 EDM      0.048033
     22 H2          2.8280   -1.4370   -0.1690 ha        1 EDM      0.154000
     23 H29        -3.2360   -0.7250    0.0300 h1        1 EDM      0.124367
     24 H29A       -4.1920    0.4980   -0.8620 h1        1 EDM      0.124367
     25 H29B       -2.9650   -0.4800   -1.7200 h1        1 EDM      0.124367
     26 H13         1.7890   -3.4810   -0.4810 ha        1 EDM      0.129000
     27 H15        -0.1450   -4.9950   -0.7550 ha        1 EDM      0.124000
     28 H15A       -1.3240   -3.5650   -0.7250 ha        1 EDM      0.124000
@<TRIPOS>BOND
     1    1    2 1   
     2    1   16 1   
     3    1   17 1   
     4    1   18 1   
     5    2    3 1   
     6    2    4 1   
     7    3   19 1   
     8    3   20 1   
     9    3   21 1   
    10    4    5 ar  
    11    4    6 ar  
    12    5   13 ar  
    13    5   22 1   
    14    6    7 ar  
    15    7    8 1   
    16    7   12 ar  
    17    8    9 1   
    18    8   10 2   
    19    8   11 2   
    20    9   23 1   
    21    9   24 1   
    22    9   25 1   
    23   12   13 ar  
    24   13   14 1   
    25   14   15 2   
    26   14   26 1   
    27   15   27 1   
    28   15   28 1   
@<TRIPOS>SUBSTRUCTURE
     1 EDM         1 TEMP              0 ****  ****    0 ROOT
