@<TRIPOS>MOLECULE
EDM
   29    29     1     0     0
SMALL
bcc


@<TRIPOS>ATOM
      1 C23         0.7780   -0.7620    0.7600 c3        1 EDM      0.090100
      2 N21         1.1100    0.4680   -0.0120 n4        1 EDM     -0.665100
      3 C25         1.7860    1.4760    0.8540 c3        1 EDM      0.090100
      4 C1          1.9460    0.1420   -1.2000 ca        1 EDM      0.502200
      5 C2          1.4600    0.4160   -2.4920 ca        1 EDM     -0.317600
      6 N6          3.1670   -0.4170   -0.9760 nb        1 EDM     -0.642000
      7 C5          3.9040   -0.7020   -2.0800 ca        1 EDM      0.537900
      8 S17         5.5280   -1.4500   -1.6850 sy        1 EDM      1.321900
      9 C29         6.1700   -1.6750   -3.1980 c3        1 EDM     -0.402300
     10 O27         6.2020   -0.4650   -0.9850 o         1 EDM     -0.610800
     11 O19         5.2170   -2.6540   -1.0770 o         1 EDM     -0.610800
     12 N4          3.5350   -0.4820   -3.3650 nb        1 EDM     -0.632000
     13 C3          2.3160    0.0760   -3.5840 ca        1 EDM      0.551100
     14 C13         1.8350    0.3500   -4.9360 ce        1 EDM     -0.308800
     15 C15         2.5170    0.0900   -6.0560 c2        1 EDM     -0.078000
     16 H23         1.7140   -1.1990    1.2040 hx        1 EDM      0.112367
     17 H23A        0.0630   -0.4870    1.5810 hx        1 EDM      0.112367
     18 H23B        0.3060   -1.5150    0.0730 hx        1 EDM      0.112367
     19 H25         2.0570    2.3730    0.2370 hx        1 EDM      0.112367
     20 H25A        2.7190    1.0330    1.2980 hx        1 EDM      0.112367
     21 H25B        1.0800    1.7710    1.6760 hx        1 EDM      0.112367
     22 H2          0.4760    0.8670   -2.6860 ha        1 EDM      0.176000
     23 H29         6.3100   -0.7330   -3.7900 h1        1 EDM      0.146700
     24 H29A        7.1940   -2.1390   -3.1420 h1        1 EDM      0.146700
     25 H29B        5.5770   -2.3610   -3.8580 h1        1 EDM      0.146700
     26 H13         0.8290    0.8040   -4.9780 ha        1 EDM      0.147000
     27 H15         3.5200   -0.3610   -6.0730 ha        1 EDM      0.143500
     28 H15A        2.0930    0.3220   -7.0460 ha        1 EDM      0.143500
     29 H211        0.2350    0.8780   -0.3680 hn        1 EDM      0.453800
@<TRIPOS>BOND
     1    1    2 1   
     2    1   16 1   
     3    1   17 1   
     4    1   18 1   
     5    2    3 1   
     6    2    4 1   
     7    2   29 1   
     8    3   19 1   
     9    3   20 1   
    10    3   21 1   
    11    4    5 ar  
    12    4    6 ar  
    13    5   13 ar  
    14    5   22 1   
    15    6    7 ar  
    16    7    8 1   
    17    7   12 ar  
    18    8    9 1   
    19    8   10 2   
    20    8   11 2   
    21    9   23 1   
    22    9   24 1   
    23    9   25 1   
    24   12   13 ar  
    25   13   14 1   
    26   14   15 2   
    27   14   26 1   
    28   15   27 1   
    29   15   28 1   
@<TRIPOS>SUBSTRUCTURE
     1 EDM         1 TEMP              0 ****  ****    0 ROOT
