@<TRIPOS>MOLECULE
EDM
   28    28     1     0     0
SMALL
bcc


@<TRIPOS>ATOM
      1 C23         0.0170    0.6260    0.0040 c3        1 EDM      0.193100
      2 N21         1.3390    0.0730    0.1450 nh        1 EDM     -0.762300
      3 C25         2.0060    0.2600    1.4090 c3        1 EDM      0.193100
      4 C1          2.0990   -0.0930   -1.0170 ca        1 EDM      0.682200
      5 C2          1.4630   -0.1710   -2.2980 ca        1 EDM     -0.375600
      6 N6          3.4650   -0.2420   -0.9260 nb        1 EDM     -0.699000
      7 C5          4.1390   -0.4830   -2.0770 ca        1 EDM      0.488900
      8 S17         5.8900   -0.6510   -1.8360 sy        1 EDM      1.318900
      9 C29         6.4240   -1.0540   -3.3770 c3        1 EDM     -0.366300
     10 O27         6.3920    0.6000   -1.4850 o         1 EDM     -0.636300
     11 O19         6.1130   -1.7270   -0.9800 o         1 EDM     -0.636300
     12 N4          3.6140   -0.5800   -3.3220 nb        1 EDM     -0.694000
     13 C3          2.2650   -0.4210   -3.4280 ca        1 EDM      0.511100
     14 C13         1.6070   -0.5070   -4.7370 ce        1 EDM     -0.259800
     15 C15         2.2310   -0.6900   -5.9010 c2        1 EDM     -0.151000
     16 H23         0.0130    1.5460   -0.6410 h1        1 EDM      0.048033
     17 H23A       -0.6580   -0.1430   -0.4610 h1        1 EDM      0.048033
     18 H23B       -0.3940    0.8940    1.0130 h1        1 EDM      0.048033
     19 H25         2.5550    1.2390    1.4500 h1        1 EDM      0.048033
     20 H25A        1.2460    0.2310    2.2330 h1        1 EDM      0.048033
     21 H25B        2.7420   -0.5730    1.5740 h1        1 EDM      0.048033
     22 H2          0.3790   -0.0500   -2.4100 ha        1 EDM      0.154000
     23 H29         7.5320   -1.2290   -3.3800 h1        1 EDM      0.124367
     24 H29A        5.9640   -1.9900   -3.7840 h1        1 EDM      0.124367
     25 H29B        6.2350   -0.2590   -4.1410 h1        1 EDM      0.124367
     26 H13         0.5080   -0.4040   -4.6930 ha        1 EDM      0.129000
     27 H15         3.3200   -0.7980   -5.9960 ha        1 EDM      0.124000
     28 H15A        1.6730   -0.7440   -6.8470 ha        1 EDM      0.124000
@<TRIPOS>BOND
     1    1    2 1   
     2    1   16 1   
     3    1   17 1   
     4    1   18 1   
     5    2    3 1   
     6    2    4 1   
     7    3   19 1   
     8    3   20 1   
     9    3   21 1   
    10    4    5 ar  
    11    4    6 ar  
    12    5   13 ar  
    13    5   22 1   
    14    6    7 ar  
    15    7    8 1   
    16    7   12 ar  
    17    8    9 1   
    18    8   10 2   
    19    8   11 2   
    20    9   23 1   
    21    9   24 1   
    22    9   25 1   
    23   12   13 ar  
    24   13   14 1   
    25   14   15 2   
    26   14   26 1   
    27   15   27 1   
    28   15   28 1   
@<TRIPOS>SUBSTRUCTURE
     1 EDM         1 TEMP              0 ****  ****    0 ROOT
