@<TRIPOS>MOLECULE
EDM
   28    28     1     0     0
SMALL
bcc


@<TRIPOS>ATOM
      1 C23         0.0390    0.6780    0.0110 c3        1 EDM      0.193100
      2 N21         1.3500    0.1010    0.1490 nh        1 EDM     -0.762300
      3 C25         2.0240    0.2750    1.4110 c3        1 EDM      0.193100
      4 C1          2.1050   -0.0790   -1.0150 ca        1 EDM      0.682200
      5 C2          1.4640   -0.1450   -2.2950 ca        1 EDM     -0.375600
      6 N6          3.4680   -0.2530   -0.9270 nb        1 EDM     -0.699000
      7 C5          4.1350   -0.5060   -2.0800 ca        1 EDM      0.488900
      8 S17         5.8820   -0.7080   -1.8430 sy        1 EDM      1.318900
      9 C29         6.4070   -1.1140   -3.3870 c3        1 EDM     -0.366300
     10 O27         6.4080    0.5320   -1.4870 o         1 EDM     -0.636300
     11 O19         6.0870   -1.7910   -0.9920 o         1 EDM     -0.636300
     12 N4          3.6050   -0.5940   -3.3240 nb        1 EDM     -0.694000
     13 C3          2.2590   -0.4100   -3.4260 ca        1 EDM      0.511100
     14 C13         1.5960   -0.4830   -4.7340 ce        1 EDM     -0.259800
     15 C15         2.2130   -0.6860   -5.8990 c2        1 EDM     -0.151000
     16 H23         0.0500    1.5990   -0.6340 h1        1 EDM      0.048033
     17 H23A       -0.3650    0.9540    1.0200 h1        1 EDM      0.048033
     18 H23B       -0.6520   -0.0780   -0.4530 h1        1 EDM      0.048033
     19 H25         2.7440   -0.5710    1.5750 h1        1 EDM      0.048033
     20 H25A        2.5910    1.2440    1.4510 h1        1 EDM      0.048033
     21 H25B        1.2650    0.2600    2.2360 h1        1 EDM      0.048033
     22 H2          0.3820   -0.0040   -2.4040 ha        1 EDM      0.154000
     23 H29         7.5110   -1.3070   -3.3920 h1        1 EDM      0.124367
     24 H29A        5.9300   -2.0390   -3.7960 h1        1 EDM      0.124367
     25 H29B        6.2300   -0.3120   -4.1470 h1        1 EDM      0.124367
     26 H13         0.5000   -0.3530   -4.6890 ha        1 EDM      0.129000
     27 H15         3.2990   -0.8210   -5.9960 ha        1 EDM      0.124000
     28 H15A        1.6530   -0.7300   -6.8430 ha        1 EDM      0.124000
@<TRIPOS>BOND
     1    1    2 1   
     2    1   16 1   
     3    1   17 1   
     4    1   18 1   
     5    2    3 1   
     6    2    4 1   
     7    3   19 1   
     8    3   20 1   
     9    3   21 1   
    10    4    5 ar  
    11    4    6 ar  
    12    5   13 ar  
    13    5   22 1   
    14    6    7 ar  
    15    7    8 1   
    16    7   12 ar  
    17    8    9 1   
    18    8   10 2   
    19    8   11 2   
    20    9   23 1   
    21    9   24 1   
    22    9   25 1   
    23   12   13 ar  
    24   13   14 1   
    25   14   15 2   
    26   14   26 1   
    27   15   27 1   
    28   15   28 1   
@<TRIPOS>SUBSTRUCTURE
     1 EDM         1 TEMP              0 ****  ****    0 ROOT
