@<TRIPOS>MOLECULE
EDM
   28    24     1     0     0
SMALL
bcc


@<TRIPOS>ATOM
      1 C23        -2.0460    1.2150    2.5130 c3        1 EDM     -0.103000
      2 N21        -1.4050    0.0110    2.0200 n3        1 EDM     -0.230000
      3 C25        -1.5670   -1.2400    2.7340 c3        1 EDM     -0.103000
      4 C1         -0.6790    0.0390    0.7690 c2        1 EDM      0.128000
      5 C2         -1.3600    0.1290   -0.4160 c2        1 EDM     -0.212000
      6 N6          0.6730    0.0210    0.7710 n1        1 EDM     -0.180000
      7 C5          1.3620    0.0930   -0.4100 c1        1 EDM     -0.572000
      8 S17         3.1530    0.1680   -0.3960 s4        1 EDM      2.072800
      9 C29         3.8450   -1.4880   -0.4590 c2        1 EDM     -0.946000
     10 O27         3.6500    0.9840   -1.4710 o         1 EDM     -0.521400
     11 O19         3.6320    0.8880    0.7440 o         1 EDM     -0.521400
     12 N4          0.6780    0.1830   -1.6030 n1        1 EDM     -0.123000
     13 C3         -0.6660    0.2010   -1.6070 c1        1 EDM      0.064000
     14 C13        -1.4170    0.1780   -2.9220 c2        1 EDM     -0.160000
     15 C15        -1.3850    1.2630   -3.7410 c1        1 EDM     -0.140000
     16 H23        -1.3620    1.8580    2.7900 h1        1 EDM      0.085167
     17 H23A       -2.6130    0.9920    3.2790 h1        1 EDM      0.085167
     18 H23B       -2.5950    1.6080    1.8040 h1        1 EDM      0.085167
     19 H25        -1.9640   -1.0650    3.6160 h1        1 EDM      0.085167
     20 H25A       -2.1580   -1.8370    2.2190 h1        1 EDM      0.085167
     21 H25B       -0.6950   -1.6650    2.8480 h1        1 EDM      0.085167
     22 H2         -2.3250    0.1410   -0.4180 ha        1 EDM      0.159000
     23 H29         3.4440   -1.9820   -1.2040 ha        1 EDM      0.162667
     24 H29A        4.8190   -1.4330   -0.5890 ha        1 EDM      0.162667
     25 H29B        3.6540   -1.9550    0.3830 ha        1 EDM      0.162667
     26 H13        -1.9230   -0.6130   -3.1810 ha        1 EDM      0.129000
     27 H15        -0.8790    2.0540   -3.4810 DU        1 EDM      0.143000
     28 H15A       -1.8710    1.2500   -4.5910 ha        1 EDM      0.116000
@<TRIPOS>BOND
     1    1    2 1   
     2    1   16 1   
     3    1   17 1   
     4    1   18 1   
     5    2    3 1   
     6    2    4 1   
     7    3   19 1   
     8    3   20 1   
     9    3   21 1   
    10    4    5 1   
    11    4    6 1   
    12    5   13 1   
    13    5   22 1   
    14    7    8 1   
    15    7   12 1   
    16    8   10 1   
    17    8   11 1   
    18    9   23 1   
    19    9   24 1   
    20    9   25 1   
    21   13   14 1   
    22   14   15 1   
    23   14   26 1   
    24   15   28 1   
@<TRIPOS>SUBSTRUCTURE
     1 EDM         1 TEMP              0 ****  ****    0 ROOT
