@<TRIPOS>MOLECULE
EDN
   12    11     1     0     0
SMALL
bcc


@<TRIPOS>ATOM
      1 NAA         1.8680   -0.1670   -0.0380 n3        1 EDN     -0.916800
      2 CAB         0.5890    0.5000   -0.0100 c3        1 EDN      0.156800
      3 CAC        -0.5890   -0.5000   -0.0100 c3        1 EDN      0.156800
      4 NAD        -1.8680    0.1670   -0.0380 n3        1 EDN     -0.916800
      5 HAA1        2.6090    0.5030   -0.0110 hn        1 EDN      0.349300
      6 HAA2        1.9650   -0.8000    0.7300 hn        1 EDN      0.349300
      7 HAB1        0.4780    1.1830    0.8850 h1        1 EDN      0.030700
      8 HAB2        0.5200    1.1440   -0.9320 h1        1 EDN      0.030700
      9 HAC1       -0.5200   -1.1440   -0.9320 h1        1 EDN      0.030700
     10 HAC2       -0.4780   -1.1830    0.8850 h1        1 EDN      0.030700
     11 HAD1       -2.6090   -0.5030   -0.0110 hn        1 EDN      0.349300
     12 HAD2       -1.9650    0.8000    0.7300 hn        1 EDN      0.349300
@<TRIPOS>BOND
     1    1    2 1   
     2    1    5 1   
     3    1    6 1   
     4    2    3 1   
     5    2    7 1   
     6    2    8 1   
     7    3    4 1   
     8    3    9 1   
     9    3   10 1   
    10    4   11 1   
    11    4   12 1   
@<TRIPOS>SUBSTRUCTURE
     1 EDN         1 TEMP              0 ****  ****    0 ROOT
