@<TRIPOS>MOLECULE
EDN
   14    13     1     0     0
SMALL
bcc


@<TRIPOS>ATOM
      1 NAA        -0.0490   -0.0010   -0.0210 nz        1 EDN     -0.834600
      2 CAB         1.4370   -0.0000    0.0040 c3        1 EDN      0.073800
      3 CAC         2.0100    0.0000    1.4380 c3        1 EDN      0.073800
      4 NAD         3.4960    0.0010    1.4630 nz        1 EDN     -0.834600
      5 HAA1       -0.3700   -0.0020   -1.0050 hn        1 EDN      0.491133
      6 HAA2       -0.4300   -0.8380    0.4430 hn        1 EDN      0.491133
      7 HAB1        1.7880    0.9180   -0.5600 hx        1 EDN      0.142700
      8 HAB2        1.7890   -0.9190   -0.5600 hx        1 EDN      0.142700
      9 HAC1        1.6580    0.9180    2.0020 hx        1 EDN      0.142700
     10 HAC2        1.6590   -0.9190    2.0020 hx        1 EDN      0.142700
     11 HAD1        3.8780   -0.8360    0.9990 hn        1 EDN      0.491133
     12 HAD2        3.8170    0.0010    2.4470 hn        1 EDN      0.491133
     13 HAA3       -0.4300    0.8360    0.4430 hn        1 EDN      0.491133
     14 HAD3        3.8770    0.8380    0.9990 hn        1 EDN      0.491133
@<TRIPOS>BOND
     1    1    2 1   
     2    1    5 1   
     3    1    6 1   
     4    1   13 1   
     5    2    3 1   
     6    2    7 1   
     7    2    8 1   
     8    3    4 1   
     9    3    9 1   
    10    3   10 1   
    11    4   11 1   
    12    4   12 1   
    13    4   14 1   
@<TRIPOS>SUBSTRUCTURE
     1 EDN         1 TEMP              0 ****  ****    0 ROOT
