@<TRIPOS>MOLECULE
EDN
   12    11     1     0     0
SMALL
bcc


@<TRIPOS>ATOM
      1 NAA        -1.6780    0.0000   -0.7130 n3        1 EDN     -0.937800
      2 CAB        -0.2520    0.0000   -0.7130 c3        1 EDN      0.163800
      3 CAC         0.2520    0.0000    0.7130 c3        1 EDN      0.163800
      4 NAD         1.6780    0.0000    0.7130 n3        1 EDN     -0.937800
      5 HAA1       -1.9820    0.7450   -1.1430 hn        1 EDN      0.353800
      6 HAA2       -1.9820   -0.7450   -1.1430 hn        1 EDN      0.353800
      7 HAB1        0.0730   -0.7970   -1.1730 h1        1 EDN      0.033700
      8 HAB2        0.0730    0.7970   -1.1730 h1        1 EDN      0.033700
      9 HAC1       -0.0730    0.7970    1.1730 h1        1 EDN      0.033700
     10 HAC2       -0.0730   -0.7970    1.1730 h1        1 EDN      0.033700
     11 HAD1        1.9820    0.7450    1.1430 hn        1 EDN      0.353800
     12 HAD2        1.9820   -0.7450    1.1430 hn        1 EDN      0.353800
@<TRIPOS>BOND
     1    1    2 1   
     2    1    5 1   
     3    1    6 1   
     4    2    3 1   
     5    2    7 1   
     6    2    8 1   
     7    3    4 1   
     8    3    9 1   
     9    3   10 1   
    10    4   11 1   
    11    4   12 1   
@<TRIPOS>SUBSTRUCTURE
     1 EDN         1 TEMP              0 ****  ****    0 ROOT
