@<TRIPOS>MOLECULE
EDO
   10     9     1     0     0
SMALL
bcc


@<TRIPOS>ATOM
      1 C1         -0.1040   -0.1240   -0.1040 c3        1 EDO      0.109400
      2 O1          1.2910   -0.2710   -0.2660 oh        1 EDO     -0.605800
      3 C2         -0.4860   -0.0050    1.3690 c3        1 EDO      0.109400
      4 O2          0.1080    1.1930    1.8420 oh        1 EDO     -0.605800
      5 H11        -0.4650    0.7780   -0.6660 h1        1 EDO      0.042950
      6 H12        -0.5510   -1.0550   -0.5430 h1        1 EDO      0.042950
      7 HO1         1.7050    0.4860    0.1680 ho        1 EDO      0.410000
      8 H21        -0.0950   -0.8840    1.9460 h1        1 EDO      0.042950
      9 H22        -1.6010    0.0490    1.4780 h1        1 EDO      0.042950
     10 HO2        -0.0630    1.2360    2.7890 ho        1 EDO      0.410000
@<TRIPOS>BOND
     1    1    2 1   
     2    1    3 1   
     3    1    5 1   
     4    1    6 1   
     5    2    7 1   
     6    3    4 1   
     7    3    8 1   
     8    3    9 1   
     9    4   10 1   
@<TRIPOS>SUBSTRUCTURE
     1 EDO         1 TEMP              0 ****  ****    0 ROOT
