@<TRIPOS>MOLECULE
EDO
   10     9     1     0     0
SMALL
bcc


@<TRIPOS>ATOM
      1 C1         -0.0350   -0.2260    0.0110 c3        1 EDO      0.089400
      2 O1          1.2800    0.2900   -0.0360 oh        1 EDO     -0.601800
      3 C2         -0.6990    0.0930    1.3520 c3        1 EDO      0.089400
      4 O2          0.1470    0.8890    2.1580 oh        1 EDO     -0.601800
      5 H11        -0.6430    0.1840   -0.8370 h1        1 EDO      0.050200
      6 H12         0.0910   -1.3330   -0.1280 h1        1 EDO      0.050200
      7 HO1         1.2190    1.2440    0.1080 ho        1 EDO      0.412000
      8 H21        -0.9710   -0.8520    1.8920 h1        1 EDO      0.050200
      9 H22        -1.6220    0.7150    1.2120 h1        1 EDO      0.050200
     10 HO2         0.9710    0.3980    2.2810 ho        1 EDO      0.412000
@<TRIPOS>BOND
     1    1    2 1   
     2    1    3 1   
     3    1    5 1   
     4    1    6 1   
     5    2    7 1   
     6    3    4 1   
     7    3    8 1   
     8    3    9 1   
     9    4   10 1   
@<TRIPOS>SUBSTRUCTURE
     1 EDO         1 TEMP              0 ****  ****    0 ROOT
