@<TRIPOS>MOLECULE
EDP
   34    34     1     0     0
SMALL
bcc


@<TRIPOS>ATOM
      1 C1          0.0820    0.0460   -0.0560 c3        1 EDP     -0.167000
      2 C2          1.6020    0.0250    0.0820 c         1 EDP      0.702000
      3 N3          2.1770   -0.0470    1.3570 n         1 EDP     -0.557500
      4 C4          1.4680   -0.0390    2.5570 c         1 EDP      0.555400
      5 N5          0.0780    0.0310    2.4770 n         1 EDP     -0.557500
      6 C6         -0.6540    0.0680    1.2860 c         1 EDP      0.702000
      7 O7         -1.8910    0.1170    1.3570 o         1 EDP     -0.583500
      8 O8          2.3660    0.0780   -0.8940 o         1 EDP     -0.583500
      9 S9          2.2190   -0.1030    3.9690 s         1 EDP     -0.450400
     10 C12        -0.3100    1.3160   -0.8220 c3        1 EDP     -0.074400
     11 C13        -0.0650    2.5790   -0.0360 c3        1 EDP     -0.108100
     12 C14        -0.3940   -1.2270   -0.8000 c3        1 EDP     -0.049700
     13 C15         0.1670   -2.4660   -0.1310 c3        1 EDP     -0.108100
     14 C16        -0.0520   -1.1930   -2.2820 c3        1 EDP     -0.086400
     15 C17        -0.4730   -2.4610   -2.9980 c3        1 EDP     -0.078400
     16 C18        -0.3630   -2.3010   -4.4930 c3        1 EDP     -0.094100
     17 HN3         3.1770   -0.0770    1.4300 hn        1 EDP      0.365000
     18 HN5        -0.4190    0.0420    3.3490 hn        1 EDP      0.365000
     19 H12         0.2860    1.3500   -1.7740 hc        1 EDP      0.076200
     20 H12A       -1.3980    1.2380   -1.0860 hc        1 EDP      0.076200
     21 H13        -0.3440    3.4660   -0.6560 hc        1 EDP      0.045367
     22 H13A       -0.6810    2.5970    0.8960 hc        1 EDP      0.045367
     23 H13B        1.0120    2.6720    0.2440 hc        1 EDP      0.045367
     24 H14        -1.5200   -1.2450   -0.7040 hc        1 EDP      0.079700
     25 H15        -0.0110   -2.4370    0.9710 hc        1 EDP      0.045700
     26 H15A        1.2650   -2.5530   -0.3170 hc        1 EDP      0.045700
     27 H15B       -0.3340   -3.3790   -0.5360 hc        1 EDP      0.045700
     28 H16        -0.5790   -0.3240   -2.7600 hc        1 EDP      0.058200
     29 H16A        1.0510   -1.0340   -2.4140 hc        1 EDP      0.058200
     30 H17         0.1770   -3.3140   -2.6670 hc        1 EDP      0.040700
     31 H17A       -1.5290   -2.7190   -2.7220 hc        1 EDP      0.040700
     32 H18         0.6820   -2.0360   -4.7850 hc        1 EDP      0.035700
     33 H18A       -0.6410   -3.2550   -5.0040 hc        1 EDP      0.035700
     34 H18B       -1.0440   -1.4950   -4.8570 hc        1 EDP      0.035700
@<TRIPOS>BOND
     1    1    2 1   
     2    1    6 1   
     3    1   10 1   
     4    1   12 1   
     5    2    3 1   
     6    2    8 2   
     7    3    4 1   
     8    3   17 1   
     9    4    5 1   
    10    4    9 2   
    11    5    6 1   
    12    5   18 1   
    13    6    7 2   
    14   10   11 1   
    15   10   19 1   
    16   10   20 1   
    17   11   21 1   
    18   11   22 1   
    19   11   23 1   
    20   12   13 1   
    21   12   14 1   
    22   12   24 1   
    23   13   25 1   
    24   13   26 1   
    25   13   27 1   
    26   14   15 1   
    27   14   28 1   
    28   14   29 1   
    29   15   16 1   
    30   15   30 1   
    31   15   31 1   
    32   16   32 1   
    33   16   33 1   
    34   16   34 1   
@<TRIPOS>SUBSTRUCTURE
     1 EDP         1 TEMP              0 ****  ****    0 ROOT
