@<TRIPOS>MOLECULE
EDP
   34    34     1     0     0
SMALL
bcc


@<TRIPOS>ATOM
      1 C1          0.0860    0.0420   -0.0520 c3        1 EDP     -0.167000
      2 C2          1.6060    0.0090    0.0870 c         1 EDP      0.702000
      3 N3          2.1790   -0.0760    1.3610 n         1 EDP     -0.557500
      4 C4          1.4700   -0.0720    2.5610 c         1 EDP      0.555400
      5 N5          0.0800    0.0080    2.4810 n         1 EDP     -0.557500
      6 C6         -0.6510    0.0600    1.2900 c         1 EDP      0.702000
      7 O7         -1.8880    0.1170    1.3610 o         1 EDP     -0.583500
      8 O8          2.3700    0.0630   -0.8880 o         1 EDP     -0.583500
      9 S9          2.2190   -0.1520    3.9730 s         1 EDP     -0.450400
     10 C12        -0.2960    1.3200   -0.8090 c3        1 EDP     -0.074400
     11 C13        -0.0430    2.5760   -0.0150 c3        1 EDP     -0.108100
     12 C14        -0.3990   -1.2220   -0.8050 c3        1 EDP     -0.049700
     13 C15         0.1530   -2.4700   -0.1450 c3        1 EDP     -0.108100
     14 C16        -0.0570   -1.1800   -2.2860 c3        1 EDP     -0.086400
     15 C17        -0.4850   -2.4390   -3.0110 c3        1 EDP     -0.078400
     16 C18        -0.3740   -2.2700   -4.5050 c3        1 EDP     -0.094100
     17 HN3         3.1790   -0.1150    1.4350 hn        1 EDP      0.365000
     18 HN5        -0.4170    0.0170    3.3520 hn        1 EDP      0.365000
     19 H12        -1.3850    1.2530   -1.0740 hc        1 EDP      0.076200
     20 H12A        0.3000    1.3570   -1.7600 hc        1 EDP      0.076200
     21 H13        -0.6590    2.5920    0.9180 hc        1 EDP      0.045367
     22 H13A        1.0360    2.6590    0.2670 hc        1 EDP      0.045367
     23 H13B       -0.3140    3.4690   -0.6280 hc        1 EDP      0.045367
     24 H14        -1.5250   -1.2330   -0.7090 hc        1 EDP      0.079700
     25 H15        -0.0250   -2.4470    0.9580 hc        1 EDP      0.045700
     26 H15A       -0.3540   -3.3760   -0.5570 hc        1 EDP      0.045700
     27 H15B        1.2510   -2.5630   -0.3320 hc        1 EDP      0.045700
     28 H16         1.0480   -1.0270   -2.4180 hc        1 EDP      0.058200
     29 H16A       -0.5780   -0.3040   -2.7580 hc        1 EDP      0.058200
     30 H17        -1.5440   -2.6930   -2.7380 hc        1 EDP      0.040700
     31 H17A        0.1590   -3.3000   -2.6870 hc        1 EDP      0.040700
     32 H18        -0.6590   -3.2180   -5.0230 hc        1 EDP      0.035700
     33 H18A       -1.0500   -1.4560   -4.8640 hc        1 EDP      0.035700
     34 H18B        0.6720   -2.0090   -4.7950 hc        1 EDP      0.035700
@<TRIPOS>BOND
     1    1    2 1   
     2    1    6 1   
     3    1   10 1   
     4    1   12 1   
     5    2    3 1   
     6    2    8 2   
     7    3    4 1   
     8    3   17 1   
     9    4    5 1   
    10    4    9 2   
    11    5    6 1   
    12    5   18 1   
    13    6    7 2   
    14   10   11 1   
    15   10   19 1   
    16   10   20 1   
    17   11   21 1   
    18   11   22 1   
    19   11   23 1   
    20   12   13 1   
    21   12   14 1   
    22   12   24 1   
    23   13   25 1   
    24   13   26 1   
    25   13   27 1   
    26   14   15 1   
    27   14   28 1   
    28   14   29 1   
    29   15   16 1   
    30   15   30 1   
    31   15   31 1   
    32   16   32 1   
    33   16   33 1   
    34   16   34 1   
@<TRIPOS>SUBSTRUCTURE
     1 EDP         1 TEMP              0 ****  ****    0 ROOT
