@<TRIPOS>MOLECULE
EDP
   34    34     1     0     0
SMALL
bcc


@<TRIPOS>ATOM
      1 C1          0.0910    0.0340   -0.0450 c3        1 EDP     -0.167000
      2 C2          1.6100   -0.0170    0.0960 c         1 EDP      0.702000
      3 N3          2.1800   -0.1260    1.3700 ns        1 EDP     -0.557500
      4 C4          1.4690   -0.1290    2.5690 c         1 EDP      0.555400
      5 N5          0.0800   -0.0320    2.4880 ns        1 EDP     -0.557500
      6 C6         -0.6480    0.0440    1.2960 c         1 EDP      0.702000
      7 O7         -1.8840    0.1140    1.3660 o         1 EDP     -0.583500
      8 O8          2.3780    0.0410   -0.8770 o         1 EDP     -0.583500
      9 S9          2.2140   -0.2360    3.9810 s         1 EDP     -0.450400
     10 C12        -0.2750    1.3270   -0.7860 c3        1 EDP     -0.074400
     11 C13        -0.0090    2.5690    0.0260 c3        1 EDP     -0.108100
     12 C14        -0.4060   -1.2140   -0.8150 c3        1 EDP     -0.049700
     13 C15         0.1300   -2.4760   -0.1700 c3        1 EDP     -0.108100
     14 C16        -0.0610   -1.1560   -2.2950 c3        1 EDP     -0.086400
     15 C17        -0.5020   -2.4010   -3.0370 c3        1 EDP     -0.078400
     16 C18        -0.3860   -2.2140   -4.5290 c3        1 EDP     -0.094100
     17 HN3         3.1790   -0.1760    1.4460 hn        1 EDP      0.365000
     18 HN5        -0.4190   -0.0290    3.3580 hn        1 EDP      0.365000
     19 H12         0.3240    1.3690   -1.7350 hc        1 EDP      0.076200
     20 H12A       -1.3640    1.2750   -1.0530 hc        1 EDP      0.076200
     21 H13        -0.6270    2.5800    0.9570 hc        1 EDP      0.045367
     22 H13A        1.0690    2.6360    0.3100 hc        1 EDP      0.045367
     23 H13B       -0.2690    3.4730   -0.5770 hc        1 EDP      0.045367
     24 H14        -1.5320   -1.2130   -0.7210 hc        1 EDP      0.079700
     25 H15        -0.0500   -2.4660    0.9320 hc        1 EDP      0.045700
     26 H15A       -0.3860   -3.3710   -0.5950 hc        1 EDP      0.045700
     27 H15B        1.2270   -2.5790   -0.3560 hc        1 EDP      0.045700
     28 H16        -0.5710   -0.2690   -2.7560 hc        1 EDP      0.058200
     29 H16A        1.0460   -1.0140   -2.4220 hc        1 EDP      0.058200
     30 H17         0.1310   -3.2730   -2.7230 hc        1 EDP      0.040700
     31 H17A       -1.5640   -2.6460   -2.7690 hc        1 EDP      0.040700
     32 H18        -0.6810   -3.1520   -5.0590 hc        1 EDP      0.035700
     33 H18A        0.6640   -1.9610   -4.8130 hc        1 EDP      0.035700
     34 H18B       -1.0520   -1.3880   -4.8780 hc        1 EDP      0.035700
@<TRIPOS>BOND
     1    1    2 1   
     2    1    6 1   
     3    1   10 1   
     4    1   12 1   
     5    2    3 1   
     6    2    8 2   
     7    3    4 1   
     8    3   17 1   
     9    4    5 1   
    10    4    9 2   
    11    5    6 1   
    12    5   18 1   
    13    6    7 2   
    14   10   11 1   
    15   10   19 1   
    16   10   20 1   
    17   11   21 1   
    18   11   22 1   
    19   11   23 1   
    20   12   13 1   
    21   12   14 1   
    22   12   24 1   
    23   13   25 1   
    24   13   26 1   
    25   13   27 1   
    26   14   15 1   
    27   14   28 1   
    28   14   29 1   
    29   15   16 1   
    30   15   30 1   
    31   15   31 1   
    32   16   32 1   
    33   16   33 1   
    34   16   34 1   
@<TRIPOS>SUBSTRUCTURE
     1 EDP         1 TEMP              0 ****  ****    0 ROOT
