@<TRIPOS>MOLECULE
EDP
   34    34     1     0     0
SMALL
bcc


@<TRIPOS>ATOM
      1 C1          0.0900   -0.8350    0.0450 c3        1 EDP     -0.168000
      2 C2          1.6160   -0.8940    0.0010 c         1 EDP      0.702000
      3 N3          2.3560   -1.0020    1.2060 n         1 EDP     -0.557000
      4 C4          1.6880   -1.2840    2.4270 c         1 EDP      0.555400
      5 N5          0.3310   -0.9000    2.5990 n         1 EDP     -0.557000
      6 C6         -0.4980   -0.6960    1.4650 c         1 EDP      0.702000
      7 O7         -1.6740   -0.4280    1.6120 o         1 EDP     -0.583000
      8 O8          2.1970   -0.8000   -1.0620 o         1 EDP     -0.583000
      9 S9          2.5170   -2.0110    3.6860 s         1 EDP     -0.451400
     10 C12        -0.4960   -2.0960   -0.6350 c3        1 EDP     -0.073400
     11 C13        -0.5940   -3.2160    0.3790 c3        1 EDP     -0.108100
     12 C14        -0.4400    0.2470   -0.8720 c3        1 EDP     -0.050700
     13 C15         0.2940    0.1920   -2.1930 c3        1 EDP     -0.103100
     14 C16        -0.2260    1.6010   -0.2320 c3        1 EDP     -0.089400
     15 C17        -1.2090    2.5950   -0.8120 c3        1 EDP     -0.077400
     16 C18        -0.8210    3.9950   -0.3880 c3        1 EDP     -0.095100
     17 HN3         3.2630   -0.9170    1.1920 hn        1 EDP      0.365000
     18 HN5        -0.0170   -0.8180    3.4380 hn        1 EDP      0.365000
     19 H12         0.0870   -2.3710   -1.3690 hc        1 EDP      0.075700
     20 H12A       -1.3870   -1.8940   -0.9840 hc        1 EDP      0.075700
     21 H13        -0.8030   -4.0550   -0.0810 hc        1 EDP      0.045033
     22 H13A       -1.3020   -3.0110    1.0240 hc        1 EDP      0.045033
     23 H13B        0.2610   -3.3060    0.8500 hc        1 EDP      0.045033
     24 H14        -1.3940    0.1060   -1.0240 hc        1 EDP      0.080700
     25 H15        -0.3220    0.4230   -2.9190 hc        1 EDP      0.050367
     26 H15A        1.0370    0.8310   -2.1800 hc        1 EDP      0.050367
     27 H15B        0.6430   -0.7120   -2.3350 hc        1 EDP      0.050367
     28 H16         0.6870    1.9050   -0.4080 hc        1 EDP      0.045700
     29 H16A       -0.3650    1.5310    0.7340 hc        1 EDP      0.045700
     30 H17        -2.1080    2.3930   -0.4860 hc        1 EDP      0.044200
     31 H17A       -1.1950    2.5350   -1.7890 hc        1 EDP      0.044200
     32 H18        -0.8630    4.0630    0.5890 hc        1 EDP      0.036367
     33 H18A       -1.4410    4.6410   -0.7870 hc        1 EDP      0.036367
     34 H18B        0.0910    4.1870   -0.6900 hc        1 EDP      0.036367
@<TRIPOS>BOND
     1    1    2 1   
     2    1    6 1   
     3    1   10 1   
     4    1   12 1   
     5    2    3 1   
     6    2    8 2   
     7    3    4 1   
     8    3   17 1   
     9    4    5 1   
    10    4    9 2   
    11    5    6 1   
    12    5   18 1   
    13    6    7 2   
    14   10   11 1   
    15   10   19 1   
    16   10   20 1   
    17   11   21 1   
    18   11   22 1   
    19   11   23 1   
    20   12   13 1   
    21   12   14 1   
    22   12   24 1   
    23   13   25 1   
    24   13   26 1   
    25   13   27 1   
    26   14   15 1   
    27   14   28 1   
    28   14   29 1   
    29   15   16 1   
    30   15   30 1   
    31   15   31 1   
    32   16   32 1   
    33   16   33 1   
    34   16   34 1   
@<TRIPOS>SUBSTRUCTURE
     1 EDP         1 TEMP              0 ****  ****    0 ROOT
