@<TRIPOS>MOLECULE
EDP
   34    34     1     0     0
SMALL
bcc


@<TRIPOS>ATOM
      1 C1         -0.3010   -0.5330    0.2010 c3        1 EDP     -0.167000
      2 C2          0.2510    0.7080    0.8980 c         1 EDP      0.702000
      3 N3          1.5540    1.1340    0.6160 n         1 EDP     -0.557500
      4 C4          2.4490    0.4750   -0.2260 c         1 EDP      0.555400
      5 N5          2.0010   -0.6920   -0.8450 n         1 EDP     -0.557500
      6 C6          0.7190   -1.2320   -0.7010 c         1 EDP      0.702000
      7 O7          0.4470   -2.2720   -1.3200 o         1 EDP     -0.583500
      8 O8         -0.4060    1.3630    1.7230 o         1 EDP     -0.583500
      9 S9          3.9290    1.0310   -0.4700 s         1 EDP     -0.450400
     10 C12        -0.7310   -1.5350    1.2800 c3        1 EDP     -0.074400
     11 C13         0.4310   -2.1150    2.0440 c3        1 EDP     -0.108100
     12 C14        -1.4940   -0.1370   -0.7050 c3        1 EDP     -0.049700
     13 C15        -1.0950    0.9910   -1.6350 c3        1 EDP     -0.108100
     14 C16        -2.7370    0.2170    0.0970 c3        1 EDP     -0.086400
     15 C17        -3.8870    0.6540   -0.7880 c3        1 EDP     -0.078400
     16 C18        -5.1700    0.7480   -0.0030 c3        1 EDP     -0.094100
     17 HN3         1.8960    1.9610    1.0690 hn        1 EDP      0.365000
     18 HN5         2.6570   -1.1600   -1.4420 hn        1 EDP      0.365000
     19 H12        -1.4190   -1.0070    1.9950 hc        1 EDP      0.076200
     20 H12A       -1.3040   -2.3590    0.7770 hc        1 EDP      0.076200
     21 H13         1.1110   -2.6880    1.3670 hc        1 EDP      0.045367
     22 H13A        1.0200   -1.3100    2.5460 hc        1 EDP      0.045367
     23 H13B        0.0520   -2.8140    2.8290 hc        1 EDP      0.045367
     24 H14        -1.7310   -1.0490   -1.3280 hc        1 EDP      0.079700
     25 H15        -0.9790    1.9470   -1.0680 hc        1 EDP      0.045700
     26 H15A       -0.1320    0.7580   -2.1510 hc        1 EDP      0.045700
     27 H15B       -1.8790    1.1370   -2.4180 hc        1 EDP      0.045700
     28 H16        -3.0630   -0.6830    0.6840 hc        1 EDP      0.058200
     29 H16A       -2.4970    1.0320    0.8320 hc        1 EDP      0.058200
     30 H17        -3.6550    1.6540   -1.2420 hc        1 EDP      0.040700
     31 H17A       -4.0130   -0.0750   -1.6330 hc        1 EDP      0.040700
     32 H18        -5.0600    1.4630    0.8470 hc        1 EDP      0.035700
     33 H18A       -5.9990    1.1050   -0.6610 hc        1 EDP      0.035700
     34 H18B       -5.4550   -0.2490    0.4120 hc        1 EDP      0.035700
@<TRIPOS>BOND
     1    1    2 1   
     2    1    6 1   
     3    1   10 1   
     4    1   12 1   
     5    2    3 1   
     6    2    8 2   
     7    3    4 1   
     8    3   17 1   
     9    4    5 1   
    10    4    9 2   
    11    5    6 1   
    12    5   18 1   
    13    6    7 2   
    14   10   11 1   
    15   10   19 1   
    16   10   20 1   
    17   11   21 1   
    18   11   22 1   
    19   11   23 1   
    20   12   13 1   
    21   12   14 1   
    22   12   24 1   
    23   13   25 1   
    24   13   26 1   
    25   13   27 1   
    26   14   15 1   
    27   14   28 1   
    28   14   29 1   
    29   15   16 1   
    30   15   30 1   
    31   15   31 1   
    32   16   32 1   
    33   16   33 1   
    34   16   34 1   
@<TRIPOS>SUBSTRUCTURE
     1 EDP         1 TEMP              0 ****  ****    0 ROOT
