@<TRIPOS>MOLECULE
EDR
   28    28     1     0     0
SMALL
bcc


@<TRIPOS>ATOM
      1 C1         -0.0420    0.0610    0.0450 ca        1 EDR     -0.149000
      2 C2          1.3610    0.0470    0.0230 ca        1 EDR      0.011600
      3 C3          2.0860    0.0750    1.2290 ca        1 EDR     -0.164000
      4 C4          1.3860    0.1170    2.4450 ca        1 EDR      0.164100
      5 C5         -0.0190    0.1310    2.4730 ca        1 EDR     -0.167000
      6 C6         -0.7130    0.1030    1.2710 ca        1 EDR     -0.064000
      7 O4          2.1640    0.1420    3.5710 oh        1 EDR     -0.474100
      8 N2          2.1290    0.0030   -1.2520 n4        1 EDR     -0.479200
      9 C7          2.9780   -1.2300   -1.2590 c3        1 EDR      0.093100
     10 C8          3.0030    1.2150   -1.3290 c3        1 EDR      0.093100
     11 C9          1.2040   -0.0220   -2.4470 c3        1 EDR      0.119800
     12 C10         1.8840   -0.0670   -3.7990 c3        1 EDR     -0.131100
     13 H1         -0.6570    0.0400   -0.8670 ha        1 EDR      0.156000
     14 H3          3.1860    0.0650    1.2720 ha        1 EDR      0.168000
     15 H5         -0.5570    0.1650    3.4340 ha        1 EDR      0.170000
     16 H6         -1.8170    0.1140    1.2760 ha        1 EDR      0.170000
     17 HO4         1.5840    0.1710    4.3500 ho        1 EDR      0.448000
     18 H71         2.3130   -2.1340   -1.2480 hx        1 EDR      0.100700
     19 H72         3.6180   -1.2340   -2.1800 hx        1 EDR      0.100700
     20 H73         3.6380   -1.2420   -0.3510 hx        1 EDR      0.100700
     21 H81         3.6640    1.2660   -0.4240 hx        1 EDR      0.100700
     22 H82         2.3570    2.1310   -1.3710 hx        1 EDR      0.100700
     23 H83         3.6420    1.1530   -2.2490 hx        1 EDR      0.100700
     24 H91         0.5490   -0.9350   -2.3370 hx        1 EDR      0.100700
     25 H92         0.5670    0.9070   -2.3890 hx        1 EDR      0.100700
     26 H101        1.0760   -0.0820   -4.5770 hc        1 EDR      0.076033
     27 H102        2.5190    0.8330   -3.9850 hc        1 EDR      0.076033
     28 H103        2.5030   -0.9860   -3.9330 hc        1 EDR      0.076033
@<TRIPOS>BOND
     1    1    2 ar  
     2    1    6 ar  
     3    1   13 1   
     4    2    3 ar  
     5    2    8 1   
     6    3    4 ar  
     7    3   14 1   
     8    4    5 ar  
     9    4    7 1   
    10    5    6 ar  
    11    5   15 1   
    12    6   16 1   
    13    7   17 1   
    14    8    9 1   
    15    8   10 1   
    16    8   11 1   
    17    9   18 1   
    18    9   19 1   
    19    9   20 1   
    20   10   21 1   
    21   10   22 1   
    22   10   23 1   
    23   11   12 1   
    24   11   24 1   
    25   11   25 1   
    26   12   26 1   
    27   12   27 1   
    28   12   28 1   
@<TRIPOS>SUBSTRUCTURE
     1 EDR         1 TEMP              0 ****  ****    0 ROOT
