@<TRIPOS>MOLECULE
EDR
   28    28     1     0     0
SMALL
bcc


@<TRIPOS>ATOM
      1 C1         -0.0410    0.0440    0.0490 ca        1 EDR     -0.149000
      2 C2          1.3620    0.0460    0.0230 ca        1 EDR      0.011600
      3 C3          2.0890    0.0850    1.2280 ca        1 EDR     -0.164000
      4 C4          1.3910    0.1230    2.4460 ca        1 EDR      0.164100
      5 C5         -0.0130    0.1210    2.4760 ca        1 EDR     -0.167000
      6 C6         -0.7100    0.0820    1.2760 ca        1 EDR     -0.064000
      7 O4          2.1710    0.1600    3.5690 oh        1 EDR     -0.474100
      8 N2          2.1280    0.0060   -1.2530 n4        1 EDR     -0.479200
      9 C7          2.9910   -1.2160   -1.2580 c3        1 EDR      0.093100
     10 C8          2.9870    1.2290   -1.3360 c3        1 EDR      0.093100
     11 C9          1.2010   -0.0330   -2.4460 c3        1 EDR      0.119800
     12 C10         1.8780   -0.0760   -3.7990 c3        1 EDR     -0.131100
     13 H1         -0.6580    0.0140   -0.8620 ha        1 EDR      0.156000
     14 H3          3.1890    0.0880    1.2690 ha        1 EDR      0.168000
     15 H5         -0.5500    0.1510    3.4380 ha        1 EDR      0.170000
     16 H6         -1.8140    0.0810    1.2830 ha        1 EDR      0.170000
     17 HO4         1.5930    0.1840    4.3500 ho        1 EDR      0.448000
     18 H71         2.3380   -2.1280   -1.2430 hx        1 EDR      0.100700
     19 H72         3.6290   -1.2150   -2.1810 hx        1 EDR      0.100700
     20 H73         3.6540   -1.2180   -0.3520 hx        1 EDR      0.100700
     21 H81         3.6490    1.2910   -0.4320 hx        1 EDR      0.100700
     22 H82         2.3300    2.1380   -1.3790 hx        1 EDR      0.100700
     23 H83         3.6250    1.1720   -2.2570 hx        1 EDR      0.100700
     24 H91         0.5560   -0.9530   -2.3310 hx        1 EDR      0.100700
     25 H92         0.5530    0.8890   -2.3900 hx        1 EDR      0.100700
     26 H101        1.0690   -0.1020   -4.5750 hc        1 EDR      0.076033
     27 H102        2.5040    0.8300   -3.9900 hc        1 EDR      0.076033
     28 H103        2.5060   -0.9890   -3.9310 hc        1 EDR      0.076033
@<TRIPOS>BOND
     1    1    2 ar  
     2    1    6 ar  
     3    1   13 1   
     4    2    3 ar  
     5    2    8 1   
     6    3    4 ar  
     7    3   14 1   
     8    4    5 ar  
     9    4    7 1   
    10    5    6 ar  
    11    5   15 1   
    12    6   16 1   
    13    7   17 1   
    14    8    9 1   
    15    8   10 1   
    16    8   11 1   
    17    9   18 1   
    18    9   19 1   
    19    9   20 1   
    20   10   21 1   
    21   10   22 1   
    22   10   23 1   
    23   11   12 1   
    24   11   24 1   
    25   11   25 1   
    26   12   26 1   
    27   12   27 1   
    28   12   28 1   
@<TRIPOS>SUBSTRUCTURE
     1 EDR         1 TEMP              0 ****  ****    0 ROOT
