@<TRIPOS>MOLECULE
EDR
   28    28     1     0     0
SMALL
bcc


@<TRIPOS>ATOM
      1 C1         -0.3250    1.4830   -0.0700 ca        1 EDR     -0.149000
      2 C2          0.0000    0.1180   -0.0470 ca        1 EDR      0.011600
      3 C3         -1.0200   -0.8500   -0.0650 ca        1 EDR     -0.164000
      4 C4         -2.3600   -0.4300   -0.1050 ca        1 EDR      0.164100
      5 C5         -2.6900    0.9350   -0.1280 ca        1 EDR     -0.167000
      6 C6         -1.6670    1.8730   -0.1100 ca        1 EDR     -0.064000
      7 O4         -3.2910   -1.4320   -0.1200 oh        1 EDR     -0.474100
      8 N2          1.4110   -0.3560   -0.0040 n4        1 EDR     -0.479200
      9 C7          1.6710   -1.2000   -1.2120 c3        1 EDR      0.093100
     10 C8          1.6050   -1.1750    1.2330 c3        1 EDR      0.093100
     11 C9          2.3780    0.8050    0.0100 c3        1 EDR      0.119800
     12 C10         3.8450    0.4340    0.0530 c3        1 EDR     -0.131100
     13 H1          0.4330    2.2810   -0.0580 ha        1 EDR      0.156000
     14 H3         -0.8250   -1.9340   -0.0490 ha        1 EDR      0.168000
     15 H5         -3.7450    1.2540   -0.1600 ha        1 EDR      0.170000
     16 H6         -1.9100    2.9500   -0.1280 ha        1 EDR      0.170000
     17 HO4        -4.1770   -1.0350   -0.1480 ho        1 EDR      0.448000
     18 H71         2.7080   -1.6250   -1.1510 hx        1 EDR      0.100700
     19 H72         0.9300   -2.0420   -1.2560 hx        1 EDR      0.100700
     20 H73         1.5690   -0.5670   -2.1330 hx        1 EDR      0.100700
     21 H81         1.4540   -0.5230    2.1330 hx        1 EDR      0.100700
     22 H82         0.8620   -2.0160    1.2530 hx        1 EDR      0.100700
     23 H83         2.6430   -1.6010    1.2360 hx        1 EDR      0.100700
     24 H91         2.1320    1.4280    0.9180 hx        1 EDR      0.100700
     25 H92         2.1810    1.4090   -0.9230 hx        1 EDR      0.100700
     26 H101        4.1120   -0.1350    0.9760 hc        1 EDR      0.076033
     27 H102        4.1620   -0.1530   -0.8430 hc        1 EDR      0.076033
     28 H103        4.4300    1.3910    0.0590 hc        1 EDR      0.076033
@<TRIPOS>BOND
     1    1    2 ar  
     2    1    6 ar  
     3    1   13 1   
     4    2    3 ar  
     5    2    8 1   
     6    3    4 ar  
     7    3   14 1   
     8    4    5 ar  
     9    4    7 1   
    10    5    6 ar  
    11    5   15 1   
    12    6   16 1   
    13    7   17 1   
    14    8    9 1   
    15    8   10 1   
    16    8   11 1   
    17    9   18 1   
    18    9   19 1   
    19    9   20 1   
    20   10   21 1   
    21   10   22 1   
    22   10   23 1   
    23   11   12 1   
    24   11   24 1   
    25   11   25 1   
    26   12   26 1   
    27   12   27 1   
    28   12   28 1   
@<TRIPOS>SUBSTRUCTURE
     1 EDR         1 TEMP              0 ****  ****    0 ROOT
