@<TRIPOS>MOLECULE
EDR
   28    28     1     0     0
SMALL
bcc


@<TRIPOS>ATOM
      1 C1         -0.0420    0.0430    0.0470 ca        1 EDR     -0.149000
      2 C2          1.3620    0.0460    0.0230 ca        1 EDR      0.011600
      3 C3          2.0870    0.0860    1.2280 ca        1 EDR     -0.164000
      4 C4          1.3890    0.1240    2.4450 ca        1 EDR      0.164100
      5 C5         -0.0160    0.1220    2.4750 ca        1 EDR     -0.167000
      6 C6         -0.7110    0.0810    1.2740 ca        1 EDR     -0.064000
      7 O4          2.1670    0.1630    3.5700 oh        1 EDR     -0.474100
      8 N2          2.1290    0.0060   -1.2520 n4        1 EDR     -0.479200
      9 C7          2.9920   -1.2160   -1.2560 c3        1 EDR      0.093100
     10 C8          2.9880    1.2290   -1.3350 c3        1 EDR      0.093100
     11 C9          1.2030   -0.0340   -2.4460 c3        1 EDR      0.119800
     12 C10         1.8820   -0.0760   -3.7990 c3        1 EDR     -0.131100
     13 H1         -0.6580    0.0120   -0.8640 ha        1 EDR      0.156000
     14 H3          3.1880    0.0900    1.2700 ha        1 EDR      0.168000
     15 H5         -0.5540    0.1520    3.4360 ha        1 EDR      0.170000
     16 H6         -1.8150    0.0790    1.2800 ha        1 EDR      0.170000
     17 HO4         1.5890    0.1870    4.3500 ho        1 EDR      0.448000
     18 H71         3.6540   -1.2180   -0.3490 hx        1 EDR      0.100700
     19 H72         2.3390   -2.1280   -1.2420 hx        1 EDR      0.100700
     20 H73         3.6310   -1.2160   -2.1780 hx        1 EDR      0.100700
     21 H81         2.3310    2.1370   -1.3790 hx        1 EDR      0.100700
     22 H82         3.6270    1.1710   -2.2550 hx        1 EDR      0.100700
     23 H83         3.6490    1.2910   -0.4300 hx        1 EDR      0.100700
     24 H91         0.5540    0.8880   -2.3910 hx        1 EDR      0.100700
     25 H92         0.5580   -0.9540   -2.3320 hx        1 EDR      0.100700
     26 H101        1.0730   -0.1030   -4.5750 hc        1 EDR      0.076033
     27 H102        2.5060    0.8310   -3.9890 hc        1 EDR      0.076033
     28 H103        2.5110   -0.9880   -3.9310 hc        1 EDR      0.076033
@<TRIPOS>BOND
     1    1    2 ar  
     2    1    6 ar  
     3    1   13 1   
     4    2    3 ar  
     5    2    8 1   
     6    3    4 ar  
     7    3   14 1   
     8    4    5 ar  
     9    4    7 1   
    10    5    6 ar  
    11    5   15 1   
    12    6   16 1   
    13    7   17 1   
    14    8    9 1   
    15    8   10 1   
    16    8   11 1   
    17    9   18 1   
    18    9   19 1   
    19    9   20 1   
    20   10   21 1   
    21   10   22 1   
    22   10   23 1   
    23   11   12 1   
    24   11   24 1   
    25   11   25 1   
    26   12   26 1   
    27   12   27 1   
    28   12   28 1   
@<TRIPOS>SUBSTRUCTURE
     1 EDR         1 TEMP              0 ****  ****    0 ROOT
