@<TRIPOS>MOLECULE
EDT
   32    31     1     0     0
SMALL
bcc


@<TRIPOS>ATOM
      1 O20         0.7380    1.6530   -0.3360 o         1 EDT     -0.891800
      2 C5          0.9900    0.4080   -0.3020 c         1 EDT      0.909100
      3 O19         0.2890   -0.3790    0.4090 o         1 EDT     -0.891800
      4 C4          2.0530   -0.1910   -1.2490 c3        1 EDT      0.072800
      5 N3          3.4740   -0.0610   -0.9320 n3        1 EDT     -0.696600
      6 C2          3.7530    1.0870   -0.0790 c3        1 EDT      0.072800
      7 C1          5.1780    1.2520    0.4930 c         1 EDT      0.909100
      8 O18         5.3690    1.0140    1.7290 o         1 EDT     -0.891800
      9 O17         6.1010    1.7470   -0.2240 o         1 EDT     -0.891800
     10 C6          4.2990   -0.0770   -2.1460 c3        1 EDT      0.161800
     11 C7          4.1470   -1.3550   -3.0140 c3        1 EDT      0.161800
     12 N8          4.8790   -1.3210   -4.2860 n3        1 EDT     -0.696600
     13 C9          4.8240   -2.5900   -5.0000 c3        1 EDT      0.072800
     14 C10         5.4130   -3.8440   -4.3180 c         1 EDT      0.909100
     15 O16         4.7400   -4.4750   -3.4470 o         1 EDT     -0.891800
     16 O15         6.5190   -4.3080   -4.7480 o         1 EDT     -0.891800
     17 C11         4.4570   -0.1930   -5.1150 c3        1 EDT      0.072800
     18 C12         4.5690   -0.2780   -6.6530 c         1 EDT      0.909100
     19 O13         5.4700    0.4020   -7.2410 o         1 EDT     -0.891800
     20 O14         3.6950   -0.9130   -7.3210 o         1 EDT     -0.891800
     21 H041        1.8210    0.2490   -2.2660 h1        1 EDT      0.016950
     22 H042        1.8580   -1.3000   -1.3050 h1        1 EDT      0.016950
     23 H021        3.0580    1.0020    0.8060 h1        1 EDT      0.016950
     24 H022        3.5090    2.0560   -0.6090 h1        1 EDT      0.016950
     25 H061        5.3700    0.0120   -1.8100 h1        1 EDT      0.034700
     26 H062        4.0710    0.8260   -2.7880 h1        1 EDT      0.034700
     27 H071        4.5430   -2.2380   -2.4380 h1        1 EDT      0.034700
     28 H072        3.0470   -1.5390   -3.1980 h1        1 EDT      0.034700
     29 H091        5.4020   -2.4410   -5.9570 h1        1 EDT      0.016950
     30 H092        3.7610   -2.8520   -5.2830 h1        1 EDT      0.016950
     31 H111        3.3770    0.0770   -4.9150 h1        1 EDT      0.016950
     32 H112        5.0930    0.6770   -4.7850 h1        1 EDT      0.016950
@<TRIPOS>BOND
     1    1    2 1   
     2    2    3 1   
     3    2    4 1   
     4    4    5 1   
     5    4   21 1   
     6    4   22 1   
     7    5    6 1   
     8    5   10 1   
     9    6    7 1   
    10    6   23 1   
    11    6   24 1   
    12    7    8 1   
    13    7    9 1   
    14   10   11 1   
    15   10   25 1   
    16   10   26 1   
    17   11   12 1   
    18   11   27 1   
    19   11   28 1   
    20   12   13 1   
    21   12   17 1   
    22   13   14 1   
    23   13   29 1   
    24   13   30 1   
    25   14   15 1   
    26   14   16 1   
    27   17   18 1   
    28   17   31 1   
    29   17   32 1   
    30   18   19 1   
    31   18   20 1   
@<TRIPOS>SUBSTRUCTURE
     1 EDT         1 TEMP              0 ****  ****    0 ROOT
