@<TRIPOS>MOLECULE
EDT
   32    31     1     0     0
SMALL
bcc


@<TRIPOS>ATOM
      1 O20        -0.1100    0.2360    4.1610 o         1 EDT     -0.890550
      2 C5          1.0630   -0.0550    3.8400 c         1 EDT      0.909600
      3 O19         1.8830   -0.4210    4.7200 o         1 EDT     -0.890550
      4 C4          1.5130    0.1050    2.4130 c3        1 EDT      0.069300
      5 N3          0.7000   -0.7480    1.5450 n3        1 EDT     -0.689600
      6 C2          1.2400   -2.0820    1.5410 c3        1 EDT      0.069300
      7 C1          0.6230   -2.8900    2.6950 c         1 EDT      0.909600
      8 O18        -0.6380   -3.0350    2.7650 o         1 EDT     -0.890550
      9 O17         1.3750   -3.4890    3.5190 o         1 EDT     -0.890550
     10 C6          0.7090   -0.2140    0.1890 c3        1 EDT      0.163800
     11 C7         -0.7110    0.2230   -0.1990 c3        1 EDT      0.163800
     12 N8         -0.7030    0.7530   -1.5520 n3        1 EDT     -0.689600
     13 C9         -1.6140   -0.0320   -2.3900 c3        1 EDT      0.069300
     14 C10        -1.1440    0.0270   -3.8540 c         1 EDT      0.909600
     15 O16        -1.9680    0.2970   -4.7640 o         1 EDT     -0.890550
     16 O15         0.0420   -0.3340   -4.1570 o         1 EDT     -0.890550
     17 C11        -1.1300    2.1130   -1.5320 c3        1 EDT      0.069300
     18 C12        -0.5580    2.8310   -2.7050 c         1 EDT      0.909600
     19 O13         0.6620    2.7610   -2.9430 o         1 EDT     -0.890550
     20 O14        -1.2890    3.5660   -3.4040 o         1 EDT     -0.890550
     21 H041        2.4500   -0.1520    2.3370 h1        1 EDT      0.017950
     22 H042        1.4090    1.0400    2.1410 h1        1 EDT      0.017950
     23 H021        1.0250   -2.5240    0.6740 h1        1 EDT      0.017950
     24 H022        2.2060   -2.0400    1.6530 h1        1 EDT      0.017950
     25 H061        1.3110    0.5580    0.1460 h1        1 EDT      0.028700
     26 H062        1.0220   -0.9090   -0.4360 h1        1 EDT      0.028700
     27 H071       -1.0170    0.9080    0.4150 h1        1 EDT      0.028700
     28 H072       -1.3090   -0.5430   -0.1530 h1        1 EDT      0.028700
     29 H091       -1.6170   -0.9780   -2.0800 h1        1 EDT      0.017950
     30 H092       -2.5030    0.3300   -2.3230 h1        1 EDT      0.017950
     31 H111       -2.1060    2.1490   -1.5720 h1        1 EDT      0.017950
     32 H112       -0.8150    2.5480   -0.6880 h1        1 EDT      0.017950
@<TRIPOS>BOND
     1    1    2 1   
     2    2    3 1   
     3    2    4 1   
     4    4    5 1   
     5    4   21 1   
     6    4   22 1   
     7    5    6 1   
     8    5   10 1   
     9    6    7 1   
    10    6   23 1   
    11    6   24 1   
    12    7    8 1   
    13    7    9 1   
    14   10   11 1   
    15   10   25 1   
    16   10   26 1   
    17   11   12 1   
    18   11   27 1   
    19   11   28 1   
    20   12   13 1   
    21   12   17 1   
    22   13   14 1   
    23   13   29 1   
    24   13   30 1   
    25   14   15 1   
    26   14   16 1   
    27   17   18 1   
    28   17   31 1   
    29   17   32 1   
    30   18   19 1   
    31   18   20 1   
@<TRIPOS>SUBSTRUCTURE
     1 EDT         1 TEMP              0 ****  ****    0 ROOT
