@<TRIPOS>MOLECULE
EDT
   32    31     1     0     0
SMALL
bcc


@<TRIPOS>ATOM
      1 O20         0.0310   -2.5490    3.9700 o         1 EDT     -0.891800
      2 C5          1.0040   -1.9300    3.4380 c         1 EDT      0.909100
      3 O19         2.1550   -1.9350    3.9810 o         1 EDT     -0.891800
      4 C4          0.8440   -1.2940    2.0390 c3        1 EDT      0.072800
      5 N3          0.1590   -0.0120    1.8920 n3        1 EDT     -0.696600
      6 C2         -0.7800    0.2480    2.9750 c3        1 EDT      0.072800
      7 C1         -1.4420    1.6410    3.0590 c         1 EDT      0.909100
      8 O18        -1.0570    2.4440    3.9690 o         1 EDT     -0.891800
      9 O17        -2.4390    1.9200    2.3260 o         1 EDT     -0.891800
     10 C6         -0.4570    0.1190    0.5660 c3        1 EDT      0.161800
     11 C7          0.5350   -0.0010   -0.6230 c3        1 EDT      0.161800
     12 N8         -0.0960    0.0090   -1.9480 n3        1 EDT     -0.696600
     13 C9          0.8770    0.0380   -3.0330 c3        1 EDT      0.072800
     14 C10         1.8460    1.2380   -3.1220 c         1 EDT      0.909100
     15 O16         2.8810    1.2800   -2.3900 o         1 EDT     -0.891800
     16 O15         1.6580    2.1040   -4.0370 o         1 EDT     -0.891800
     17 C11        -1.0600   -1.0790   -2.0900 c3        1 EDT      0.072800
     18 C12        -1.3650   -1.6670   -3.4860 c         1 EDT      0.909100
     19 O13        -2.4850   -1.4060   -4.0290 o         1 EDT     -0.891800
     20 O14        -0.5640   -2.4980   -4.0150 o         1 EDT     -0.891800
     21 H041        1.8810   -1.1300    1.6300 h1        1 EDT      0.016950
     22 H042        0.3500   -2.0940    1.4090 h1        1 EDT      0.016950
     23 H021       -1.6230   -0.5040    2.9710 h1        1 EDT      0.016950
     24 H022       -0.2050    0.1070    3.9350 h1        1 EDT      0.016950
     25 H061       -1.2740   -0.6510    0.4350 h1        1 EDT      0.034700
     26 H062       -0.9450    1.1340    0.5350 h1        1 EDT      0.034700
     27 H071        1.2460    0.8730   -0.5960 h1        1 EDT      0.034700
     28 H072        1.1500   -0.9400   -0.4870 h1        1 EDT      0.034700
     29 H091        1.5220   -0.8900   -3.0250 h1        1 EDT      0.016950
     30 H092        0.2850    0.0300   -3.9920 h1        1 EDT      0.016950
     31 H111       -0.7660   -1.9690   -1.4560 h1        1 EDT      0.016950
     32 H112       -2.0310   -0.6760   -1.6830 h1        1 EDT      0.016950
@<TRIPOS>BOND
     1    1    2 1   
     2    2    3 1   
     3    2    4 1   
     4    4    5 1   
     5    4   21 1   
     6    4   22 1   
     7    5    6 1   
     8    5   10 1   
     9    6    7 1   
    10    6   23 1   
    11    6   24 1   
    12    7    8 1   
    13    7    9 1   
    14   10   11 1   
    15   10   25 1   
    16   10   26 1   
    17   11   12 1   
    18   11   27 1   
    19   11   28 1   
    20   12   13 1   
    21   12   17 1   
    22   13   14 1   
    23   13   29 1   
    24   13   30 1   
    25   14   15 1   
    26   14   16 1   
    27   17   18 1   
    28   17   31 1   
    29   17   32 1   
    30   18   19 1   
    31   18   20 1   
@<TRIPOS>SUBSTRUCTURE
     1 EDT         1 TEMP              0 ****  ****    0 ROOT
