@<TRIPOS>MOLECULE
EDU
   30    31     1     0     0
SMALL
bcc


@<TRIPOS>ATOM
      1 O01         0.0930   -1.3470    0.9790 oh        1 EDU     -0.588800
      2 C03         1.3670   -0.9290    0.5360 c3        1 EDU      0.110400
      3 C06         2.0660    0.0070    1.5180 c3        1 EDU      0.062100
      4 O08         1.8630   -0.4600    2.8590 os        1 EDU     -0.419600
      5 C09         3.5870    0.0960    1.2700 c3        1 EDU      0.126100
      6 O10         3.9890    1.4350    1.0400 oh        1 EDU     -0.591800
      7 C13         4.2430   -0.3630    2.5760 c3        1 EDU     -0.099400
      8 C16         3.0930   -0.9200    3.4370 c3        1 EDU      0.311500
      9 N18         3.0750   -2.3740    3.6180 n         1 EDU     -0.378000
     10 C19         3.3690   -3.2690    2.5500 c         1 EDU      0.816500
     11 O20         3.7910   -2.8670    1.4430 o         1 EDU     -0.657500
     12 N21         3.2170   -4.6440    2.7700 n         1 EDU     -0.584500
     13 C23         2.7030   -5.1950    3.9590 c         1 EDU      0.725700
     14 O24         2.6030   -6.4270    4.0420 o         1 EDU     -0.587500
     15 C25         2.3300   -4.2180    5.0050 cc        1 EDU     -0.104900
     16 C26         2.5040   -2.8790    4.7780 cd        1 EDU      0.066600
     17 C28         1.7950   -4.6950    6.2080 cg        1 EDU     -0.152300
     18 C29         1.3390   -5.1150    7.2320 c1        1 EDU     -0.111500
     19 H1         -0.2670   -0.6540    1.5460 ho        1 EDU      0.406000
     20 H2          1.2590   -0.4010   -0.4510 h1        1 EDU      0.058200
     21 H3          1.9540   -1.8790    0.3940 h1        1 EDU      0.058200
     22 H4          1.5920    1.0280    1.4950 h1        1 EDU      0.078700
     23 H5          3.8930   -0.5660    0.4150 h1        1 EDU      0.080700
     24 H6          3.7280    1.6550    0.1370 ho        1 EDU      0.408000
     25 H7          4.7020    0.5110    3.1040 hc        1 EDU      0.090700
     26 H8          5.0420   -1.1160    2.3720 hc        1 EDU      0.090700
     27 H9          3.1090   -0.4680    4.4750 h2        1 EDU      0.089700
     28 H10         3.4490   -5.2500    2.0110 hn        1 EDU      0.355500
     29 H11         2.2070   -2.1280    5.5370 h4        1 EDU      0.173000
     30 H12         0.9350   -5.4920    8.1370 ha        1 EDU      0.171500
@<TRIPOS>BOND
     1    1    2 1   
     2    1   19 1   
     3    2    3 1   
     4    2   20 1   
     5    2   21 1   
     6    3    4 1   
     7    3    5 1   
     8    3   22 1   
     9    4    8 1   
    10    5    6 1   
    11    5    7 1   
    12    5   23 1   
    13    6   24 1   
    14    7    8 1   
    15    7   25 1   
    16    7   26 1   
    17    8    9 1   
    18    8   27 1   
    19    9   10 1   
    20    9   16 1   
    21   10   11 2   
    22   10   12 1   
    23   12   13 1   
    24   12   28 1   
    25   13   14 2   
    26   13   15 1   
    27   15   16 2   
    28   15   17 1   
    29   16   29 1   
    30   17   18 3   
    31   18   30 1   
@<TRIPOS>SUBSTRUCTURE
     1 EDU         1 TEMP              0 ****  ****    0 ROOT
