@<TRIPOS>MOLECULE
EDU
   30    31     1     0     0
SMALL
bcc


@<TRIPOS>ATOM
      1 O01        -0.0680   -0.9630    0.6870 oh        1 EDU     -0.592800
      2 C03         1.3250   -0.8870    0.4760 c3        1 EDU      0.116400
      3 C06         1.9920    0.0180    1.5100 c3        1 EDU      0.098100
      4 O08         1.7810   -0.5350    2.8200 os        1 EDU     -0.432600
      5 C09         3.5110    0.1370    1.2840 c3        1 EDU      0.124100
      6 O10         3.7910    1.5000    1.0180 oh        1 EDU     -0.590800
      7 C13         4.1610   -0.3260    2.5940 c3        1 EDU     -0.137400
      8 C16         3.0170   -0.9400    3.4220 c3        1 EDU      0.317500
      9 N18         3.0600   -2.3960    3.5890 n         1 EDU     -0.383000
     10 C19         3.4030   -3.2640    2.5140 c         1 EDU      0.810500
     11 O20         3.7930   -2.8280    1.4080 o         1 EDU     -0.653500
     12 N21         3.3260   -4.6470    2.7220 ns        1 EDU     -0.587500
     13 C23         2.8590   -5.2350    3.9130 c         1 EDU      0.723700
     14 O24         2.8330   -6.4710    3.9880 o         1 EDU     -0.585500
     15 C25         2.4370   -4.2880    4.9680 cc        1 EDU     -0.104900
     16 C26         2.5340   -2.9400    4.7510 cd        1 EDU      0.063600
     17 C28         1.9400   -4.8050    6.1710 cg        1 EDU     -0.155300
     18 C29         1.5170   -5.2580    7.1950 c1        1 EDU     -0.107500
     19 H1         -0.2020   -1.2640    1.5950 ho        1 EDU      0.409000
     20 H2          1.4420   -0.4440   -0.5490 h1        1 EDU      0.062700
     21 H3          1.7840   -1.9120    0.5070 h1        1 EDU      0.062700
     22 H4          1.4980    1.0290    1.5300 h1        1 EDU      0.102700
     23 H5          3.8420   -0.5110    0.4280 h1        1 EDU      0.078700
     24 H6          4.7110    1.5440    0.7310 ho        1 EDU      0.408000
     25 H7          4.9890   -1.0480    2.3970 hc        1 EDU      0.081700
     26 H8          4.5750    0.5520    3.1520 hc        1 EDU      0.081700
     27 H9          2.9900   -0.5000    4.4660 h2        1 EDU      0.087700
     28 H10         3.6000   -5.2340    1.9620 hn        1 EDU      0.355500
     29 H11         2.2050   -2.2130    5.5200 h4        1 EDU      0.174000
     30 H12         1.1410   -5.6640    8.1000 ha        1 EDU      0.172500
@<TRIPOS>BOND
     1    1    2 1   
     2    1   19 1   
     3    2    3 1   
     4    2   20 1   
     5    2   21 1   
     6    3    4 1   
     7    3    5 1   
     8    3   22 1   
     9    4    8 1   
    10    5    6 1   
    11    5    7 1   
    12    5   23 1   
    13    6   24 1   
    14    7    8 1   
    15    7   25 1   
    16    7   26 1   
    17    8    9 1   
    18    8   27 1   
    19    9   10 1   
    20    9   16 1   
    21   10   11 2   
    22   10   12 1   
    23   12   13 1   
    24   12   28 1   
    25   13   14 2   
    26   13   15 1   
    27   15   16 2   
    28   15   17 1   
    29   16   29 1   
    30   17   18 3   
    31   18   30 1   
@<TRIPOS>SUBSTRUCTURE
     1 EDU         1 TEMP              0 ****  ****    0 ROOT
