@<TRIPOS>MOLECULE
EDU
   30    31     1     0     0
SMALL
bcc


@<TRIPOS>ATOM
      1 O01         0.0870   -0.8250    0.5640 oh        1 EDU     -0.594800
      2 C03         1.4930   -0.8040    0.4490 c3        1 EDU      0.114400
      3 C06         2.1240    0.0530    1.5440 c3        1 EDU      0.061100
      4 O08         1.8430   -0.5430    2.8200 os        1 EDU     -0.428600
      5 C09         3.6540    0.1700    1.3950 c3        1 EDU      0.126100
      6 O10         4.0580    1.5200    1.2540 oh        1 EDU     -0.591800
      7 C13         4.2380   -0.3480    2.7130 c3        1 EDU     -0.100400
      8 C16         3.0480   -0.9620    3.4760 c3        1 EDU      0.313500
      9 N18         3.0750   -2.4200    3.6240 n         1 EDU     -0.382000
     10 C19         3.4250   -3.2740    2.5400 c         1 EDU      0.810500
     11 O20         3.8270   -2.8230    1.4450 o         1 EDU     -0.652500
     12 N21         3.3400   -4.6590    2.7280 n         1 EDU     -0.587500
     13 C23         2.8570   -5.2620    3.9050 c         1 EDU      0.723700
     14 O24         2.8240   -6.4990    3.9620 o         1 EDU     -0.586500
     15 C25         2.4290   -4.3290    4.9690 cc        1 EDU     -0.105900
     16 C26         2.5360   -2.9780    4.7730 cd        1 EDU      0.064600
     17 C28         1.9170   -4.8600    6.1590 cg        1 EDU     -0.155300
     18 C29         1.4810   -5.3250    7.1730 c1        1 EDU     -0.107500
     19 H1         -0.1200   -1.1560    1.4470 ho        1 EDU      0.411000
     20 H2          1.9090   -1.8470    0.4880 h1        1 EDU      0.061700
     21 H3          1.6960   -0.3500   -0.5570 h1        1 EDU      0.061700
     22 H4          1.6350    1.0670    1.5790 h1        1 EDU      0.088700
     23 H5          4.0180   -0.4460    0.5280 h1        1 EDU      0.077700
     24 H6          3.7790    1.8050    0.3750 ho        1 EDU      0.409000
     25 H7          5.0560   -1.0820    2.5180 hc        1 EDU      0.089700
     26 H8          4.6550    0.5030    3.3110 hc        1 EDU      0.089700
     27 H9          2.9740   -0.5340    4.5220 h2        1 EDU      0.088700
     28 H10         3.6210   -5.2370    1.9630 hn        1 EDU      0.355500
     29 H11         2.2040   -2.2610    5.5500 h4        1 EDU      0.174000
     30 H12         1.0950   -5.7420    8.0680 ha        1 EDU      0.171500
@<TRIPOS>BOND
     1    1    2 1   
     2    1   19 1   
     3    2    3 1   
     4    2   20 1   
     5    2   21 1   
     6    3    4 1   
     7    3    5 1   
     8    3   22 1   
     9    4    8 1   
    10    5    6 1   
    11    5    7 1   
    12    5   23 1   
    13    6   24 1   
    14    7    8 1   
    15    7   25 1   
    16    7   26 1   
    17    8    9 1   
    18    8   27 1   
    19    9   10 1   
    20    9   16 1   
    21   10   11 2   
    22   10   12 1   
    23   12   13 1   
    24   12   28 1   
    25   13   14 2   
    26   13   15 1   
    27   15   16 2   
    28   15   17 1   
    29   16   29 1   
    30   17   18 3   
    31   18   30 1   
@<TRIPOS>SUBSTRUCTURE
     1 EDU         1 TEMP              0 ****  ****    0 ROOT
