@<TRIPOS>MOLECULE
EDV
   33    34     1     0     0
SMALL
bcc


@<TRIPOS>ATOM
      1 O01        -0.0130   -1.1590    0.2400 oh        1 EDV     -0.587800
      2 C03         1.3740   -0.9380    0.1240 c3        1 EDV      0.119400
      3 C06         1.9190   -0.1250    1.2960 c3        1 EDV      0.091100
      4 O08         1.5640   -0.7760    2.5270 os        1 EDV     -0.428600
      5 C09         3.4490    0.0180    1.2510 c3        1 EDV      0.119100
      6 O11         3.7320    1.3800    0.9910 oh        1 EDV     -0.585800
      7 C13         3.9430   -0.4170    2.6420 c3        1 EDV     -0.132700
      8 C15         5.1990   -1.2410    2.5720 c3        1 EDV     -0.094100
      9 C16         2.7200   -1.0960    3.3120 c3        1 EDV      0.320500
     10 N18         2.8100   -2.5470    3.4990 n         1 EDV     -0.387000
     11 C19         3.4220   -3.0150    4.6980 c         1 EDV      0.808500
     12 O20         3.9220   -2.2140    5.5180 o         1 EDV     -0.642500
     13 N21         3.4630   -4.3940    4.9260 ns        1 EDV     -0.585500
     14 C23         2.9080   -5.3470    4.0480 c         1 EDV      0.724700
     15 O24         3.0100   -6.5450    4.3480 o         1 EDV     -0.588500
     16 C25         2.2490   -4.8020    2.8430 cc        1 EDV     -0.116900
     17 C26         2.2210   -3.4470    2.6350 cd        1 EDV      0.070600
     18 C28         1.6570   -5.6940    1.9410 cg        1 EDV     -0.153300
     19 C29         1.1540   -6.4660    1.1760 c1        1 EDV     -0.111500
     20 H1         -0.1790   -1.5090    1.1270 ho        1 EDV      0.413000
     21 H2          1.9150   -1.9180    0.0320 h1        1 EDV      0.053200
     22 H3          1.4990   -0.3530   -0.8280 h1        1 EDV      0.053200
     23 H4          1.4190    0.8840    1.3330 h1        1 EDV      0.108700
     24 H5          3.8960   -0.6230    0.4420 h1        1 EDV      0.056700
     25 H6          4.6940    1.4690    0.9870 ho        1 EDV      0.412000
     26 H7          4.1550    0.5100    3.2480 hc        1 EDV      0.090700
     27 H8          6.0310   -0.6200    2.1570 hc        1 EDV      0.050367
     28 H9          5.4920   -1.5880    3.5940 hc        1 EDV      0.050367
     29 H10         5.0710   -2.1340    1.9130 hc        1 EDV      0.050367
     30 H11         2.5300   -0.6490    4.3370 h2        1 EDV      0.114700
     31 H12         3.9010   -4.7000    5.7700 hn        1 EDV      0.356500
     32 H13         1.7080   -3.0050    1.7570 h4        1 EDV      0.178000
     33 H14         0.7080   -7.1520    0.5020 ha        1 EDV      0.171500
@<TRIPOS>BOND
     1    1    2 1   
     2    1   20 1   
     3    2    3 1   
     4    2   21 1   
     5    2   22 1   
     6    3    4 1   
     7    3    5 1   
     8    3   23 1   
     9    4    9 1   
    10    5    6 1   
    11    5    7 1   
    12    5   24 1   
    13    6   25 1   
    14    7    8 1   
    15    7    9 1   
    16    7   26 1   
    17    8   27 1   
    18    8   28 1   
    19    8   29 1   
    20    9   10 1   
    21    9   30 1   
    22   10   11 1   
    23   10   17 1   
    24   11   12 2   
    25   11   13 1   
    26   13   14 1   
    27   13   31 1   
    28   14   15 2   
    29   14   16 1   
    30   16   17 2   
    31   16   18 1   
    32   17   32 1   
    33   18   19 3   
    34   19   33 1   
@<TRIPOS>SUBSTRUCTURE
     1 EDV         1 TEMP              0 ****  ****    0 ROOT
