@<TRIPOS>MOLECULE
EDV
   33    34     1     0     0
SMALL
bcc


@<TRIPOS>ATOM
      1 O01         0.2490   -1.2340    0.0920 oh        1 EDV     -0.587800
      2 C03         1.6260   -0.9320    0.1080 c3        1 EDV      0.119400
      3 C06         2.0120   -0.1150    1.3390 c3        1 EDV      0.053100
      4 O08         1.5970   -0.8120    2.5230 os        1 EDV     -0.428600
      5 C09         3.5270    0.1390    1.4240 c3        1 EDV      0.121100
      6 O11         3.8380    1.5080    1.2940 oh        1 EDV     -0.576800
      7 C13         3.9690   -0.4430    2.7790 c3        1 EDV     -0.126700
      8 C15         5.2000   -1.3000    2.6460 c3        1 EDV     -0.090100
      9 C16         2.7140   -1.1480    3.3590 c3        1 EDV      0.312500
     10 N18         2.8010   -2.6010    3.5190 n         1 EDV     -0.386000
     11 C19         3.3580   -3.0910    4.7360 c         1 EDV      0.809500
     12 O20         3.8030   -2.3040    5.5990 o         1 EDV     -0.641500
     13 N21         3.4060   -4.4740    4.9310 n         1 EDV     -0.585500
     14 C23         2.9100   -5.4120    4.0030 c         1 EDV      0.724700
     15 O24         3.0110   -6.6160    4.2780 o         1 EDV     -0.587500
     16 C25         2.3090   -4.8450    2.7770 cc        1 EDV     -0.114900
     17 C26         2.2740   -3.4850    2.6010 cd        1 EDV      0.070600
     18 C28         1.7780   -5.7210    1.8230 cg        1 EDV     -0.153300
     19 C29         1.3270   -6.4790    1.0140 c1        1 EDV     -0.110500
     20 H1          0.0240   -1.6160    0.9520 ho        1 EDV      0.412000
     21 H2          2.2310   -1.8780    0.0550 h1        1 EDV      0.055200
     22 H3          1.8040   -0.3240   -0.8200 h1        1 EDV      0.055200
     23 H4          1.4300    0.8490    1.3480 h1        1 EDV      0.092700
     24 H5          4.0740   -0.3450    0.5670 h1        1 EDV      0.100700
     25 H6          3.4100    1.9830    2.0180 ho        1 EDV      0.406000
     26 H7          4.2100    0.4060    3.4790 hc        1 EDV      0.083700
     27 H8          5.4790   -1.7330    3.6390 hc        1 EDV      0.052033
     28 H9          5.0430   -2.1350    1.9200 hc        1 EDV      0.052033
     29 H10         6.0510   -0.6740    2.2790 hc        1 EDV      0.052033
     30 H11         2.4640   -0.7280    4.3840 h2        1 EDV      0.111700
     31 H12         3.8050   -4.7970    5.7880 hn        1 EDV      0.356500
     32 H13         1.8050   -3.0280    1.7060 h4        1 EDV      0.177000
     33 H14         0.9280   -7.1540    0.3000 ha        1 EDV      0.171500
@<TRIPOS>BOND
     1    1    2 1   
     2    1   20 1   
     3    2    3 1   
     4    2   21 1   
     5    2   22 1   
     6    3    4 1   
     7    3    5 1   
     8    3   23 1   
     9    4    9 1   
    10    5    6 1   
    11    5    7 1   
    12    5   24 1   
    13    6   25 1   
    14    7    8 1   
    15    7    9 1   
    16    7   26 1   
    17    8   27 1   
    18    8   28 1   
    19    8   29 1   
    20    9   10 1   
    21    9   30 1   
    22   10   11 1   
    23   10   17 1   
    24   11   12 2   
    25   11   13 1   
    26   13   14 1   
    27   13   31 1   
    28   14   15 2   
    29   14   16 1   
    30   16   17 2   
    31   16   18 1   
    32   17   32 1   
    33   18   19 3   
    34   19   33 1   
@<TRIPOS>SUBSTRUCTURE
     1 EDV         1 TEMP              0 ****  ****    0 ROOT
