@<TRIPOS>MOLECULE
EDV
   33    34     1     0     0
SMALL
bcc


@<TRIPOS>ATOM
      1 O01         0.1210   -0.1500    0.0600 oh        1 EDV     -0.590800
      2 C03         1.0310   -1.0170    0.7150 c3        1 EDV      0.115400
      3 C06         1.8920   -0.1360    1.6250 c3        1 EDV      0.122100
      4 O08         1.7630   -0.6030    2.9770 os        1 EDV     -0.411600
      5 C09         3.3910   -0.1410    1.2680 c3        1 EDV      0.118100
      6 O11         3.7150    1.1620    0.8210 oh        1 EDV     -0.577800
      7 C13         4.1230   -0.4880    2.5780 c3        1 EDV     -0.139700
      8 C15         5.3210   -1.3700    2.3580 c3        1 EDV     -0.090100
      9 C16         3.0180   -1.0520    3.5070 c3        1 EDV      0.301500
     10 N18         3.0080   -2.5060    3.6660 n         1 EDV     -0.381000
     11 C19         3.1070   -3.0490    4.9810 c         1 EDV      0.811500
     12 O20         3.3370   -2.3180    5.9670 o         1 EDV     -0.634500
     13 N21         2.9720   -4.4340    5.1370 n         1 EDV     -0.586500
     14 C23         2.7170   -5.3210    4.0730 c         1 EDV      0.725700
     15 O24         2.6090   -6.5290    4.3290 o         1 EDV     -0.589500
     16 C25         2.6040   -4.7020    2.7350 cc        1 EDV     -0.116900
     17 C26         2.7360   -3.3440    2.6030 cd        1 EDV      0.068600
     18 C28         2.3610   -5.5280    1.6320 cg        1 EDV     -0.150300
     19 C29         2.1520   -6.2460    0.6960 c1        1 EDV     -0.117500
     20 H1         -0.5730   -0.7060   -0.3120 ho        1 EDV      0.407000
     21 H2          0.4810   -1.7770    1.3320 h1        1 EDV      0.036200
     22 H3          1.6530   -1.5450   -0.0570 h1        1 EDV      0.036200
     23 H4          1.4890    0.9180    1.6240 h1        1 EDV      0.122700
     24 H5          3.6270   -0.8890    0.4630 h1        1 EDV      0.049700
     25 H6          4.6500    1.1480    0.5800 ho        1 EDV      0.408000
     26 H7          4.4660    0.4750    3.0540 hc        1 EDV      0.091700
     27 H8          5.7850   -1.6510    3.3350 hc        1 EDV      0.047367
     28 H9          6.0820   -0.8200    1.7510 hc        1 EDV      0.047367
     29 H10         5.0510   -2.3060    1.8110 hc        1 EDV      0.047367
     30 H11         3.0810   -0.6000    4.5450 h2        1 EDV      0.134700
     31 H12         3.0460   -4.7930    6.0660 hn        1 EDV      0.356500
     32 H13         2.6340   -2.8410    1.6200 h4        1 EDV      0.167000
     33 H14         1.9680   -6.8870   -0.1280 ha        1 EDV      0.171500
@<TRIPOS>BOND
     1    1    2 1   
     2    1   20 1   
     3    2    3 1   
     4    2   21 1   
     5    2   22 1   
     6    3    4 1   
     7    3    5 1   
     8    3   23 1   
     9    4    9 1   
    10    5    6 1   
    11    5    7 1   
    12    5   24 1   
    13    6   25 1   
    14    7    8 1   
    15    7    9 1   
    16    7   26 1   
    17    8   27 1   
    18    8   28 1   
    19    8   29 1   
    20    9   10 1   
    21    9   30 1   
    22   10   11 1   
    23   10   17 1   
    24   11   12 2   
    25   11   13 1   
    26   13   14 1   
    27   13   31 1   
    28   14   15 2   
    29   14   16 1   
    30   16   17 2   
    31   16   18 1   
    32   17   32 1   
    33   18   19 3   
    34   19   33 1   
@<TRIPOS>SUBSTRUCTURE
     1 EDV         1 TEMP              0 ****  ****    0 ROOT
