@<TRIPOS>MOLECULE
EE2
   47    43     1     0     0
SMALL
bcc


@<TRIPOS>ATOM
      1 C1          5.5170   -0.0480    4.0270 c1        1 EE2     -0.135750
      2 C2          6.4240    0.7910    3.3790 c1        1 EE2     -0.135750
      3 C3          4.3800   -0.4930    3.3580 c1        1 EE2     -0.135750
      4 C4          0.3070   -1.8610   -0.2100 c1        1 EE2     -0.135000
      5 C5          6.1930    1.1830    2.0640 c1        1 EE2     -0.135750
      6 C6         -0.8340   -1.9630   -1.0410 c1        1 EE2     -0.171000
      7 C7          4.1480   -0.1000    2.0380 c1        1 EE2      0.005000
      8 C8          0.5550   -0.6470    0.5330 c1        1 EE2     -0.102000
      9 C9         -0.3420    0.4420    0.4320 c1        1 EE2     -0.034000
     10 C10         5.0530    0.7360    1.3920 c1        1 EE2     -0.091000
     11 C11        -1.7110   -0.9030   -1.1420 c1        1 EE2      0.031000
     12 C12        -1.4560    0.3470   -0.3760 c1        1 EE2      0.013000
     13 C13         2.9250   -0.2600    1.1360 c2        1 EE2     -0.201000
     14 C14         1.6870   -0.5990    1.5350 c2        1 EE2     -0.008000
     15 C15        -0.4570    1.6530    1.3360 c2        1 EE2      0.370000
     16 C16        -7.4620   -0.8410   -3.0270 c1        1 EE2      0.328000
     17 C17         4.6880    0.7680   -0.1030 c3        1 EE2     -0.127000
     18 C18        -3.5340    1.2140   -1.2030 c3        1 EE2     -0.056000
     19 C19         3.3370    0.0950   -0.2750 c3        1 EE2      0.084000
     20 C20        -3.9950   -0.1850   -1.3740 c3        1 EE2     -0.009000
     21 C21        -6.3200   -1.0030   -2.0490 c2        1 EE2     -0.222000
     22 C22        -5.1310   -0.1960   -2.5230 c3        1 EE2     -0.141000
     23 O23        -0.9780    1.5400    2.4770 o         1 EE2     -0.556000
     24 O24        -7.5900   -1.6500   -3.9830 o         1 EE2     -0.590500
     25 O25        -0.0170    2.7690    0.9520 o         1 EE2     -0.556000
     26 O26        -8.2950    0.0910   -2.8740 o         1 EE2     -0.590500
     27 O27        -2.5240    1.4060   -0.3990 os        1 EE2     -0.177000
     28 O28        -3.0620   -1.0890   -1.7110 os        1 EE2     -0.215000
     29 O29         2.3700    0.9060   -0.9740 oh        1 EE2     -0.347000
     30 H1          5.6790   -0.3230    4.9500 ha        1 EE2      0.124750
     31 H2          7.2260    1.0960    3.8460 ha        1 EE2      0.124750
     32 H3          3.7460   -1.0800    3.8120 ha        1 EE2      0.124750
     33 H5          6.8280    1.7690    1.6110 ha        1 EE2      0.124750
     34 H4          0.9360   -2.6070   -0.1510 ha        1 EE2      0.115000
     35 H6         -1.0000   -2.7840   -1.5420 ha        1 EE2      0.130000
     36 H14         1.5170   -0.8070    2.4740 ha        1 EE2      0.183000
     37 H171        4.6370    1.6960   -0.4110 hc        1 EE2      0.091500
     38 H172        5.3640    0.2870   -0.6180 hc        1 EE2      0.091500
     39 H19         3.3900   -0.6930   -0.8520 h1        1 EE2      0.074000
     40 H211       -6.0710   -1.9470   -1.9910 ha        1 EE2      0.062000
     41 H212       -6.5990   -0.6850   -1.1670 ha        1 EE2      0.062000
     42 H181       -3.2870    1.5600   -2.0860 h1        1 EE2      0.106000
     43 H182       -4.2890    1.7410   -0.8700 h1        1 EE2      0.106000
     44 H29         2.6350    1.0240   -1.8150 ho        1 EE2      0.229000
     45 H221       -5.4130    0.7220   -2.7100 hc        1 EE2      0.098500
     46 H222       -4.7670   -0.5970   -3.3370 hc        1 EE2      0.098500
     47 H20        -4.4060   -0.4730   -0.5360 h1        1 EE2      0.093000
@<TRIPOS>BOND
     1    1    3 1   
     2    1   30 1   
     3    2    5 1   
     4    2   31 1   
     5    3   32 1   
     6    4    8 1   
     7    4   34 1   
     8    5   33 1   
     9    6   11 1   
    10    6   35 1   
    11    7   10 1   
    12    7   13 1   
    13    8   14 1   
    14    9   12 1   
    15    9   15 1   
    16   10   17 1   
    17   11   28 1   
    18   12   27 1   
    19   13   14 1   
    20   13   19 1   
    21   14   36 1   
    22   15   23 1   
    23   15   25 1   
    24   16   24 1   
    25   16   26 1   
    26   17   19 1   
    27   17   37 1   
    28   17   38 1   
    29   18   20 1   
    30   18   27 1   
    31   18   42 1   
    32   18   43 1   
    33   19   29 1   
    34   19   39 1   
    35   20   22 1   
    36   20   28 1   
    37   20   47 1   
    38   21   22 1   
    39   21   40 1   
    40   21   41 1   
    41   22   45 1   
    42   22   46 1   
    43   29   44 1   
@<TRIPOS>SUBSTRUCTURE
     1 EE2         1 TEMP              0 ****  ****    0 ROOT
