@<TRIPOS>MOLECULE
EE2
   47    50     1     0     0
SMALL
bcc


@<TRIPOS>ATOM
      1 C1         -3.4230   -3.3510    1.5420 ca        1 EE2     -0.134000
      2 C2         -4.7720   -3.6930    1.5300 ca        1 EE2     -0.157000
      3 C3         -2.9780   -2.1500    0.9750 ca        1 EE2     -0.114000
      4 C4         -0.7960   -0.9470   -0.9060 ca        1 EE2     -0.134000
      5 C5         -5.7160   -2.8270    0.9640 ca        1 EE2     -0.134000
      6 C6          0.5490   -1.2890   -0.9210 ca        1 EE2     -0.172000
      7 C7         -3.9010   -1.2960    0.3830 ca        1 EE2     -0.001800
      8 C8         -1.2160    0.3240   -0.4870 ca        1 EE2     -0.100800
      9 C9         -0.2750    1.2920   -0.0810 ca        1 EE2     -0.062600
     10 C10        -5.2840   -1.6370    0.4060 ca        1 EE2     -0.099300
     11 C11         1.4970   -0.3400   -0.5110 ca        1 EE2      0.069100
     12 C12         1.0840    0.9420   -0.0940 ca        1 EE2      0.061100
     13 C13        -3.7150    0.0050   -0.2480 ce        1 EE2     -0.176400
     14 C14        -2.6140    0.7080   -0.5590 cf        1 EE2     -0.003200
     15 C15        -0.7610    2.6780    0.3420 c         1 EE2      0.923200
     16 C16         7.6090   -0.0490   -0.0450 c         1 EE2      0.908600
     17 C17        -6.1110   -0.5550   -0.2010 c3        1 EE2     -0.035100
     18 C18         3.2840    1.3460    0.6280 c3        1 EE2      0.094400
     19 C19        -5.1030    0.5750   -0.5220 c3        1 EE2      0.185300
     20 C20         3.7670    0.3380   -0.4090 c3        1 EE2      0.102100
     21 C22         5.1010   -0.2980   -0.0380 c3        1 EE2     -0.062400
     22 O23        -1.2810    3.4040   -0.5570 o         1 EE2     -0.823800
     23 O24         7.7370   -0.4140    1.1590 o         1 EE2     -0.856800
     24 O25        -0.6710    3.0030    1.5540 o         1 EE2     -0.823800
     25 O26         8.5410   -0.1210   -0.8990 o         1 EE2     -0.856800
     26 O27         2.0200    1.9040    0.2570 os        1 EE2     -0.294900
     27 O28         2.8170   -0.7460   -0.5180 os        1 EE2     -0.332900
     28 O29        -5.3100    0.9550   -1.8740 oh        1 EE2     -0.622800
     29 H1         -2.6910   -4.0270    2.0060 ha        1 EE2      0.121000
     30 H2         -5.1030   -4.6420    1.9730 ha        1 EE2      0.109000
     31 H3         -1.9110   -1.8800    1.0140 ha        1 EE2      0.165000
     32 H5         -6.7830   -3.0890    0.9710 ha        1 EE2      0.113000
     33 H4         -1.5450   -1.6780   -1.2470 ha        1 EE2      0.118000
     34 H6          0.8850   -2.2800   -1.2500 ha        1 EE2      0.128000
     35 H14        -2.7420    1.7560   -0.9250 ha        1 EE2      0.176000
     36 H171       -6.6140   -0.9010   -1.1390 hc        1 EE2      0.051700
     37 H172       -6.8940   -0.1930    0.5080 hc        1 EE2      0.051700
     38 H19        -5.2860    1.4740    0.1290 h1        1 EE2      0.049700
     39 H211        6.1830    1.5760   -0.0800 hc        1 EE2      0.022700
     40 H212        6.2630    0.6270   -1.6190 hc        1 EE2      0.022700
     41 H181        3.1940    0.8640    1.6360 h1        1 EE2      0.065700
     42 H182        3.9700    2.2310    0.6770 h1        1 EE2      0.065700
     43 H29        -4.4950    1.3760   -2.1780 ho        1 EE2      0.417000
     44 H221        5.1670   -0.4430    1.0720 hc        1 EE2      0.058700
     45 H222        5.1580   -1.3140   -0.5090 hc        1 EE2      0.058700
     46 H20         3.8230    0.8320   -1.4190 h1        1 EE2      0.052700
     47 C21         6.2650    0.5430   -0.5040 c3        1 EE2     -0.193400
@<TRIPOS>BOND
     1    1    2 ar  
     2    1    3 ar  
     3    1   29 1   
     4    2    5 ar  
     5    2   30 1   
     6    3    7 ar  
     7    3   31 1   
     8    4    6 ar  
     9    4    8 ar  
    10    4   33 1   
    11    5   10 ar  
    12    5   32 1   
    13    6   11 ar  
    14    6   34 1   
    15    7   10 ar  
    16    7   13 1   
    17    8    9 ar  
    18    8   14 1   
    19    9   12 ar  
    20    9   15 1   
    21   10   17 1   
    22   11   12 ar  
    23   11   27 1   
    24   12   26 1   
    25   13   14 2   
    26   13   19 1   
    27   14   35 1   
    28   15   22 1   
    29   15   24 1   
    30   16   23 1   
    31   16   25 1   
    32   16   47 1   
    33   17   19 1   
    34   17   36 1   
    35   17   37 1   
    36   18   20 1   
    37   18   26 1   
    38   18   41 1   
    39   18   42 1   
    40   19   28 1   
    41   19   38 1   
    42   20   21 1   
    43   20   27 1   
    44   20   46 1   
    45   21   44 1   
    46   21   45 1   
    47   21   47 1   
    48   28   43 1   
    49   39   47 1   
    50   40   47 1   
@<TRIPOS>SUBSTRUCTURE
     1 EE2         1 TEMP              0 ****  ****    0 ROOT
