@<TRIPOS>MOLECULE
EE2
   47    45     1     0     0
SMALL
bcc


@<TRIPOS>ATOM
      1 C1         85.5850   33.8220   67.4570 c3        1 EE2     -0.284000
      2 C2         89.0470   30.1430   62.6990 c1        1 EE2      0.101000
      3 C3         86.7020   31.3880   65.2680 c1        1 EE2      0.359000
      4 C4         82.7820   28.8610   64.2910 c2        1 EE2     -0.128000
      5 C5         88.5850   29.8040   63.8230 c1        1 EE2     -0.637000
      6 C6         82.1040   29.2220   65.3330 c1        1 EE2     -0.204000
      7 C7         87.1380   30.2090   65.7380 c2        1 EE2     -0.371000
      8 C8         84.1400   29.0720   67.4950 c2        1 EE2     -0.038000
      9 C9         83.1840   29.9690   68.1290 c2        1 EE2     -0.085000
     10 C10        88.1140   29.4120   65.0180 c2        1 EE2      0.354000
     11 C11        81.4110   29.5980   66.3860 c2        1 EE2      0.097000
     12 C12        81.9660   30.2040   67.5980 c2        1 EE2      0.009000
     13 C13        86.6290   29.7320   67.0350 c2        1 EE2     -0.144000
     14 C14        85.3700   29.4160   67.2260 c1        1 EE2     -0.097000
     15 C15        83.6640   30.5870   69.4490 c2        1 EE2      0.381000
     16 C16      -329.4120 -113.6290 -240.8740 c2        1 EE2      0.327000
     17 C17        88.5720   28.1530   65.6450 c3        1 EE2     -0.238000
     18 C18        79.8040   30.8980   68.1620 c2        1 EE2     -0.074000
     19 C19        87.6520   29.5860   68.0970 c1        1 EE2      0.035000
     20 C20        79.2720   30.0550   67.2640 c2        1 EE2     -0.144000
     21 C22      -327.7040 -112.4840 -239.4260 c3        1 EE2     -0.184000
     22 O23        82.9780   30.3900   70.4790 o         1 EE2     -0.544500
     23 O24      -329.3820 -112.7740 -241.8070 o         1 EE2     -0.590000
     24 O25        84.7590   31.2260   69.4180 o         1 EE2     -0.544500
     25 O26      -330.4100 -114.3690 -240.6330 o         1 EE2     -0.590000
     26 O27        81.1580   31.1520   68.2460 os        1 EE2     -0.110000
     27 O28        80.0290   29.3510   66.3370 os        1 EE2     -0.156000
     28 O29        87.3720   29.9150   69.3080 oh        1 EE2     -0.174000
     29 H1         85.2260   33.0940   68.2240 hc        1 EE2      0.071000
     30 H2         86.4090   34.4360   67.8800 hc        1 EE2      0.071000
     31 H3         85.9570   33.2680   66.5660 hc        1 EE2      0.071000
     32 H5         84.7470   34.4870   67.1530 hc        1 EE2      0.071000
     33 H4         82.9830   29.5480   63.4550 ha        1 EE2      0.121000
     34 H6         83.2140   27.8550   64.1870 ha        1 EE2      0.121000
     35 H14        83.7850   28.0430   67.2900 ha        1 EE2      0.146000
     36 H171       87.6920   27.4960   65.8650 hc        1 EE2      0.120000
     37 H172       89.2880   27.6060   64.9870 hc        1 EE2      0.120000
     38 H19        89.0660   28.3930   66.6280 hc        1 EE2      0.120000
     39 H211     -327.3530 -114.2400 -240.6310 hc        1 EE2      0.056000
     40 H212     -328.3840 -114.5230 -239.1710 hc        1 EE2      0.056000
     41 H181       78.2140   29.8000   67.1410 h4        1 EE2      0.168000
     42 H182       79.2610   31.4970   68.9040 h4        1 EE2      0.176000
     43 H29        86.4620   30.2770   69.4890 ho        1 EE2      0.260000
     44 H221     -326.7150 -112.5860 -238.9150 hc        1 EE2      0.050667
     45 H222     -327.6100 -111.7310 -240.2470 hc        1 EE2      0.050667
     46 H20      -328.4430 -112.1000 -238.6830 hc        1 EE2      0.050667
     47 C21      -328.1610 -113.7980 -239.9940 c3        1 EE2     -0.226000
@<TRIPOS>BOND
     1    1   29 1   
     2    1   30 1   
     3    1   31 1   
     4    1   32 1   
     5    2    5 1   
     6    3    7 1   
     7    4    6 1   
     8    4   33 1   
     9    4   34 1   
    10    5   10 1   
    11    6   11 1   
    12    7   10 1   
    13    7   13 1   
    14    8    9 1   
    15    8   14 1   
    16    8   35 1   
    17    9   12 1   
    18    9   15 1   
    19   10   17 1   
    20   11   12 1   
    21   11   27 1   
    22   12   26 1   
    23   13   14 1   
    24   13   19 1   
    25   15   22 1   
    26   15   24 1   
    27   16   23 1   
    28   16   25 1   
    29   16   47 1   
    30   17   36 1   
    31   17   37 1   
    32   17   38 1   
    33   18   20 1   
    34   18   26 1   
    35   18   42 1   
    36   19   28 1   
    37   20   27 1   
    38   20   41 1   
    39   21   44 1   
    40   21   45 1   
    41   21   46 1   
    42   21   47 1   
    43   28   43 1   
    44   39   47 1   
    45   40   47 1   
@<TRIPOS>SUBSTRUCTURE
     1 EE2         1 TEMP              0 ****  ****    0 ROOT
