@<TRIPOS>MOLECULE
EEA
   68    63     1     0     0
SMALL
bcc


@<TRIPOS>ATOM
      1 C1          0.4220   -3.1710   -0.6990 c3        1 EEA     -0.184000
      2 CL1         3.6950    3.4510   10.9610 cl        1 EEA     -0.071000
      3 C2          1.5020   -2.1310   -0.4490 c3        1 EEA     -0.093000
      4 O2          0.6790   -2.7670   -3.0230 o         1 EEA     -0.430000
      5 C3          1.5310   -1.7750    1.0310 c2        1 EEA     -0.022000
      6 C4          2.2010   -0.7130    1.5940 c1        1 EEA     -0.202000
      7 C5          2.0330   -0.7800    2.9630 c1        1 EEA     -0.058000
      8 C6          2.6230    0.1830    3.9870 c1        1 EEA     -0.026000
      9 C7          3.7170   -0.2020    4.7500 c2        1 EEA     -0.118000
     10 C8          4.1970    0.6360    5.7460 c1        1 EEA     -0.139000
     11 C9          3.5840    1.8570    5.9800 c1        1 EEA     -0.035000
     12 C10         2.4910    2.2420    5.2180 c1        1 EEA     -0.108000
     13 C11         2.0100    1.4040    4.2210 c1        1 EEA     -0.107000
     14 C12        -0.0910   -3.0370   -2.1230 c2        1 EEA      0.294000
     15 N12         1.2740   -1.8640    3.2370 n2        1 EEA     -0.055000
     16 O12         0.9600   -2.4870    2.0320 os        1 EEA     -0.088000
     17 C18         4.1470    2.8000    7.0300 c1        1 EEA     -0.027000
     18 C19         3.7190    2.7070    8.3460 c2        1 EEA     -0.127000
     19 C20         4.2120    3.5860    9.3010 c1        1 EEA     -0.078000
     20 C21         5.1330    4.5570    8.9390 c1        1 EEA     -0.132000
     21 C22         5.5610    4.6500    7.6240 c1        1 EEA     -0.132000
     22 C23         5.0670    3.7710    6.6690 c1        1 EEA     -0.089000
     23 N2         -1.4630   -3.2950   -2.4130 n         1 EEA     -0.340000
     24 C13        -2.0410   -2.8000   -3.6150 c3        1 EEA      0.009000
     25 C14        -2.7820   -1.5150   -3.3250 c2        1 EEA      0.299000
     26 O1         -3.3620   -1.3730   -2.2680 o         1 EEA     -0.395000
     27 C15        -3.0070   -3.8240   -4.1700 c3        1 EEA     -0.140000
     28 C16        -2.4480   -4.4000   -5.4540 c3        1 EEA     -0.231000
     29 C17        -3.5470   -5.1300   -6.2000 c2        1 EEA      0.329000
     30 O4         -4.0400   -6.1830   -5.7210 o         1 EEA     -0.589500
     31 O4E        -3.9390   -4.7040   -7.3200 o         1 EEA     -0.589500
     32 N1         -2.8170   -0.4790   -4.2990 n         1 EEA     -0.352000
     33 C24        -3.3570    0.7910   -3.9660 c3        1 EEA      0.008000
     34 C28        -4.8660    0.7320   -4.0430 c2        1 EEA      0.263000
     35 O9         -5.4050    0.0570   -4.8970 o         1 EEA     -0.420000
     36 C25        -2.8420    1.8300   -4.9390 c3        1 EEA     -0.151000
     37 C26        -2.0640    2.8860   -4.1850 c3        1 EEA     -0.230000
     38 C27        -1.8460    4.0860   -5.0790 c2        1 EEA      0.329000
     39 O8         -2.7370    4.9700   -5.1750 o         1 EEA     -0.593500
     40 O8E        -0.7590    4.2200   -5.6990 o         1 EEA     -0.593500
     41 N9         -5.6520    1.5060   -3.1490 n         1 EEA     -0.408000
     42 H1          0.7950   -4.0660   -0.5700 hc        1 EEA      0.127500
     43 H2         -0.3160   -3.0320   -0.0720 hc        1 EEA      0.127500
     44 H4          2.3710   -2.4930   -0.7140 hc        1 EEA      0.112000
     45 H5          1.3100   -1.3290   -0.9730 hc        1 EEA      0.112000
     46 H7          2.7160   -0.0380    1.1110 DU        1 EEA      0.199000
     47 H8          4.1480   -1.0620    4.5850 ha        1 EEA      0.132000
     48 H9          4.9660    0.3650    6.2820 ha        1 EEA      0.120000
     49 H12         2.0630    3.1030    5.3790 ha        1 EEA      0.213000
     50 H13         1.2410    1.6750    3.6850 ha        1 EEA      0.149000
     51 H19         3.0840    2.0100    8.6050 ha        1 EEA      0.136000
     52 H20         5.4800    5.1760    9.6110 ha        1 EEA      0.136000
     53 H21         6.2100    5.3350    7.3680 ha        1 EEA      0.136000
     54 H22         5.3550    3.8480    5.7370 ha        1 EEA      0.226000
     55 H6         -1.9690   -3.7780   -1.8290 hn        1 EEA      0.286000
     56 H14        -1.3350   -2.6290   -4.2700 h1        1 EEA      0.107000
     57 H15        -3.1300   -4.5420   -3.5180 hc        1 EEA      0.093500
     58 H16        -3.8680   -3.3960   -4.3520 hc        1 EEA      0.093500
     59 H17        -1.7260   -5.0250   -5.2450 hc        1 EEA      0.069500
     60 H18        -2.1000   -3.6740   -6.0140 hc        1 EEA      0.069500
     61 H3         -2.4740   -0.6250   -5.1340 hn        1 EEA      0.249000
     62 H23        -3.0860    1.0320   -3.0580 h1        1 EEA      0.140000
     63 H24        -3.5980    2.2490   -5.4000 hc        1 EEA      0.087500
     64 H25        -2.2570    1.4010   -5.5960 hc        1 EEA      0.087500
     65 H26        -1.1990    2.5210   -3.9130 hc        1 EEA      0.077500
     66 H27        -2.5680    3.1570   -3.3920 hc        1 EEA      0.077500
     67 H10        -6.5590    1.5450   -3.2540 hn        1 EEA      0.231000
     68 H11        -5.2490    1.9820   -2.4780 hn        1 EEA      0.231000
@<TRIPOS>BOND
     1    1    3 1   
     2    1   14 1   
     3    1   42 1   
     4    1   43 1   
     5    2   19 1   
     6    3    5 1   
     7    3   44 1   
     8    3   45 1   
     9    4   14 1   
    10    5    6 1   
    11    5   16 1   
    12    6    7 1   
    13    7   15 1   
    14    8    9 1   
    15    8   13 1   
    16    9   10 1   
    17    9   47 1   
    18   10   48 1   
    19   11   12 1   
    20   12   49 1   
    21   13   50 1   
    22   14   23 1   
    23   15   16 1   
    24   17   18 1   
    25   17   22 1   
    26   18   19 1   
    27   18   51 1   
    28   20   21 1   
    29   20   52 1   
    30   21   53 1   
    31   22   54 1   
    32   23   24 1   
    33   23   55 1   
    34   24   25 1   
    35   24   27 1   
    36   24   56 1   
    37   25   26 1   
    38   25   32 1   
    39   27   28 1   
    40   27   57 1   
    41   27   58 1   
    42   28   29 1   
    43   28   59 1   
    44   28   60 1   
    45   29   30 1   
    46   29   31 1   
    47   32   33 1   
    48   32   61 1   
    49   33   34 1   
    50   33   36 1   
    51   33   62 1   
    52   34   35 1   
    53   34   41 1   
    54   36   37 1   
    55   36   63 1   
    56   36   64 1   
    57   37   38 1   
    58   37   65 1   
    59   37   66 1   
    60   38   39 1   
    61   38   40 1   
    62   41   67 1   
    63   41   68 1   
@<TRIPOS>SUBSTRUCTURE
     1 EEA         1 TEMP              0 ****  ****    0 ROOT
