@<TRIPOS>MOLECULE
EEA
   68    70     1     0     0
SMALL
bcc


@<TRIPOS>ATOM
      1 C1         -1.7570   -2.4560    0.8670 c3        1 EEA     -0.145400
      2 CL1         8.6260    2.0610   -3.7700 cl        1 EEA     -0.115400
      3 C2         -1.0050   -2.6770    2.1670 c3        1 EEA     -0.105700
      4 O2         -3.3740   -0.9160    1.7710 o         1 EEA     -0.659100
      5 C3          0.4430   -2.4740    2.0220 cc        1 EEA      0.231000
      6 C4          1.2680   -1.6810    1.2560 cd        1 EEA     -0.319600
      7 C5          2.6230   -2.0440    1.6850 cd        1 EEA      0.370800
      8 C6          3.8450   -1.4660    1.1520 ca        1 EEA     -0.124500
      9 C7          5.0870   -2.0790    1.3790 ca        1 EEA     -0.099000
     10 C8          6.2520   -1.5200    0.8640 ca        1 EEA     -0.129000
     11 C9          6.2000   -0.3390    0.1090 cp        1 EEA     -0.068000
     12 C10         4.9580    0.2700   -0.1160 ca        1 EEA     -0.129000
     13 C11         3.7860   -0.2830    0.3980 ca        1 EEA     -0.099000
     14 C12        -2.5150   -1.1350    0.8840 c         1 EEA      0.651100
     15 N12         2.5370   -2.9960    2.6450 nc        1 EEA     -0.398300
     16 O12         1.2700   -3.2720    2.8660 os        1 EEA     -0.147100
     17 C18         7.4270    0.2440   -0.4290 cp        1 EEA      0.004000
     18 C19         7.4350    0.8210   -1.7080 ca        1 EEA     -0.113000
     19 C20         8.6170    1.3670   -2.2130 ca        1 EEA      0.018400
     20 C21         9.7960    1.3540   -1.4620 ca        1 EEA     -0.143000
     21 C22         9.7820    0.7840   -0.1910 ca        1 EEA     -0.131000
     22 C23         8.6110    0.2330    0.3240 ca        1 EEA     -0.128000
     23 N2         -2.2720   -0.2530   -0.1370 n         1 EEA     -0.536900
     24 C13        -2.8590    1.0660   -0.1680 c3        1 EEA      0.040700
     25 C14        -4.2360    1.0570   -0.8900 c         1 EEA      0.650100
     26 O1         -4.4120    1.6850   -1.9540 o         1 EEA     -0.636100
     27 C15        -1.9450    2.0910   -0.8590 c3        1 EEA     -0.067400
     28 C16        -0.7090    2.4120   -0.0550 c3        1 EEA     -0.188400
     29 C17         0.5100    1.5390   -0.3410 c         1 EEA      0.904600
     30 O4          1.6410    1.9530    0.0510 o         1 EEA     -0.863800
     31 O4E         0.3940    0.4170   -0.9320 o         1 EEA     -0.863800
     32 N1         -5.2290    0.2990   -0.3060 n         1 EEA     -0.534900
     33 C24        -6.6020    0.3590   -0.7520 c3        1 EEA      0.029700
     34 C28        -7.4770    1.2640    0.1540 c         1 EEA      0.618100
     35 O9         -7.0020    1.9020    1.1230 o         1 EEA     -0.667100
     36 C25        -7.2560   -1.0380   -0.8410 c3        1 EEA     -0.069400
     37 C26        -8.1380   -1.1870   -2.0630 c3        1 EEA     -0.203400
     38 C27        -9.5400   -1.7070   -1.7070 c         1 EEA      0.906600
     39 O8        -10.2830   -0.9760   -0.9790 o         1 EEA     -0.852800
     40 O8E        -9.9090   -2.8220   -2.1690 o         1 EEA     -0.852800
     41 N9         -8.7990    1.4110   -0.1880 n         1 EEA     -0.644000
     42 H1         -1.0540   -2.5210   -0.0050 hc        1 EEA      0.071700
     43 H2         -2.5310   -3.2600    0.7430 hc        1 EEA      0.071700
     44 H4         -1.3970   -1.9800    2.9610 hc        1 EEA      0.072200
     45 H5         -1.1890   -3.7250    2.5330 hc        1 EEA      0.072200
     46 H7          1.0120   -0.9300    0.4930 ha        1 EEA      0.250000
     47 H8          5.1470   -3.0070    1.9660 ha        1 EEA      0.186500
     48 H9          7.2180   -2.0150    1.0400 ha        1 EEA      0.132500
     49 H12         4.8920    1.2060   -0.6930 ha        1 EEA      0.132500
     50 H13         2.8150    0.2360    0.2030 ha        1 EEA      0.186500
     51 H19         6.5090    0.8380   -2.3050 ha        1 EEA      0.164000
     52 H20        10.7210    1.7880   -1.8670 ha        1 EEA      0.133000
     53 H21        10.7030    0.7730    0.4100 ha        1 EEA      0.124000
     54 H22         8.6070   -0.2080    1.3330 ha        1 EEA      0.138000
     55 H6         -1.4320   -0.3590   -0.6870 hn        1 EEA      0.369500
     56 H14        -3.0570    1.4110    0.8940 h1        1 EEA      0.072700
     57 H15        -1.6530    1.7140   -1.8750 hc        1 EEA      0.059700
     58 H16        -2.5540    3.0220   -1.0080 hc        1 EEA      0.059700
     59 H17        -0.4100    3.4740   -0.2590 hc        1 EEA      0.038200
     60 H18        -0.9230    2.3350    1.0430 hc        1 EEA      0.038200
     61 H3         -5.0800   -0.0370    0.6220 hn        1 EEA      0.333500
     62 H23        -6.5990    0.8360   -1.7810 h1        1 EEA      0.099700
     63 H24        -6.4620   -1.8290   -0.8700 hc        1 EEA      0.049700
     64 H25        -7.8600   -1.2230    0.0870 hc        1 EEA      0.049700
     65 H26        -8.2700   -0.2090   -2.5940 hc        1 EEA      0.032700
     66 H27        -7.6630   -1.8970   -2.7860 hc        1 EEA      0.032700
     67 H10        -9.2430    0.6920   -0.7360 hn        1 EEA      0.318000
     68 H11        -9.3810    1.8620    0.4780 hn        1 EEA      0.318000
@<TRIPOS>BOND
     1    1    3 1   
     2    1   14 1   
     3    1   42 1   
     4    1   43 1   
     5    2   19 1   
     6    3    5 1   
     7    3   44 1   
     8    3   45 1   
     9    4   14 2   
    10    5    6 2   
    11    5   16 1   
    12    6    7 1   
    13    6   46 1   
    14    7    8 1   
    15    7   15 2   
    16    8    9 ar  
    17    8   13 ar  
    18    9   10 ar  
    19    9   47 1   
    20   10   11 ar  
    21   10   48 1   
    22   11   12 ar  
    23   11   17 1   
    24   12   13 ar  
    25   12   49 1   
    26   13   50 1   
    27   14   23 1   
    28   15   16 1   
    29   17   18 ar  
    30   17   22 ar  
    31   18   19 ar  
    32   18   51 1   
    33   19   20 ar  
    34   20   21 ar  
    35   20   52 1   
    36   21   22 ar  
    37   21   53 1   
    38   22   54 1   
    39   23   24 1   
    40   23   55 1   
    41   24   25 1   
    42   24   27 1   
    43   24   56 1   
    44   25   26 2   
    45   25   32 1   
    46   27   28 1   
    47   27   57 1   
    48   27   58 1   
    49   28   29 1   
    50   28   59 1   
    51   28   60 1   
    52   29   30 1   
    53   29   31 1   
    54   32   33 1   
    55   32   61 1   
    56   33   34 1   
    57   33   36 1   
    58   33   62 1   
    59   34   35 2   
    60   34   41 1   
    61   36   37 1   
    62   36   63 1   
    63   36   64 1   
    64   37   38 1   
    65   37   65 1   
    66   37   66 1   
    67   38   39 1   
    68   38   40 1   
    69   41   67 1   
    70   41   68 1   
@<TRIPOS>SUBSTRUCTURE
     1 EEA         1 TEMP              0 ****  ****    0 ROOT
