@<TRIPOS>MOLECULE
EEA
   71    73     1     0     0
SMALL
bcc


@<TRIPOS>ATOM
      1 C1          0.4630   -0.8960   -2.5140 c3        1 EEA     -0.152400
      2 CL1         6.4120    0.3010    9.2670 cl        1 EEA     -0.079400
      3 C2          1.7820   -1.3460   -1.9130 c3        1 EEA     -0.115700
      4 O2         -0.4730   -2.9110   -3.5550 o         1 EEA     -0.425100
      5 C3          1.7250   -1.5990   -0.4690 cc        1 EEA      0.232000
      6 C4          2.5440   -1.3400    0.6040 cd        1 EEA     -0.303600
      7 C5          1.8480   -1.9370    1.7610 cd        1 EEA      0.428800
      8 C6          2.3360   -1.9150    3.1270 ca        1 EEA     -0.170500
      9 C7          1.4620   -2.1090    4.2070 ca        1 EEA     -0.089500
     10 C8          4.1780   -1.6720    4.6830 ca        1 EEA     -0.124500
     11 C9          3.3060   -1.8600    5.7660 cp        1 EEA      0.006000
     12 C10         1.9440   -2.0800    5.5130 ca        1 EEA     -0.124500
     13 C11         3.7000   -1.7000    3.3780 ca        1 EEA     -0.089500
     14 C12        -0.4810   -2.0500   -2.6900 c         1 EEA      0.572100
     15 N12         0.6950   -2.4910    1.3280 nc        1 EEA     -0.369300
     16 O12         0.5970   -2.3180    0.0200 os        1 EEA     -0.217100
     17 C18         3.8100   -1.8280    7.1370 cp        1 EEA     -0.052000
     18 C19         4.7730   -0.8790    7.5090 ca        1 EEA     -0.110000
     19 C20         5.2500   -0.8540    8.8220 ca        1 EEA      0.016400
     20 C21         4.7800   -1.7680    9.7700 ca        1 EEA     -0.109000
     21 C22         3.8240   -2.7110    9.3940 ca        1 EEA     -0.119000
     22 C23         3.3380   -2.7430    8.0890 ca        1 EEA     -0.112000
     23 N2         -1.5900   -2.1820   -1.6580 n4        1 EEA     -0.673800
     24 C13        -2.9180   -1.7310   -2.1890 c3        1 EEA      0.044500
     25 C14        -3.0210   -0.1850   -2.1050 c         1 EEA      0.651100
     26 O1         -2.3260    0.4330   -1.2740 o         1 EEA     -0.604100
     27 C15        -4.0970   -2.3450   -1.4240 c3        1 EEA     -0.100400
     28 C16        -4.5480   -3.6560   -2.0260 c3        1 EEA     -0.141400
     29 C17        -5.3140   -3.5040   -3.3030 c         1 EEA      0.629100
     30 O4         -5.1090   -2.3240   -3.9690 oh        1 EEA     -0.654100
     31 O4E        -6.0820   -4.3080   -3.8250 o         1 EEA     -0.487000
     32 N1         -3.8380    0.4070   -3.0320 n         1 EEA     -0.506900
     33 C24        -4.1400    1.8240   -2.9630 c3        1 EEA      0.008700
     34 C28        -5.5890    2.0610   -2.4600 c         1 EEA      0.637100
     35 O9         -6.4290    1.1370   -2.4730 o         1 EEA     -0.615100
     36 C25        -3.9990    2.5250   -4.3240 c3        1 EEA     -0.080400
     37 C26        -2.7110    2.2050   -5.0510 c3        1 EEA     -0.125400
     38 C27        -1.5050    2.3090   -4.1710 c         1 EEA      0.655100
     39 O8         -1.2630    3.5510   -3.6810 oh        1 EEA     -0.592100
     40 O8E        -0.7150    1.4120   -3.8470 o         1 EEA     -0.602000
     41 N9         -5.9070    3.3090   -2.0140 n         1 EEA     -0.650000
     42 H1          0.6440   -0.4710   -3.5470 hc        1 EEA      0.135200
     43 H2          0.0000   -0.0670   -1.9070 hc        1 EEA      0.135200
     44 H4          2.5410   -0.5330   -2.1000 hc        1 EEA      0.099700
     45 H5          2.1480   -2.2730   -2.4380 hc        1 EEA      0.099700
     46 H7          3.4920   -0.8110    0.6380 ha        1 EEA      0.193000
     47 H8          0.3890   -2.2810    4.0310 ha        1 EEA      0.140500
     48 H9          5.2520   -1.5100    4.8690 ha        1 EEA      0.150000
     49 H12         1.2490   -2.2250    6.3540 ha        1 EEA      0.150000
     50 H13         4.4010   -1.5620    2.5400 ha        1 EEA      0.140500
     51 H19         5.1440   -0.1520    6.7700 ha        1 EEA      0.149000
     52 H20         5.1610   -1.7450   10.8030 ha        1 EEA      0.156000
     53 H21         3.4530   -3.4350   10.1360 ha        1 EEA      0.146000
     54 H22         2.5880   -3.4950    7.8010 ha        1 EEA      0.139000
     55 H6         -1.3420   -1.6100   -0.8300 hn        1 EEA      0.476800
     56 H14        -2.9660   -2.0620   -3.2750 hx        1 EEA      0.143700
     57 H15        -3.8430   -2.4940   -0.3400 hc        1 EEA      0.100700
     58 H16        -4.9570   -1.6160   -1.4580 hc        1 EEA      0.100700
     59 H17        -3.6780   -4.3360   -2.2300 hc        1 EEA      0.100700
     60 H18        -5.2250   -4.1860   -1.2970 hc        1 EEA      0.100700
     61 H3         -5.6730   -2.2970   -4.7620 ho        1 EEA      0.469000
     62 H23        -3.4090    2.3000   -2.2370 h1        1 EEA      0.108700
     63 H24        -4.8600    2.2480   -4.9880 hc        1 EEA      0.079700
     64 H25        -4.0500    3.6310   -4.1330 hc        1 EEA      0.079700
     65 H26        -2.5850    2.9250   -5.9060 hc        1 EEA      0.092700
     66 H27        -2.7410    1.1660   -5.4760 hc        1 EEA      0.092700
     67 H10        -5.2400    4.0370   -1.9930 hn        1 EEA      0.328000
     68 H11        -6.8280    3.4930   -1.6940 hn        1 EEA      0.328000
     69 H221       -1.6630   -3.1630   -1.3630 hn        1 EEA      0.476800
     70 H121       -4.5240   -0.1610   -3.4940 hn        1 EEA      0.351500
     71 H93        -0.4500    3.5490   -3.1470 ho        1 EEA      0.455000
@<TRIPOS>BOND
     1    1    3 1   
     2    1   14 1   
     3    1   42 1   
     4    1   43 1   
     5    2   19 1   
     6    3    5 1   
     7    3   44 1   
     8    3   45 1   
     9    4   14 2   
    10    5    6 2   
    11    5   16 1   
    12    6    7 1   
    13    6   46 1   
    14    7    8 1   
    15    7   15 2   
    16    8    9 ar  
    17    8   13 ar  
    18    9   12 ar  
    19    9   47 1   
    20   10   11 ar  
    21   10   13 ar  
    22   10   48 1   
    23   11   12 ar  
    24   11   17 1   
    25   12   49 1   
    26   13   50 1   
    27   14   23 1   
    28   15   16 1   
    29   17   18 ar  
    30   17   22 ar  
    31   18   19 ar  
    32   18   51 1   
    33   19   20 ar  
    34   20   21 ar  
    35   20   52 1   
    36   21   22 ar  
    37   21   53 1   
    38   22   54 1   
    39   23   24 1   
    40   23   55 1   
    41   23   69 1   
    42   24   25 1   
    43   24   27 1   
    44   24   56 1   
    45   25   26 2   
    46   25   32 1   
    47   27   28 1   
    48   27   57 1   
    49   27   58 1   
    50   28   29 1   
    51   28   59 1   
    52   28   60 1   
    53   29   30 1   
    54   29   31 2   
    55   30   61 1   
    56   32   33 1   
    57   32   70 1   
    58   33   34 1   
    59   33   36 1   
    60   33   62 1   
    61   34   35 2   
    62   34   41 1   
    63   36   37 1   
    64   36   63 1   
    65   36   64 1   
    66   37   38 1   
    67   37   65 1   
    68   37   66 1   
    69   38   39 1   
    70   38   40 2   
    71   39   71 1   
    72   41   67 1   
    73   41   68 1   
@<TRIPOS>SUBSTRUCTURE
     1 EEA         1 TEMP              0 ****  ****    0 ROOT
