@<TRIPOS>MOLECULE
EEA
   71    72     1     0     0
SMALL
bcc


@<TRIPOS>ATOM
      1 C1          0.3010   -0.6380   -2.1330 c3        1 EEA     -0.153400
      2 Cl1         7.4640   -3.5860    8.8850 cl        1 EEA     -0.078400
      3 C2          1.6610   -0.8800   -1.5000 c3        1 EEA     -0.117700
      4 O2          0.2530    1.8060   -2.1630 o         1 EEA     -0.396100
      5 C3          1.6010   -1.1660   -0.0610 cc        1 EEA      0.238000
      6 C4          2.4980   -1.6000    0.8850 cd        1 EEA     -0.307600
      7 C5          1.7250   -1.6510    2.1410 cd        1 EEA      0.436800
      8 C6          2.2580   -2.0530    3.4290 ca        1 EEA     -0.174500
      9 C7          1.6270   -1.6680    4.6220 ca        1 EEA     -0.088500
     10 C8          3.9450   -3.2210    4.7180 ca        1 EEA     -0.125500
     11 C9          3.3190   -2.8350    5.9130 cp        1 EEA      0.009000
     12 C10         2.1550   -2.0560    5.8500 ca        1 EEA     -0.125500
     13 C11         3.4210   -2.8360    3.4890 ca        1 EEA     -0.088500
     14 C12        -0.2060    0.7360   -1.8000 c         1 EEA      0.557100
     15 N12         0.4590   -1.2600    1.8820 nc        1 EEA     -0.382300
     16 O12         0.3500   -0.9740    0.5930 os        1 EEA     -0.220100
     17 C18         3.8740   -3.2390    7.2040 cp        1 EEA     -0.054000
     18 C19         5.2600   -3.2240    7.4070 ca        1 EEA     -0.109000
     19 C20         5.7830   -3.6100    8.6430 ca        1 EEA      0.016400
     20 C21         4.9380   -4.0160    9.6810 ca        1 EEA     -0.108000
     21 C22         3.5600   -4.0300    9.4720 ca        1 EEA     -0.119000
     22 C23         3.0270   -3.6430    8.2450 ca        1 EEA     -0.112000
     23 N2         -1.4020    0.8330   -0.8730 ny        1 EEA     -0.678800
     24 C13        -2.6700    0.2980   -1.4740 c3        1 EEA      0.038500
     25 C14        -3.3960    1.4380   -2.2470 c         1 EEA      0.650100
     26 O1         -3.1720    2.6200   -1.9250 o         1 EEA     -0.581100
     27 C15        -3.6190   -0.2750   -0.4170 c3        1 EEA     -0.104400
     28 C16        -3.1480   -1.5970    0.1520 c3        1 EEA     -0.149400
     29 C17        -3.2580   -2.6970   -0.8570 c         1 EEA      0.635100
     30 O4         -4.1670   -3.5090   -1.0250 o         1 EEA     -0.509000
     31 O4E        -2.1910   -2.7800   -1.7080 oh        1 EEA     -0.647100
     32 N1         -4.2950    1.0570   -3.2120 ns        1 EEA     -0.491900
     33 C24        -4.5740    1.9560   -4.3180 c3        1 EEA      0.022700
     34 C28        -3.3670    2.0230   -5.2960 c         1 EEA      0.635100
     35 O9         -2.4020    1.2320   -5.1830 o         1 EEA     -0.652100
     36 C25        -5.8250    1.5380   -5.1040 c3        1 EEA     -0.082400
     37 C26        -7.0470    1.4340   -4.2300 c3        1 EEA     -0.098100
     38 C27        -6.6960   -2.3830   -2.7200 c1        1 EEA      0.906000
     39 O8         -7.5460   -3.2030   -2.7910 o         1 EEA     -0.452000
     40 O8E        -5.8430   -1.5460   -2.6550 o         1 EEA     -0.452000
     41 N9         -3.3820    2.9750   -6.2690 nt        1 EEA     -0.645000
     42 H1          0.4010   -0.6770   -3.2570 hc        1 EEA      0.122700
     43 H2         -0.4140   -1.4480   -1.8180 hc        1 EEA      0.122700
     44 H4          2.3330    0.0080   -1.6730 hc        1 EEA      0.103200
     45 H5          2.1350   -1.7620   -2.0200 hc        1 EEA      0.103200
     46 H7          3.5510   -1.8480    0.7780 ha        1 EEA      0.195000
     47 H8          0.7140   -1.0540    4.5960 ha        1 EEA      0.140000
     48 H9          4.8540   -3.8430    4.7540 ha        1 EEA      0.151000
     49 H12         1.6580   -1.7420    6.7810 ha        1 EEA      0.151000
     50 H13         3.9200   -3.1570    2.5620 ha        1 EEA      0.140000
     51 H19         5.9330   -2.9000    6.5980 ha        1 EEA      0.149000
     52 H20         5.3560   -4.3210   10.6530 ha        1 EEA      0.156000
     53 H21         2.8890   -4.3510   10.2840 ha        1 EEA      0.146000
     54 H22         1.9370   -3.6640    8.0890 ha        1 EEA      0.139000
     55 H6         -1.1930    0.3100   -0.0110 hn        1 EEA      0.480300
     56 H14        -2.3780   -0.5280   -2.1950 hx        1 EEA      0.133700
     57 H15        -4.6230   -0.4230   -0.9090 hc        1 EEA      0.105200
     58 H16        -3.7670    0.4600    0.4190 hc        1 EEA      0.105200
     59 H17        -2.0900   -1.5460    0.5250 hc        1 EEA      0.104200
     60 H18        -3.8040   -1.8710    1.0260 hc        1 EEA      0.104200
     61 H3         -4.3860    0.0840   -3.4180 hn        1 EEA      0.331500
     62 H23        -4.7330    2.9880   -3.8780 h1        1 EEA      0.109700
     63 H24        -6.0030    2.3110   -5.8980 hc        1 EEA      0.061700
     64 H25        -5.6390    0.5600   -5.6220 hc        1 EEA      0.061700
     65 H26        -6.9720    0.5610   -3.5350 hc        1 EEA      0.047700
     66 H27        -7.9550    1.2960   -4.8660 hc        1 EEA      0.047700
     67 H10        -7.1810    2.3600   -3.6200 hc        1 EEA      0.047700
     68 H11        -2.6210    3.0410   -6.9020 hn        1 EEA      0.327000
     69 H221       -1.5540    1.8310   -0.6350 hn        1 EEA      0.480300
     70 H121       -2.2940   -3.5490   -2.2960 ho        1 EEA      0.465000
     71 H93        -4.1290    3.6170   -6.3530 hn        1 EEA      0.327000
@<TRIPOS>BOND
     1    1    3 1   
     2    1   14 1   
     3    1   42 1   
     4    1   43 1   
     5    2   19 1   
     6    3    5 1   
     7    3   44 1   
     8    3   45 1   
     9    4   14 2   
    10    5    6 2   
    11    5   16 1   
    12    6    7 1   
    13    6   46 1   
    14    7    8 1   
    15    7   15 2   
    16    8    9 ar  
    17    8   13 ar  
    18    9   12 ar  
    19    9   47 1   
    20   10   11 ar  
    21   10   13 ar  
    22   10   48 1   
    23   11   12 ar  
    24   11   17 1   
    25   12   49 1   
    26   13   50 1   
    27   14   23 1   
    28   15   16 1   
    29   17   18 ar  
    30   17   22 ar  
    31   18   19 ar  
    32   18   51 1   
    33   19   20 ar  
    34   20   21 ar  
    35   20   52 1   
    36   21   22 ar  
    37   21   53 1   
    38   22   54 1   
    39   23   24 1   
    40   23   55 1   
    41   23   69 1   
    42   24   25 1   
    43   24   27 1   
    44   24   56 1   
    45   25   26 2   
    46   25   32 1   
    47   27   28 1   
    48   27   57 1   
    49   27   58 1   
    50   28   29 1   
    51   28   59 1   
    52   28   60 1   
    53   29   30 2   
    54   29   31 1   
    55   31   70 1   
    56   32   33 1   
    57   32   61 1   
    58   33   34 1   
    59   33   36 1   
    60   33   62 1   
    61   34   35 2   
    62   34   41 1   
    63   36   37 1   
    64   36   63 1   
    65   36   64 1   
    66   37   65 1   
    67   37   66 1   
    68   37   67 1   
    69   38   39 2   
    70   38   40 2   
    71   41   68 1   
    72   41   71 1   
@<TRIPOS>SUBSTRUCTURE
     1 EEA         1 TEMP              0 ****  ****    0 ROOT
