@<TRIPOS>MOLECULE
EEC
   61    62     1     0     0
SMALL
bcc


@<TRIPOS>ATOM
      1 O2          0.1280   -2.1400    0.1050 o         1 EEC     -0.412100
      2 N3          3.0720    0.1740    3.1700 nc        1 EEC     -0.367300
      3 O5          2.0480   -0.1150    2.3820 os        1 EEC     -0.220100
      4 C11         0.5000   -0.9790    0.1520 c         1 EEC      0.561100
      5 C12        -0.2320    0.2030    0.7230 c3        1 EEC     -0.147400
      6 C13        -0.4040    0.0580    2.2270 c3        1 EEC     -0.116700
      7 C14         1.1430    0.8950    4.1860 cd        1 EEC     -0.301600
      8 C16         2.6110    0.7790    4.2860 cd        1 EEC      0.427800
      9 C21         3.4090    1.2470    5.4050 ca        1 EEC     -0.170500
     10 C22         4.6700    0.6920    5.6680 ca        1 EEC     -0.091500
     11 C23         5.4180    1.1490    6.7520 ca        1 EEC     -0.131000
     12 C24         4.9210    2.1600    7.5740 ca        1 EEC     -0.094000
     13 C25         3.6680    2.7170    7.3120 ca        1 EEC     -0.131000
     14 C26         2.9120    2.2650    6.2340 ca        1 EEC     -0.091500
     15 C27         0.8300    0.3240    2.9770 cc        1 EEC      0.232000
     16 N2          1.8780   -0.7240   -0.4290 n4        1 EEC     -0.678800
     17 C7          1.8260    0.2080   -1.6040 c3        1 EEC      0.009500
     18 C6          2.0130   -0.5630   -2.9220 c         1 EEC      0.548100
     19 O1          2.4350   -1.7150   -2.9730 o         1 EEC     -0.463100
     20 C8          2.8500    1.3620   -1.5000 c3        1 EEC     -0.092400
     21 C9          2.1550    2.7070   -1.6360 c3        1 EEC     -0.203400
     22 C10         1.2690    2.6630   -2.8780 c         1 EEC      0.886600
     23 O4E         1.7430    2.9830   -4.0010 o         1 EEC     -0.831300
     24 O4          0.1260    2.0960   -2.7700 o         1 EEC     -0.831300
     25 N1          1.6100    0.1740   -4.1490 n4        1 EEC     -0.468600
     26 C2          1.6330   -0.6020   -5.3710 c2        1 EEC     -0.367200
     27 C1          0.6340   -1.5670   -5.5030 c2        1 EEC      0.545300
     28 O9         -0.2520   -1.9360   -4.7120 o         1 EEC     -0.617300
     29 C3          2.6680   -0.2610   -6.3790 c3        1 EEC      0.013800
     30 C4          3.9680   -1.0330   -6.2230 c3        1 EEC     -0.187400
     31 C5          4.8020   -0.5510   -5.0720 c         1 EEC      0.659100
     32 O8          4.4030    0.0260   -4.0540 o         1 EEC     -0.558000
     33 O8E         6.1430   -0.7710   -5.0730 oh        1 EEC     -0.552100
     34 N9          0.5660   -2.3210   -6.8280 n4        1 EEC     -0.736400
     35 H16        -1.2480    0.2230    0.2310 hc        1 EEC      0.121700
     36 H17         0.2790    1.1760    0.4850 hc        1 EEC      0.121700
     37 H18        -1.1930    0.7890    2.5620 hc        1 EEC      0.103200
     38 H19        -0.7750   -0.9770    2.4730 hc        1 EEC      0.103200
     39 H20         0.4910    1.3340    4.9360 ha        1 EEC      0.194000
     40 H21         5.0710   -0.1070    5.0270 ha        1 EEC      0.140500
     41 H22         6.4060    0.7090    6.9570 ha        1 EEC      0.147000
     42 H23         5.5150    2.5180    8.4290 ha        1 EEC      0.147000
     43 H24         3.2760    3.5170    7.9590 ha        1 EEC      0.147000
     44 H25         1.9280    2.7130    6.0300 ha        1 EEC      0.140500
     45 H3          2.4650   -0.3050    0.3120 hn        1 EEC      0.479300
     46 H9          0.7660    0.6730   -1.6230 hx        1 EEC      0.202700
     47 H10         3.6220    1.2540   -2.3110 hc        1 EEC      0.089200
     48 H11         3.4050    1.3320   -0.5250 hc        1 EEC      0.089200
     49 H12         2.9270    3.5110   -1.7450 hc        1 EEC      0.075200
     50 H13         1.5330    2.9250   -0.7330 hc        1 EEC      0.075200
     51 H1          2.2610    0.9930   -4.2610 hn        1 EEC      0.520800
     52 H2          6.4180   -1.2030   -5.8960 ho        1 EEC      0.439000
     53 H4          2.9010    0.8440   -6.3410 hc        1 EEC      0.068700
     54 H5          2.2710   -0.4440   -7.4130 hc        1 EEC      0.068700
     55 H6          4.5630   -0.9390   -7.1710 hc        1 EEC      0.076700
     56 H7          3.7590   -2.1230   -6.0480 hc        1 EEC      0.076700
     57 H14        -0.1430   -3.0570   -6.7430 hn        1 EEC      0.450467
     58 H15         0.2990   -1.6780   -7.5750 hn        1 EEC      0.450467
     59 H221        2.3040   -1.6240   -0.7050 hn        1 EEC      0.479300
     60 H121        0.6520    0.5860   -3.9940 hn        1 EEC      0.520800
     61 H93         1.4710   -2.7350   -7.0480 hn        1 EEC      0.450467
@<TRIPOS>BOND
     1    1    4 2   
     2    2    3 1   
     3    2    8 2   
     4    3   15 1   
     5    4    5 1   
     6    4   16 1   
     7    5    6 1   
     8    5   35 1   
     9    5   36 1   
    10    6   15 1   
    11    6   37 1   
    12    6   38 1   
    13    7    8 1   
    14    7   15 2   
    15    7   39 1   
    16    8    9 1   
    17    9   10 ar  
    18    9   14 ar  
    19   10   11 ar  
    20   10   40 1   
    21   11   12 ar  
    22   11   41 1   
    23   12   13 ar  
    24   12   42 1   
    25   13   14 ar  
    26   13   43 1   
    27   14   44 1   
    28   16   17 1   
    29   16   45 1   
    30   16   59 1   
    31   17   18 1   
    32   17   20 1   
    33   17   46 1   
    34   18   19 2   
    35   18   25 1   
    36   20   21 1   
    37   20   47 1   
    38   20   48 1   
    39   21   22 1   
    40   21   49 1   
    41   21   50 1   
    42   22   23 1   
    43   22   24 1   
    44   25   26 1   
    45   25   51 1   
    46   25   60 1   
    47   26   27 2   
    48   26   29 1   
    49   27   28 1   
    50   27   34 1   
    51   29   30 1   
    52   29   53 1   
    53   29   54 1   
    54   30   31 1   
    55   30   55 1   
    56   30   56 1   
    57   31   32 2   
    58   31   33 1   
    59   33   52 1   
    60   34   57 1   
    61   34   58 1   
    62   34   61 1   
@<TRIPOS>SUBSTRUCTURE
     1 EEC         1 TEMP              0 ****  ****    0 ROOT
