@<TRIPOS>MOLECULE
EEC
   58    53     1     0     0
SMALL
bcc


@<TRIPOS>ATOM
      1 O2         -1.3020    1.8880    0.1190 o         1 EEC     -0.421000
      2 N3          1.5510   -1.3400    4.2720 n2        1 EEC     -0.067000
      3 O5          1.2580   -0.5520    3.1550 os        1 EEC     -0.093000
      4 C11        -0.1010    1.9600    0.0790 c1        1 EEC      0.295000
      5 C12         0.7250    1.7520    1.3610 c2        1 EEC     -0.174000
      6 C13        -0.2270    1.3390    2.5320 c3        1 EEC     -0.090000
      7 C14         0.4180    0.4410    4.9480 c1        1 EEC     -0.191000
      8 C16         1.0350   -0.7280    5.3640 c1        1 EEC     -0.058000
      9 C21         1.0470   -1.2810    6.8000 c1        1 EEC     -0.033000
     10 C22         0.0190   -2.0990    7.2360 c1        1 EEC     -0.077000
     11 C23         0.0340   -2.6070    8.5260 c1        1 EEC     -0.136000
     12 C24         1.0800   -2.2950    9.3790 c1        1 EEC     -0.136000
     13 C25         2.1090   -1.4780    8.9440 c1        1 EEC     -0.168000
     14 C26         2.0920   -0.9700    7.6530 c2        1 EEC     -0.112000
     15 C27         0.5640    0.5350    3.5780 c2        1 EEC     -0.060000
     16 N2          0.5630    2.2520   -1.1670 n3        1 EEC     -0.346000
     17 C7         -0.1350    2.0910   -2.4050 c3        1 EEC      0.013000
     18 C6          0.2860    0.7970   -3.0550 c2        1 EEC      0.294000
     19 O1          1.4160    0.3880   -2.9090 o         1 EEC     -0.398000
     20 C8          0.1970    3.2580   -3.3320 c3        1 EEC     -0.145000
     21 C9         -1.0090    4.1760   -3.4450 c3        1 EEC     -0.218000
     22 C10        -0.7020    5.2950   -4.4190 c2        1 EEC      0.325000
     23 O4E        -0.0210    6.2870   -4.0440 o         1 EEC     -0.598000
     24 O4         -1.1940    5.2730   -5.5760 o         1 EEC     -0.598000
     25 N1         -0.7010   -0.0170   -3.7850 n         1 EEC     -0.344000
     26 C2         -0.3280   -1.3220   -4.2980 c3        1 EEC      0.003000
     27 C1          0.3830   -1.1620   -5.5920 c1        1 EEC      0.262000
     28 O9         -0.0480   -0.3950   -6.4300 o         1 EEC     -0.428000
     29 C3         -1.5800   -2.1640   -4.5060 c3        1 EEC     -0.148000
     30 C4         -1.4340   -3.5080   -3.7480 c3        1 EEC     -0.232000
     31 C5         -2.6240   -4.4140   -4.0830 c2        1 EEC      0.326000
     32 O8         -2.5570   -5.2100   -5.0620 o         1 EEC     -0.587500
     33 O8E        -3.6880   -4.3270   -3.4140 o         1 EEC     -0.587500
     34 N9          1.5120   -1.9570   -5.8780 n2        1 EEC     -0.404000
     35 H16         1.1900    2.5910    1.5940 ha        1 EEC      0.111000
     36 H17         1.3860    1.0440    1.2120 ha        1 EEC      0.111000
     37 H18        -0.5970    2.1440    2.9510 hc        1 EEC      0.110500
     38 H19        -0.9530    0.7920    2.1830 hc        1 EEC      0.110500
     39 H20        -0.1110    1.0440    5.5110 DU        1 EEC      0.249000
     40 H21        -0.7260   -2.3170    6.6300 ha        1 EEC      0.230000
     41 H22        -0.6960   -3.1870    8.8350 ha        1 EEC      0.126000
     42 H23         1.0920   -2.6560   10.2960 ha        1 EEC      0.126000
     43 H24         2.8500   -1.2570    9.5480 ha        1 EEC      0.109000
     44 H25         2.8210   -0.3900    7.3430 ha        1 EEC      0.131000
     45 H3          1.4310    2.5420   -1.1660 hn        1 EEC      0.284000
     46 H9         -1.0950    2.0730   -2.2370 h1        1 EEC      0.111000
     47 H10         0.9590    3.7620   -2.9660 hc        1 EEC      0.098500
     48 H11         0.4300    2.9120   -4.2250 hc        1 EEC      0.098500
     49 H12        -1.7760    3.6670   -3.7670 hc        1 EEC      0.076500
     50 H13        -1.2140    4.5560   -2.5660 hc        1 EEC      0.076500
     51 H1         -1.5520    0.3070   -3.9270 hn        1 EEC      0.248000
     52 H2          0.2600   -1.7670   -3.6590 h1        1 EEC      0.139000
     53 H4         -1.7020   -2.3410   -5.4710 hc        1 EEC      0.089500
     54 H5         -2.3560   -1.6810   -4.1630 hc        1 EEC      0.089500
     55 H6         -0.5980   -3.9510   -4.0220 hc        1 EEC      0.072000
     56 H7         -1.4140   -3.3390   -2.7860 hc        1 EEC      0.072000
     57 H14         1.9410   -1.8660   -6.6720 hn        1 EEC      0.231500
     58 H15         1.7930   -2.5850   -5.2750 hn        1 EEC      0.231500
@<TRIPOS>BOND
     1    1    4 1   
     2    2    3 1   
     3    2    8 1   
     4    3   15 1   
     5    4   16 1   
     6    5    6 1   
     7    5   35 1   
     8    5   36 1   
     9    6   15 1   
    10    6   37 1   
    11    6   38 1   
    12    7    8 1   
    13    7   15 1   
    14    9   10 1   
    15    9   14 1   
    16   10   40 1   
    17   11   12 1   
    18   11   41 1   
    19   12   42 1   
    20   13   14 1   
    21   13   43 1   
    22   14   44 1   
    23   16   17 1   
    24   16   45 1   
    25   17   18 1   
    26   17   20 1   
    27   17   46 1   
    28   18   19 1   
    29   18   25 1   
    30   20   21 1   
    31   20   47 1   
    32   20   48 1   
    33   21   22 1   
    34   21   49 1   
    35   21   50 1   
    36   22   23 1   
    37   22   24 1   
    38   25   26 1   
    39   25   51 1   
    40   26   27 1   
    41   26   29 1   
    42   26   52 1   
    43   27   28 1   
    44   29   30 1   
    45   29   53 1   
    46   29   54 1   
    47   30   31 1   
    48   30   55 1   
    49   30   56 1   
    50   31   32 1   
    51   31   33 1   
    52   34   57 1   
    53   34   58 1   
@<TRIPOS>SUBSTRUCTURE
     1 EEC         1 TEMP              0 ****  ****    0 ROOT
