@<TRIPOS>MOLECULE
EEC
   58    59     1     0     0
SMALL
bcc


@<TRIPOS>ATOM
      1 O2         -0.9050   -0.1450    1.8230 o         1 EEC     -0.660100
      2 N3          5.3350   -1.0730    2.3630 nc        1 EEC     -0.402300
      3 O5          4.1620   -1.3990    2.8630 os        1 EEC     -0.150100
      4 C11        -0.1240   -0.5500    0.9270 c         1 EEC      0.651100
      5 C12         0.8390   -1.6940    1.2150 c3        1 EEC     -0.145400
      6 C13         1.7580   -1.3610    2.3780 c3        1 EEC     -0.105700
      7 C14         3.7230   -0.4970    0.8340 cd        1 EEC     -0.321600
      8 C16         5.1590   -0.5230    1.1380 cd        1 EEC      0.377800
      9 C21         6.2030   -0.0330    0.2530 ca        1 EEC     -0.140500
     10 C22         5.8630    0.7850   -0.8360 ca        1 EEC     -0.094500
     11 C23         6.8670    1.2510   -1.6870 ca        1 EEC     -0.151000
     12 C24         8.2000    0.9090   -1.4670 ca        1 EEC     -0.138000
     13 C25         8.5380    0.0960   -0.3850 ca        1 EEC     -0.151000
     14 C26         7.5460   -0.3730    0.4730 ca        1 EEC     -0.094500
     15 C27         3.1280   -1.0560    1.9430 cc        1 EEC      0.229000
     16 N2         -0.1490   -0.0490   -0.3490 n         1 EEC     -0.536900
     17 C7         -0.9410    1.1040   -0.7060 c3        1 EEC      0.039700
     18 C6         -2.3720    0.6940   -1.1550 c         1 EEC      0.650100
     19 O1         -2.7680    0.9020   -2.3210 o         1 EEC     -0.637100
     20 C8         -0.2890    1.9310   -1.8260 c3        1 EEC     -0.066400
     21 C9          0.9720    2.6320   -1.3800 c3        1 EEC     -0.189400
     22 C10         2.2690    1.8580   -1.6030 c         1 EEC      0.905600
     23 O4E         3.3540    2.5110   -1.6130 o         1 EEC     -0.863300
     24 O4          2.2630    0.5930   -1.7480 o         1 EEC     -0.863300
     25 N1         -3.1570    0.0690   -0.2090 n         1 EEC     -0.534900
     26 C2         -4.5630   -0.1820   -0.4240 c3        1 EEC      0.029700
     27 C1         -5.4630    0.8710    0.2750 c         1 EEC      0.618100
     28 O9         -4.9900    1.8480    0.9010 o         1 EEC     -0.667100
     29 C3         -4.9910   -1.5910    0.0430 c3        1 EEC     -0.069400
     30 C4         -5.9710   -2.2440   -0.9100 c3        1 EEC     -0.203400
     31 C5         -7.2220   -2.7680   -0.1880 c         1 EEC      0.906600
     32 O8         -7.9850   -1.9240    0.3790 o         1 EEC     -0.852800
     33 O8E        -7.4590   -4.0080   -0.2070 o         1 EEC     -0.852800
     34 N9         -6.8220    0.7420    0.1190 n         1 EEC     -0.644000
     35 H16         0.2040   -2.5790    1.4850 hc        1 EEC      0.071700
     36 H17         1.4420   -1.9680    0.3100 hc        1 EEC      0.071700
     37 H18         1.3490   -0.4810    2.9510 hc        1 EEC      0.071200
     38 H19         1.7900   -2.2290    3.0910 hc        1 EEC      0.071200
     39 H20         3.2660   -0.1020   -0.0850 ha        1 EEC      0.249000
     40 H21         4.8050    1.0810   -1.0360 ha        1 EEC      0.180500
     41 H22         6.5870    1.8960   -2.5340 ha        1 EEC      0.126000
     42 H23         8.9840    1.2800   -2.1420 ha        1 EEC      0.109000
     43 H24         9.5870   -0.1750   -0.2070 ha        1 EEC      0.126000
     44 H25         7.8230   -1.0130    1.3240 ha        1 EEC      0.180500
     45 H3          0.6300   -0.2380   -0.9630 hn        1 EEC      0.370500
     46 H9         -1.0700    1.7640    0.2080 h1        1 EEC      0.071700
     47 H10        -0.0680    1.2690   -2.7040 hc        1 EEC      0.059200
     48 H11        -1.0490    2.6870   -2.1570 hc        1 EEC      0.059200
     49 H12         1.0630    3.6020   -1.9350 hc        1 EEC      0.037200
     50 H13         0.9180    2.8810   -0.2880 hc        1 EEC      0.037200
     51 H1         -2.8490    0.0830    0.7410 hn        1 EEC      0.334500
     52 H2         -4.7540   -0.0830   -1.5380 h1        1 EEC      0.099700
     53 H4         -4.0880   -2.2500    0.1410 hc        1 EEC      0.050200
     54 H5         -5.4480   -1.5190    1.0660 hc        1 EEC      0.050200
     55 H6         -6.3150   -1.5250   -1.6970 hc        1 EEC      0.032700
     56 H7         -5.4720   -3.0980   -1.4350 hc        1 EEC      0.032700
     57 H14        -7.2040   -0.1650   -0.0920 hn        1 EEC      0.318000
     58 H15        -7.3890    1.3220    0.6920 hn        1 EEC      0.318000
@<TRIPOS>BOND
     1    1    4 2   
     2    2    3 1   
     3    2    8 2   
     4    3   15 1   
     5    4    5 1   
     6    4   16 1   
     7    5    6 1   
     8    5   35 1   
     9    5   36 1   
    10    6   15 1   
    11    6   37 1   
    12    6   38 1   
    13    7    8 1   
    14    7   15 2   
    15    7   39 1   
    16    8    9 1   
    17    9   10 ar  
    18    9   14 ar  
    19   10   11 ar  
    20   10   40 1   
    21   11   12 ar  
    22   11   41 1   
    23   12   13 ar  
    24   12   42 1   
    25   13   14 ar  
    26   13   43 1   
    27   14   44 1   
    28   16   17 1   
    29   16   45 1   
    30   17   18 1   
    31   17   20 1   
    32   17   46 1   
    33   18   19 2   
    34   18   25 1   
    35   20   21 1   
    36   20   47 1   
    37   20   48 1   
    38   21   22 1   
    39   21   49 1   
    40   21   50 1   
    41   22   23 1   
    42   22   24 1   
    43   25   26 1   
    44   25   51 1   
    45   26   27 1   
    46   26   29 1   
    47   26   52 1   
    48   27   28 2   
    49   27   34 1   
    50   29   30 1   
    51   29   53 1   
    52   29   54 1   
    53   30   31 1   
    54   30   55 1   
    55   30   56 1   
    56   31   32 1   
    57   31   33 1   
    58   34   57 1   
    59   34   58 1   
@<TRIPOS>SUBSTRUCTURE
     1 EEC         1 TEMP              0 ****  ****    0 ROOT
