@<TRIPOS>MOLECULE
EEC
   61    62     1     0     0
SMALL
bcc


@<TRIPOS>ATOM
      1 O2          1.3250   -3.1670    0.6060 o         1 EEC     -0.403100
      2 N3          3.0590    1.0380    2.8510 nc        1 EEC     -0.372300
      3 O5          2.2050    0.2780    2.1830 os        1 EEC     -0.221100
      4 C11         1.2580   -1.9560    0.4650 c         1 EEC      0.552100
      5 C12         0.1520   -1.0460    0.9250 c3        1 EEC     -0.145400
      6 C13         0.0970   -0.9790    2.4420 c3        1 EEC     -0.117700
      7 C14         1.3510    0.4430    4.2650 cd        1 EEC     -0.303600
      8 C16         2.6160    1.1890    4.1180 cd        1 EEC      0.432800
      9 C21         3.2600    1.9500    5.1730 ca        1 EEC     -0.172500
     10 C22         4.6330    2.2320    5.1180 ca        1 EEC     -0.091000
     11 C23         5.2360    2.9590    6.1430 ca        1 EEC     -0.130500
     12 C24         4.4800    3.4100    7.2240 ca        1 EEC     -0.092000
     13 C25         3.1120    3.1340    7.2810 ca        1 EEC     -0.130500
     14 C26         2.5020    2.4070    6.2620 ca        1 EEC     -0.091000
     15 C27         1.1300   -0.1170    3.0300 cc        1 EEC      0.232000
     16 N2          2.4410   -1.3220   -0.2320 ny        1 EEC     -0.676800
     17 C7          2.0720   -0.6710   -1.5310 c3        1 EEC      0.026500
     18 C6          2.4860   -1.5760   -2.7280 c         1 EEC      0.653100
     19 O1          3.3490   -2.4590   -2.5630 o         1 EEC     -0.587100
     20 C8          2.7370    0.7040   -1.7300 c3        1 EEC     -0.110400
     21 C9          1.7260    1.8290   -1.6460 c3        1 EEC     -0.138400
     22 C10         0.6750    1.6690   -2.7040 c         1 EEC      0.625100
     23 O4E        -0.4690    1.0880   -2.2500 oh        1 EEC     -0.635100
     24 O4          0.7430    1.9420   -3.9030 o         1 EEC     -0.526000
     25 N1          1.8110   -1.3400   -3.8980 ns        1 EEC     -0.501900
     26 C2          2.3650   -1.7420   -5.1740 c3        1 EEC      0.028700
     27 C1          3.6010   -0.8820   -5.5590 c         1 EEC      0.630100
     28 O9          3.8570    0.1840   -4.9590 o         1 EEC     -0.629100
     29 C3          1.3160   -1.6630   -6.2950 c3        1 EEC     -0.075400
     30 C4          0.7870   -0.2660   -6.5560 c3        1 EEC     -0.192400
     31 C5         -0.5090    0.0080   -5.8510 c         1 EEC      0.661100
     32 O8         -1.5230    0.6390   -6.4980 oh        1 EEC     -0.556100
     33 O8E        -0.7800   -0.2650   -4.6750 o         1 EEC     -0.563000
     34 N9          4.3910   -1.3250   -6.5780 nt        1 EEC     -0.648000
     35 H16         0.2500   -0.0110    0.4990 hc        1 EEC      0.114700
     36 H17        -0.8100   -1.4910    0.5390 hc        1 EEC      0.114700
     37 H18         0.1840   -2.0150    2.8790 hc        1 EEC      0.103700
     38 H19        -0.9140   -0.5780    2.7370 hc        1 EEC      0.103700
     39 H20         0.7610    0.3700    5.1750 ha        1 EEC      0.195000
     40 H21         5.2410    1.8820    4.2700 ha        1 EEC      0.139500
     41 H22         6.3150    3.1760    6.0970 ha        1 EEC      0.148000
     42 H23         4.9590    3.9840    8.0320 ha        1 EEC      0.148000
     43 H24         2.5130    3.4930    8.1320 ha        1 EEC      0.148000
     44 H25         1.4220    2.2000    6.3100 ha        1 EEC      0.139500
     45 H3          3.1550   -2.0530   -0.4220 hn        1 EEC      0.484800
     46 H9          0.9420   -0.5470   -1.5340 hx        1 EEC      0.134700
     47 H10         3.5480    0.8920   -0.9750 hc        1 EEC      0.112200
     48 H11         3.2390    0.7340   -2.7430 hc        1 EEC      0.112200
     49 H12         2.2510    2.8090   -1.8190 hc        1 EEC      0.099200
     50 H13         1.2430    1.8630   -0.6340 hc        1 EEC      0.099200
     51 H1         -1.1180    0.9990   -2.9760 ho        1 EEC      0.486000
     52 H2          2.7040   -2.8180   -5.0670 h1        1 EEC      0.106700
     53 H4          0.4660   -2.3530   -6.0430 hc        1 EEC      0.080200
     54 H5          1.7970   -2.0540   -7.2310 hc        1 EEC      0.080200
     55 H6          0.6520   -0.1260   -7.6630 hc        1 EEC      0.097700
     56 H7          1.5240    0.5140   -6.2060 hc        1 EEC      0.097700
     57 H14         4.2410   -2.2050   -7.0020 hn        1 EEC      0.326500
     58 H15        -1.2620    0.8710   -7.4020 ho        1 EEC      0.442000
     59 H221        2.8530   -0.6170    0.3990 hn        1 EEC      0.484800
     60 H121        1.1770   -0.5620   -3.9290 hn        1 EEC      0.345500
     61 H93         5.2050   -0.8120   -6.8210 hn        1 EEC      0.326500
@<TRIPOS>BOND
     1    1    4 2   
     2    2    3 1   
     3    2    8 2   
     4    3   15 1   
     5    4    5 1   
     6    4   16 1   
     7    5    6 1   
     8    5   35 1   
     9    5   36 1   
    10    6   15 1   
    11    6   37 1   
    12    6   38 1   
    13    7    8 1   
    14    7   15 2   
    15    7   39 1   
    16    8    9 1   
    17    9   10 ar  
    18    9   14 ar  
    19   10   11 ar  
    20   10   40 1   
    21   11   12 ar  
    22   11   41 1   
    23   12   13 ar  
    24   12   42 1   
    25   13   14 ar  
    26   13   43 1   
    27   14   44 1   
    28   16   17 1   
    29   16   45 1   
    30   16   59 1   
    31   17   18 1   
    32   17   20 1   
    33   17   46 1   
    34   18   19 2   
    35   18   25 1   
    36   20   21 1   
    37   20   47 1   
    38   20   48 1   
    39   21   22 1   
    40   21   49 1   
    41   21   50 1   
    42   22   23 1   
    43   22   24 2   
    44   23   51 1   
    45   25   26 1   
    46   25   60 1   
    47   26   27 1   
    48   26   29 1   
    49   26   52 1   
    50   27   28 2   
    51   27   34 1   
    52   29   30 1   
    53   29   53 1   
    54   29   54 1   
    55   30   31 1   
    56   30   55 1   
    57   30   56 1   
    58   31   32 1   
    59   31   33 2   
    60   32   58 1   
    61   34   57 1   
    62   34   61 1   
@<TRIPOS>SUBSTRUCTURE
     1 EEC         1 TEMP              0 ****  ****    0 ROOT
