@<TRIPOS>MOLECULE
EED
   51    54     1     0     0
SMALL
bcc


@<TRIPOS>ATOM
      1 C9         -0.0410    0.1460    0.0400 c3        1 EED     -0.002400
      2 C10         1.4540    0.2460    0.0700 ca        1 EED     -0.105300
      3 C1          2.1190    0.5090    1.2780 ca        1 EED     -0.091000
      4 C2          3.5050    0.5270    1.3590 ca        1 EED     -0.160000
      5 C3          4.2550    0.2710    0.2010 ca        1 EED      0.122100
      6 O3          5.6260    0.2990    0.3320 oh        1 EED     -0.499100
      7 C4          3.6170    0.0050   -1.0140 ca        1 EED     -0.221000
      8 C5          2.2180   -0.0110   -1.0810 ca        1 EED     -0.035300
      9 C6          1.6030   -0.2880   -2.4090 c3        1 EED     -0.037100
     10 C7          0.1380   -0.6500   -2.3200 c3        1 EED     -0.073400
     11 C8         -0.5820    0.3100   -1.3910 c3        1 EED     -0.047700
     12 C14        -2.0680    0.0340   -1.3460 c3        1 EED     -0.067700
     13 C15        -2.8840   -0.0400   -2.6300 c3        1 EED     -0.067400
     14 C16        -4.3290    0.1770   -2.1720 c3        1 EED     -0.117400
     15 C17        -4.2710    0.6580   -0.7040 c3        1 EED      0.140100
     16 O17        -5.1360    1.7520   -0.4600 oh        1 EED     -0.591800
     17 C13        -2.7960    1.0960   -0.4930 c3        1 EED     -0.044000
     18 C18        -2.6480    2.5110   -1.0260 c3        1 EED     -0.077100
     19 C12        -2.2890    0.9750    0.9320 c3        1 EED     -0.059400
     20 C11        -0.7650    1.0420    1.0560 c3        1 EED     -0.058700
     21 C19        -0.2680    2.4870    1.0570 c3        1 EED      0.126400
     22 O20         0.2710    2.7280    2.3620 os        1 EED     -0.433600
     23 C21         0.7690    4.0460    2.5080 c3        1 EED      0.116700
     24 H9         -0.2800   -0.9180    0.3540 hc        1 EED      0.053700
     25 H1          1.5350    0.7290    2.1880 ha        1 EED      0.155000
     26 H2          4.0190    0.7350    2.3070 ha        1 EED      0.150000
     27 HO3         6.0110    0.1010   -0.5340 ho        1 EED      0.416000
     28 H4          4.2100   -0.1940   -1.9180 ha        1 EED      0.130000
     29 H61         2.1620   -1.1200   -2.9170 hc        1 EED      0.050200
     30 H62         1.7230    0.6300   -3.0490 hc        1 EED      0.050200
     31 H71         0.0230   -1.7000   -1.9440 hc        1 EED      0.044700
     32 H72        -0.3250   -0.6060   -3.3410 hc        1 EED      0.044700
     33 H8         -0.3880    1.3590   -1.7460 hc        1 EED      0.061700
     34 H14        -2.2010   -0.9650   -0.8290 hc        1 EED      0.046700
     35 H151       -2.5690    0.7560   -3.3500 hc        1 EED      0.045700
     36 H152       -2.7590   -1.0280   -3.1350 hc        1 EED      0.045700
     37 H161       -4.8330    0.9480   -2.8060 hc        1 EED      0.047700
     38 H162       -4.9150   -0.7700   -2.2440 hc        1 EED      0.047700
     39 H17        -4.5290   -0.1830   -0.0040 h1        1 EED      0.034700
     40 HO17       -6.0260    1.4460   -0.6730 ho        1 EED      0.399000
     41 H181       -3.1160    2.5900   -2.0380 hc        1 EED      0.040367
     42 H182       -1.5790    2.8140   -1.1090 hc        1 EED      0.040367
     43 H183       -3.1760    3.2210   -0.3440 hc        1 EED      0.040367
     44 H121       -2.7450    1.7810    1.5650 hc        1 EED      0.048700
     45 H122       -2.6290   -0.0110    1.3510 hc        1 EED      0.048700
     46 H11        -0.5270    0.6190    2.0800 hc        1 EED      0.068700
     47 H191        0.5340    2.6460    0.2880 h1        1 EED      0.038200
     48 H192       -1.1030    3.2170    0.8800 h1        1 EED      0.038200
     49 H211        1.5960    4.2390    1.7800 h1        1 EED      0.032033
     50 H212       -0.0480    4.7950    2.3610 h1        1 EED      0.032033
     51 H213        1.1530    4.0870    3.5580 h1        1 EED      0.032033
@<TRIPOS>BOND
     1    1    2 1   
     2    1   11 1   
     3    1   20 1   
     4    1   24 1   
     5    2    3 ar  
     6    2    8 ar  
     7    3    4 ar  
     8    3   25 1   
     9    4    5 ar  
    10    4   26 1   
    11    5    6 1   
    12    5    7 ar  
    13    6   27 1   
    14    7    8 ar  
    15    7   28 1   
    16    8    9 1   
    17    9   10 1   
    18    9   29 1   
    19    9   30 1   
    20   10   11 1   
    21   10   31 1   
    22   10   32 1   
    23   11   12 1   
    24   11   33 1   
    25   12   13 1   
    26   12   17 1   
    27   12   34 1   
    28   13   14 1   
    29   13   35 1   
    30   13   36 1   
    31   14   15 1   
    32   14   37 1   
    33   14   38 1   
    34   15   16 1   
    35   15   17 1   
    36   15   39 1   
    37   16   40 1   
    38   17   18 1   
    39   17   19 1   
    40   18   41 1   
    41   18   42 1   
    42   18   43 1   
    43   19   20 1   
    44   19   44 1   
    45   19   45 1   
    46   20   21 1   
    47   20   46 1   
    48   21   22 1   
    49   21   47 1   
    50   21   48 1   
    51   22   23 1   
    52   23   49 1   
    53   23   50 1   
    54   23   51 1   
@<TRIPOS>SUBSTRUCTURE
     1 EED         1 TEMP              0 ****  ****    0 ROOT
