@<TRIPOS>MOLECULE
EED
   51    54     1     0     0
SMALL
bcc


@<TRIPOS>ATOM
      1 C9         -0.0330    0.1520    0.0280 c3        1 EED     -0.002400
      2 C10         1.4620    0.2520    0.0300 ca        1 EED     -0.106300
      3 C1          2.1470    0.5480    1.2160 ca        1 EED     -0.085000
      4 C2          3.5370    0.5650    1.2690 ca        1 EED     -0.216000
      5 C3          4.2660    0.2760    0.1090 ca        1 EED      0.122100
      6 O3          5.6430    0.2700    0.0750 oh        1 EED     -0.500100
      7 C4          3.6070   -0.0250   -1.0890 ca        1 EED     -0.166000
      8 C5          2.2090   -0.0400   -1.1280 ca        1 EED     -0.039300
      9 C6          1.5690   -0.3540   -2.4360 c3        1 EED     -0.037100
     10 C7          0.1060   -0.7150   -2.3100 c3        1 EED     -0.073400
     11 C8         -0.5990    0.2730   -1.3980 c3        1 EED     -0.047700
     12 C14        -2.0830   -0.0030   -1.3180 c3        1 EED     -0.067700
     13 C15        -2.9210   -0.1140   -2.5840 c3        1 EED     -0.067400
     14 C16        -4.3590    0.1160   -2.1080 c3        1 EED     -0.117400
     15 C17        -4.2750    0.6390   -0.6560 c3        1 EED      0.140100
     16 O17        -5.1370    1.7390   -0.4280 oh        1 EED     -0.591800
     17 C13        -2.7970    1.0850   -0.4840 c3        1 EED     -0.044000
     18 C18        -2.6610    2.4830   -1.0630 c3        1 EED     -0.077100
     19 C12        -2.2650    1.0060    0.9350 c3        1 EED     -0.059400
     20 C11        -0.7390    1.0780    1.0280 c3        1 EED     -0.058700
     21 C19        -0.2430    2.5230    0.9750 c3        1 EED      0.126400
     22 O20         0.3250    2.8050    2.2590 os        1 EED     -0.434600
     23 C21         0.8080    4.1330    2.3570 c3        1 EED      0.116700
     24 H9         -0.2660   -0.9020    0.3780 hc        1 EED      0.053700
     25 H1          1.5810    0.7960    2.1300 ha        1 EED      0.153000
     26 H2          4.0540    0.8030    2.2080 ha        1 EED      0.133000
     27 HO3         5.9610    0.4850    0.9630 ho        1 EED      0.417000
     28 H4          4.1950   -0.2510   -1.9900 ha        1 EED      0.147000
     29 H61         1.6760    0.5460   -3.1030 hc        1 EED      0.052700
     30 H62         2.1190   -1.1990   -2.9310 hc        1 EED      0.052700
     31 H71        -0.3750   -0.7010   -3.3230 hc        1 EED      0.045200
     32 H72        -0.0010   -1.7530   -1.9010 hc        1 EED      0.045200
     33 H8         -0.4110    1.3100   -1.7880 hc        1 EED      0.061700
     34 H14        -2.2060   -0.9850   -0.7690 hc        1 EED      0.045700
     35 H151       -2.6210    0.6590   -3.3330 hc        1 EED      0.045700
     36 H152       -2.8050   -1.1170   -3.0620 hc        1 EED      0.045700
     37 H161       -4.9450   -0.8340   -2.1410 hc        1 EED      0.047700
     38 H162       -4.8750    0.8670   -2.7550 hc        1 EED      0.047700
     39 H17        -4.5200   -0.1810    0.0730 h1        1 EED      0.034700
     40 HO17       -6.0300    1.4280   -0.6200 ho        1 EED      0.399000
     41 H181       -1.5930    2.7840   -1.1750 hc        1 EED      0.040367
     42 H182       -3.1770    3.2130   -0.3920 hc        1 EED      0.040367
     43 H183       -3.1480    2.5310   -2.0670 hc        1 EED      0.040367
     44 H121       -2.7100    1.8310    1.5510 hc        1 EED      0.048700
     45 H122       -2.5960    0.0330    1.3880 hc        1 EED      0.048700
     46 H11        -0.4820    0.6880    2.0610 hc        1 EED      0.067700
     47 H191       -1.0830    3.2470    0.7940 h1        1 EED      0.038700
     48 H192        0.5400    2.6590    0.1830 h1        1 EED      0.038700
     49 H211        1.6130    4.3180    1.6040 h1        1 EED      0.031700
     50 H212        1.2180    4.2070    3.3960 h1        1 EED      0.031700
     51 H213       -0.0230    4.8670    2.2120 h1        1 EED      0.031700
@<TRIPOS>BOND
     1    1    2 1   
     2    1   11 1   
     3    1   20 1   
     4    1   24 1   
     5    2    3 ar  
     6    2    8 ar  
     7    3    4 ar  
     8    3   25 1   
     9    4    5 ar  
    10    4   26 1   
    11    5    6 1   
    12    5    7 ar  
    13    6   27 1   
    14    7    8 ar  
    15    7   28 1   
    16    8    9 1   
    17    9   10 1   
    18    9   29 1   
    19    9   30 1   
    20   10   11 1   
    21   10   31 1   
    22   10   32 1   
    23   11   12 1   
    24   11   33 1   
    25   12   13 1   
    26   12   17 1   
    27   12   34 1   
    28   13   14 1   
    29   13   35 1   
    30   13   36 1   
    31   14   15 1   
    32   14   37 1   
    33   14   38 1   
    34   15   16 1   
    35   15   17 1   
    36   15   39 1   
    37   16   40 1   
    38   17   18 1   
    39   17   19 1   
    40   18   41 1   
    41   18   42 1   
    42   18   43 1   
    43   19   20 1   
    44   19   44 1   
    45   19   45 1   
    46   20   21 1   
    47   20   46 1   
    48   21   22 1   
    49   21   47 1   
    50   21   48 1   
    51   22   23 1   
    52   23   49 1   
    53   23   50 1   
    54   23   51 1   
@<TRIPOS>SUBSTRUCTURE
     1 EED         1 TEMP              0 ****  ****    0 ROOT
