@<TRIPOS>MOLECULE
EED
   51    54     1     0     0
SMALL
bcc


@<TRIPOS>ATOM
      1 C9         -0.2490    0.2630    0.6990 c3        1 EED     -0.002400
      2 C10        -1.7130    0.1910    0.3910 ca        1 EED     -0.106300
      3 C1         -2.4750   -0.8970    0.8390 ca        1 EED     -0.085000
      4 C2         -3.8500   -0.9520    0.6420 ca        1 EED     -0.216000
      5 C3         -4.4870    0.1070   -0.0190 ca        1 EED      0.122100
      6 O3         -5.8440    0.1320   -0.2540 oh        1 EED     -0.500100
      7 C4         -3.7490    1.2050   -0.4760 ca        1 EED     -0.166000
      8 C5         -2.3670    1.2480   -0.2690 ca        1 EED     -0.039300
      9 C6         -1.6390    2.4380   -0.7920 c3        1 EED     -0.037100
     10 C7         -0.2510    2.5880   -0.2120 c3        1 EED     -0.073400
     11 C8          0.4700    1.2520   -0.2340 c3        1 EED     -0.047700
     12 C14         1.8950    1.3800    0.2570 c3        1 EED     -0.067700
     13 C15         2.8390    2.4050   -0.3570 c3        1 EED     -0.067400
     14 C16         4.2370    1.9000    0.0120 c3        1 EED     -0.117400
     15 C17         4.0690    0.4660    0.5620 c3        1 EED      0.140100
     16 O17         5.0290   -0.4310    0.0340 oh        1 EED     -0.591800
     17 C13         2.6460    0.0370    0.1110 c3        1 EED     -0.044000
     18 C18         2.7390   -0.4560   -1.3230 c3        1 EED     -0.077100
     19 C12         1.9650   -0.9760    1.0130 c3        1 EED     -0.059400
     20 C11         0.4580   -1.0980    0.7800 c3        1 EED     -0.058700
     21 C19         0.1480   -2.0160   -0.4020 c3        1 EED      0.126400
     22 O20        -0.5110   -3.1670    0.1400 os        1 EED     -0.434600
     23 C21        -0.8380   -4.1220   -0.8530 c3        1 EED      0.116700
     24 H9         -0.1810    0.6990    1.7440 hc        1 EED      0.053700
     25 H1         -1.9800   -1.7440    1.3430 ha        1 EED      0.153000
     26 H2         -4.4290   -1.8150    0.9990 ha        1 EED      0.133000
     27 HO3        -6.2230   -0.6770    0.1180 ho        1 EED      0.417000
     28 H4         -4.2660    2.0270   -0.9920 ha        1 EED      0.147000
     29 H61        -1.5680    2.3420   -1.9110 hc        1 EED      0.052700
     30 H62        -2.2330    3.3670   -0.5790 hc        1 EED      0.052700
     31 H71         0.3300    3.3390   -0.8090 hc        1 EED      0.045200
     32 H72        -0.3120    2.9690    0.8410 hc        1 EED      0.045200
     33 H8          0.4500    0.8570   -1.2860 hc        1 EED      0.061700
     34 H14         1.8420    1.6200    1.3610 hc        1 EED      0.045700
     35 H151        2.7120    2.4530   -1.4670 hc        1 EED      0.045700
     36 H152        2.6520    3.4270    0.0540 hc        1 EED      0.045700
     37 H161        4.9030    1.8890   -0.8850 hc        1 EED      0.047700
     38 H162        4.7050    2.5560    0.7850 hc        1 EED      0.047700
     39 H17         4.1370    0.4640    1.6840 h1        1 EED      0.034700
     40 HO17        5.8930   -0.0780    0.2790 ho        1 EED      0.399000
     41 H181        3.3280    0.2670   -1.9390 hc        1 EED      0.040367
     42 H182        3.2680   -1.4400   -1.3430 hc        1 EED      0.040367
     43 H183        1.7320   -0.5750   -1.7880 hc        1 EED      0.040367
     44 H121        2.4420   -1.9820    0.8770 hc        1 EED      0.048700
     45 H122        2.1290   -0.6700    2.0820 hc        1 EED      0.048700
     46 H11         0.0510   -1.6140    1.7040 hc        1 EED      0.067700
     47 H191       -0.5280   -1.5160   -1.1440 h1        1 EED      0.038700
     48 H192        1.0830   -2.3580   -0.9220 h1        1 EED      0.038700
     49 H211       -1.5340   -3.6830   -1.6110 h1        1 EED      0.031700
     50 H212        0.0860   -4.4970   -1.3600 h1        1 EED      0.031700
     51 H213       -1.3400   -4.9500   -0.2940 h1        1 EED      0.031700
@<TRIPOS>BOND
     1    1    2 1   
     2    1   11 1   
     3    1   20 1   
     4    1   24 1   
     5    2    3 ar  
     6    2    8 ar  
     7    3    4 ar  
     8    3   25 1   
     9    4    5 ar  
    10    4   26 1   
    11    5    6 1   
    12    5    7 ar  
    13    6   27 1   
    14    7    8 ar  
    15    7   28 1   
    16    8    9 1   
    17    9   10 1   
    18    9   29 1   
    19    9   30 1   
    20   10   11 1   
    21   10   31 1   
    22   10   32 1   
    23   11   12 1   
    24   11   33 1   
    25   12   13 1   
    26   12   17 1   
    27   12   34 1   
    28   13   14 1   
    29   13   35 1   
    30   13   36 1   
    31   14   15 1   
    32   14   37 1   
    33   14   38 1   
    34   15   16 1   
    35   15   17 1   
    36   15   39 1   
    37   16   40 1   
    38   17   18 1   
    39   17   19 1   
    40   18   41 1   
    41   18   42 1   
    42   18   43 1   
    43   19   20 1   
    44   19   44 1   
    45   19   45 1   
    46   20   21 1   
    47   20   46 1   
    48   21   22 1   
    49   21   47 1   
    50   21   48 1   
    51   22   23 1   
    52   23   49 1   
    53   23   50 1   
    54   23   51 1   
@<TRIPOS>SUBSTRUCTURE
     1 EED         1 TEMP              0 ****  ****    0 ROOT
