@<TRIPOS>MOLECULE
EED
   51    52     1     0     0
SMALL
bcc


@<TRIPOS>ATOM
      1 C9          0.2870   -0.9130    0.0480 c3        1 EED     -0.049000
      2 C10         1.9880   -0.9090    0.0050 c2        1 EED     -0.094000
      3 C1          2.7620   -0.9480    1.1390 c2        1 EED     -0.092000
      4 C2          4.1480   -1.1500    1.0360 c1        1 EED     -0.215000
      5 C3          4.7570   -1.3160   -0.2540 c1        1 EED      0.078000
      6 O3          6.1760   -1.4600   -0.3620 oh        1 EED     -0.253000
      7 C4          3.9600   -1.2760   -1.4240 c1        1 EED     -0.161000
      8 C5          2.6180   -1.0800   -1.3250 c1        1 EED     -0.030000
      9 C6          1.5770   -1.2150   -2.6610 c3        1 EED     -0.124000
     10 C7          0.0790   -1.1670   -2.3550 c3        1 EED     -0.155000
     11 C8         -0.3160   -0.4760   -1.0420 c3        1 EED     -0.094000
     12 C14        -1.9510   -0.4950   -0.8860 c3        1 EED     -0.085000
     13 C15        -2.3160    0.3470   -1.8350 c3        1 EED     -0.157000
     14 C16        -2.9210    0.9730   -1.3880 c3        1 EED     -0.159000
     15 C17        -2.5070    0.9140    0.2330 c3        1 EED      0.040000
     16 O17        -1.0310    1.8090    0.5010 oh        1 EED     -0.339000
     17 C13        -2.3960    0.1700    0.3830 c3        1 EED     -0.075000
     18 C18        -3.8130   -0.3660    0.5940 c3        1 EED     -0.208000
     19 C12        -1.7990   -0.1890    1.4290 c3        1 EED     -0.140000
     20 C11        -0.2130   -0.1530    1.3060 c3        1 EED     -0.090000
     21 C19         0.2350    1.2500    1.2340 c3        1 EED     -0.034000
     22 O20        -0.3490    2.0140    2.3560 os        1 EED     -0.296000
     23 C21         0.6330    2.8430    3.0970 c3        1 EED     -0.077000
     24 H9          0.0260   -1.8010    0.1540 hc        1 EED      0.097000
     25 H1          2.3540   -0.8370    2.0030 ha        1 EED      0.135000
     26 H2          4.6900   -1.1970    1.8380 ha        1 EED      0.133000
     27 HO3         6.4140   -2.2930   -0.1140 ho        1 EED      0.217000
     28 H4          4.3850   -1.3920   -2.3250 ha        1 EED      0.149000
     29 H61         1.7790   -0.5050   -3.2680 hc        1 EED      0.093000
     30 H62         1.7680   -2.0640   -3.1090 hc        1 EED      0.093000
     31 H71        -0.2460   -2.0560   -2.3300 hc        1 EED      0.084500
     32 H72        -0.3730   -0.6920   -3.1020 hc        1 EED      0.084500
     33 H8         -0.0600    0.4580   -1.1390 hc        1 EED      0.105000
     34 H14        -2.3250   -1.3560   -1.0020 hc        1 EED      0.088000
     35 H151       -2.7970   -0.1380   -2.5680 hc        1 EED      0.082000
     36 H152       -1.5550    0.8080   -2.1820 hc        1 EED      0.082000
     37 H161       -3.8480    0.6920   -1.5130 hc        1 EED      0.094500
     38 H162       -2.7880    1.8950   -1.7430 hc        1 EED      0.094500
     39 H17        -3.2090    1.2580    0.7670 h1        1 EED      0.071000
     40 HO17       -1.2100    2.7090    0.4620 ho        1 EED      0.215000
     41 H181       -4.1170   -0.1380    1.4860 hc        1 EED      0.075667
     42 H182       -4.4120    0.0290   -0.0620 hc        1 EED      0.075667
     43 H183       -3.8110   -1.3480    0.4890 hc        1 EED      0.075667
     44 H121       -2.0810    0.4330    2.1980 hc        1 EED      0.086500
     45 H122       -2.0840   -1.1360    1.6550 hc        1 EED      0.086500
     46 H11         0.1730   -0.5700    2.1010 hc        1 EED      0.092000
     47 H191        1.2360    1.2820    1.2920 h1        1 EED      0.087500
     48 H192       -0.0550    1.6430    0.3870 h1        1 EED      0.087500
     49 H211        1.3580    2.2700    3.4320 h1        1 EED      0.074667
     50 H212        0.1680    3.2970    3.8820 h1        1 EED      0.074667
     51 H213        1.0130    3.5400    2.4840 h1        1 EED      0.074667
@<TRIPOS>BOND
     1    1    2 1   
     2    1   11 1   
     3    1   20 1   
     4    1   24 1   
     5    2    3 1   
     6    2    8 1   
     7    3    4 1   
     8    3   25 1   
     9    4   26 1   
    10    5    6 1   
    11    5    7 1   
    12    6   27 1   
    13    7   28 1   
    14    8    9 1   
    15    9   10 1   
    16    9   29 1   
    17    9   30 1   
    18   10   11 1   
    19   10   31 1   
    20   10   32 1   
    21   11   12 1   
    22   11   33 1   
    23   12   13 1   
    24   12   17 1   
    25   12   34 1   
    26   13   14 1   
    27   13   35 1   
    28   13   36 1   
    29   14   15 1   
    30   14   37 1   
    31   14   38 1   
    32   15   16 1   
    33   15   17 1   
    34   15   39 1   
    35   16   40 1   
    36   17   18 1   
    37   17   19 1   
    38   18   41 1   
    39   18   42 1   
    40   18   43 1   
    41   19   20 1   
    42   19   44 1   
    43   19   45 1   
    44   20   21 1   
    45   20   46 1   
    46   21   22 1   
    47   21   47 1   
    48   21   48 1   
    49   22   23 1   
    50   23   49 1   
    51   23   50 1   
    52   23   51 1   
@<TRIPOS>SUBSTRUCTURE
     1 EED         1 TEMP              0 ****  ****    0 ROOT
