@<TRIPOS>MOLECULE
EEE
   14    12     1     0     0
SMALL
bcc


@<TRIPOS>ATOM
      1 C1          0.8990   -0.0040    0.9280 c1        1 EEE      0.302000
      2 C2          2.4120   -0.0040    0.9280 c2        1 EEE     -0.218000
      3 O1          0.2920   -0.0040    1.9800 o         1 EEE     -0.357000
      4 O2          0.1970   -0.0030   -0.2890 os        1 EEE     -0.283000
      5 C3         -1.2040   -0.0040   -0.1390 c3        1 EEE     -0.012000
      6 C4         -1.8570    0.0090   -1.5040 c3        1 EEE     -0.218000
      7 H21         2.7370    0.0620    1.8460 ha        1 EEE      0.115000
      8 H22         2.7370    0.7590    0.4120 ha        1 EEE      0.115000
      9 H23         2.7370   -0.8310    0.5250 ha        1 EEE      0.115000
     10 H31        -1.4780    0.7890    0.3600 h1        1 EEE      0.091000
     11 H32        -1.4790   -0.8040    0.3460 h1        1 EEE      0.091000
     12 H41        -1.5730   -0.7770   -2.0080 hc        1 EEE      0.086667
     13 H42        -1.5930    0.8170   -1.9840 hc        1 EEE      0.086667
     14 H43        -2.8280   -0.0050   -1.4000 hc        1 EEE      0.086667
@<TRIPOS>BOND
     1    1    3 1   
     2    1    4 1   
     3    2    7 1   
     4    2    8 1   
     5    2    9 1   
     6    4    5 1   
     7    5    6 1   
     8    5   10 1   
     9    5   11 1   
    10    6   12 1   
    11    6   13 1   
    12    6   14 1   
@<TRIPOS>SUBSTRUCTURE
     1 EEE         1 TEMP              0 ****  ****    0 ROOT
