@<TRIPOS>MOLECULE
EEE
   14    13     1     0     0
SMALL
bcc


@<TRIPOS>ATOM
      1 C1         -1.0110    0.1130   -0.1180 c         1 EEE      0.631100
      2 C2         -2.1110   -0.8850   -0.0050 c3        1 EEE     -0.150100
      3 O1         -1.0920    1.3250   -0.3290 o         1 EEE     -0.546000
      4 O2          0.2300   -0.4370    0.0390 os        1 EEE     -0.444900
      5 C3          1.3500    0.4600   -0.0570 c3        1 EEE      0.138400
      6 C4          2.5860   -0.3810    0.1480 c3        1 EEE     -0.100100
      7 H21        -2.8020   -0.5690    0.8140 hc        1 EEE      0.075700
      8 H22        -2.6750   -0.9110   -0.9690 hc        1 EEE      0.075700
      9 H23        -1.7080   -1.9020    0.2180 hc        1 EEE      0.075700
     10 H31         1.3350    0.9460   -1.0670 h1        1 EEE      0.051700
     11 H32         1.2450    1.2510    0.7310 h1        1 EEE      0.051700
     12 H41         3.4870    0.2750    0.0820 hc        1 EEE      0.047367
     13 H42         2.5650   -0.8740    1.1490 hc        1 EEE      0.047367
     14 H43         2.6540   -1.1760   -0.6330 hc        1 EEE      0.047367
@<TRIPOS>BOND
     1    1    2 1   
     2    1    3 2   
     3    1    4 1   
     4    2    7 1   
     5    2    8 1   
     6    2    9 1   
     7    4    5 1   
     8    5    6 1   
     9    5   10 1   
    10    5   11 1   
    11    6   12 1   
    12    6   13 1   
    13    6   14 1   
@<TRIPOS>SUBSTRUCTURE
     1 EEE         1 TEMP              0 ****  ****    0 ROOT
