@<TRIPOS>MOLECULE
EEE
   14    13     1     0     0
SMALL
bcc


@<TRIPOS>ATOM
      1 C1         -0.0320    0.1050    0.0780 c         1 EEE      0.631100
      2 C2          1.4470    0.0070   -0.0670 c3        1 EEE     -0.150100
      3 O1         -0.6940    0.2850    1.1030 o         1 EEE     -0.546000
      4 O2         -0.6970   -0.0290   -1.1090 os        1 EEE     -0.444900
      5 C3         -2.1320    0.0540   -1.0570 c3        1 EEE      0.138400
      6 C4         -2.6190   -0.1220   -2.4750 c3        1 EEE     -0.100100
      7 H21         1.9080    0.9620    0.2850 hc        1 EEE      0.075700
      8 H22         1.8170   -0.8340    0.5690 hc        1 EEE      0.075700
      9 H23         1.7340   -0.1760   -1.1310 hc        1 EEE      0.075700
     10 H31        -2.5140   -0.7540   -0.3790 h1        1 EEE      0.051700
     11 H32        -2.4190    1.0520   -0.6340 h1        1 EEE      0.051700
     12 H41        -3.7330   -0.0650   -2.4860 hc        1 EEE      0.047367
     13 H42        -2.2040    0.6780   -3.1340 hc        1 EEE      0.047367
     14 H43        -2.2980   -1.1110   -2.8800 hc        1 EEE      0.047367
@<TRIPOS>BOND
     1    1    2 1   
     2    1    3 2   
     3    1    4 1   
     4    2    7 1   
     5    2    8 1   
     6    2    9 1   
     7    4    5 1   
     8    5    6 1   
     9    5   10 1   
    10    5   11 1   
    11    6   12 1   
    12    6   13 1   
    13    6   14 1   
@<TRIPOS>SUBSTRUCTURE
     1 EEE         1 TEMP              0 ****  ****    0 ROOT
