@<TRIPOS>MOLECULE
EEE
   14    13     1     0     0
SMALL
bcc


@<TRIPOS>ATOM
      1 C1         -0.0330    0.0990    0.0790 c         1 EEE      0.631100
      2 C2          1.4470    0.0310   -0.0690 c3        1 EEE     -0.150100
      3 O1         -0.6970    0.2460    1.1080 o         1 EEE     -0.546000
      4 O2         -0.6960   -0.0220   -1.1100 os        1 EEE     -0.444900
      5 C3         -2.1330    0.0330   -1.0550 c3        1 EEE      0.138400
      6 C4         -2.6180   -0.1210   -2.4760 c3        1 EEE     -0.100100
      7 H21         1.8920    0.9850    0.3060 hc        1 EEE      0.075700
      8 H22         1.8330   -0.8180    0.5470 hc        1 EEE      0.075700
      9 H23         1.7370   -0.1210   -1.1360 hc        1 EEE      0.075700
     10 H31        -2.4990   -0.7950   -0.3940 h1        1 EEE      0.051700
     11 H32        -2.4370    1.0170   -0.6120 h1        1 EEE      0.051700
     12 H41        -3.7330   -0.0840   -2.4860 hc        1 EEE      0.047367
     13 H42        -2.2180    0.7000   -3.1180 hc        1 EEE      0.047367
     14 H43        -2.2800   -1.0960   -2.9020 hc        1 EEE      0.047367
@<TRIPOS>BOND
     1    1    2 1   
     2    1    3 2   
     3    1    4 1   
     4    2    7 1   
     5    2    8 1   
     6    2    9 1   
     7    4    5 1   
     8    5    6 1   
     9    5   10 1   
    10    5   11 1   
    11    6   12 1   
    12    6   13 1   
    13    6   14 1   
@<TRIPOS>SUBSTRUCTURE
     1 EEE         1 TEMP              0 ****  ****    0 ROOT
