@<TRIPOS>MOLECULE
EEF
   62    63     1     0     0
SMALL
bcc


@<TRIPOS>ATOM
      1 C1          0.8350   -0.4540    1.3290 c3        1 EEF     -0.141400
      2 N1         -0.7380    0.6650   -0.2100 n         1 EEF     -0.541900
      3 C2         -0.5310    0.1520    1.0500 c         1 EEF      0.654100
      4 N2         -3.6430   -0.1210   -0.1670 n         1 EEF     -0.534900
      5 O2         -1.4300    0.1410    1.9220 o         1 EEF     -0.654100
      6 C3         -1.8320    1.5620   -0.4990 c3        1 EEF      0.042700
      7 C4         -1.4400    2.6400   -1.5240 c3        1 EEF     -0.069400
      8 C5         -0.4130    3.6090   -0.9890 c3        1 EEF     -0.188400
      9 O6          1.3700    2.0990   -1.6670 o         1 EEF     -0.860300
     10 O7          1.8070    3.5600   -0.0650 o         1 EEF     -0.860300
     11 C8          1.0090    3.0530   -0.9080 c         1 EEF      0.893600
     12 C9         -3.0800    0.8010   -1.0240 c         1 EEF      0.653100
     13 C10        -4.9200   -0.7390   -0.4370 c3        1 EEF      0.031700
     14 C11        -4.9310   -2.2480   -0.1040 c3        1 EEF     -0.070400
     15 C12        -5.6820   -3.0630   -1.1370 c3        1 EEF     -0.203400
     16 C13        -6.0830   -0.0520    0.3240 c         1 EEF      0.618100
     17 C14         1.8410    0.6400    1.6450 c3        1 EEF     -0.058100
     18 C15         3.7840    0.8720    0.0970 ca        1 EEF     -0.121500
     19 C16         5.0760    0.5390   -0.2990 ca        1 EEF     -0.129000
     20 C17         5.8290   -0.3990    0.4240 cp        1 EEF     -0.080000
     21 C18         3.2200    0.2640    1.2280 ca        1 EEF     -0.056300
     22 C19         7.1830   -0.7470    0.0030 cp        1 EEF      0.002000
     23 C20         8.1940   -0.9700    0.9510 ca        1 EEF     -0.127000
     24 C21         9.4840   -1.3040    0.5450 ca        1 EEF     -0.136500
     25 C22         8.7890   -1.1990   -1.7610 ca        1 EEF     -0.136500
     26 C23         7.4970   -0.8650   -1.3600 ca        1 EEF     -0.127000
     27 C27         9.7860   -1.4200   -0.8110 ca        1 EEF     -0.152000
     28 C30         5.2610   -1.0000    1.5560 ca        1 EEF     -0.129000
     29 C31         3.9670   -0.6710    1.9520 ca        1 EEF     -0.121500
     30 C32        -6.7350   -3.9830   -0.4990 c         1 EEF      0.906600
     31 O33        -6.6170   -5.2320   -0.6430 o         1 EEF     -0.853800
     32 O34        -7.7040   -3.4460    0.1250 o         1 EEF     -0.853800
     33 H1          0.7330   -1.1530    2.1990 hc        1 EEF      0.059700
     34 H1A         1.1770   -1.0550    0.4460 hc        1 EEF      0.059700
     35 HN1         0.0560    0.7490   -0.8250 hn        1 EEF      0.362500
     36 HN2        -3.3320   -0.1340    0.7810 hn        1 EEF      0.335500
     37 H3         -2.1550    2.0750    0.4610 h1        1 EEF      0.071700
     38 HN3        -8.0580   -0.2060    0.7270 hn        1 EEF      0.317000
     39 HN3A       -7.4560   -1.5020   -0.1750 hn        1 EEF      0.317000
     40 H4         -1.0460    2.1500   -2.4540 hc        1 EEF      0.058700
     41 H4A        -2.3770    3.1900   -1.8000 hc        1 EEF      0.058700
     42 H5         -0.3750    4.5020   -1.6660 hc        1 EEF      0.033200
     43 H5A        -0.7110    3.9700    0.0290 hc        1 EEF      0.033200
     44 H10        -5.1300   -0.5990   -1.5430 h1        1 EEF      0.098700
     45 H11        -3.8780   -2.6310   -0.0370 hc        1 EEF      0.050700
     46 H11A       -5.3920   -2.4000    0.9080 hc        1 EEF      0.050700
     47 H12        -6.2150   -2.4040   -1.8690 hc        1 EEF      0.032700
     48 H12A       -4.9600   -3.6900   -1.7180 hc        1 EEF      0.032700
     49 H14         1.5590    1.6020    1.1180 hc        1 EEF      0.082200
     50 H14A        1.8250    0.8500    2.7480 hc        1 EEF      0.082200
     51 H15         3.1810    1.6210   -0.4750 ha        1 EEF      0.176000
     52 H16         5.5110    1.0250   -1.1840 ha        1 EEF      0.120000
     53 H20         7.9610   -0.8720    2.0220 ha        1 EEF      0.138500
     54 H21        10.2670   -1.4740    1.2980 ha        1 EEF      0.118000
     55 H22         9.0210   -1.2900   -2.8320 ha        1 EEF      0.118000
     56 H23         6.7110   -0.6960   -2.1120 ha        1 EEF      0.138500
     57 H27        10.8030   -1.6830   -1.1300 ha        1 EEF      0.115000
     58 H30         5.8360   -1.7420    2.1280 ha        1 EEF      0.120000
     59 H31         3.5270   -1.1500    2.8380 ha        1 EEF      0.176000
     60 O1         -3.5330    1.0120   -2.1680 o         1 EEF     -0.641100
     61 N3         -7.3490   -0.5460    0.1210 n         1 EEF     -0.645000
     62 O5         -5.9110    0.9600    1.0430 o         1 EEF     -0.666100
@<TRIPOS>BOND
     1    1    3 1   
     2    1   17 1   
     3    1   33 1   
     4    1   34 1   
     5    2    3 1   
     6    2    6 1   
     7    2   35 1   
     8    3    5 2   
     9    4   12 1   
    10    4   13 1   
    11    4   36 1   
    12    6    7 1   
    13    6   12 1   
    14    6   37 1   
    15    7    8 1   
    16    7   40 1   
    17    7   41 1   
    18    8   11 1   
    19    8   42 1   
    20    8   43 1   
    21    9   11 1   
    22   10   11 1   
    23   12   60 2   
    24   13   14 1   
    25   13   16 1   
    26   13   44 1   
    27   14   15 1   
    28   14   45 1   
    29   14   46 1   
    30   15   30 1   
    31   15   47 1   
    32   15   48 1   
    33   16   61 1   
    34   16   62 2   
    35   17   21 1   
    36   17   49 1   
    37   17   50 1   
    38   18   19 ar  
    39   18   21 ar  
    40   18   51 1   
    41   19   20 ar  
    42   19   52 1   
    43   20   22 1   
    44   20   28 ar  
    45   21   29 ar  
    46   22   23 ar  
    47   22   26 ar  
    48   23   24 ar  
    49   23   53 1   
    50   24   27 ar  
    51   24   54 1   
    52   25   26 ar  
    53   25   27 ar  
    54   25   55 1   
    55   26   56 1   
    56   27   57 1   
    57   28   29 ar  
    58   28   58 1   
    59   29   59 1   
    60   30   31 1   
    61   30   32 1   
    62   38   61 1   
    63   39   61 1   
@<TRIPOS>SUBSTRUCTURE
     1 EEF         1 TEMP              0 ****  ****    0 ROOT
