@<TRIPOS>MOLECULE
EEF
   62    57     1     0     0
SMALL
bcc


@<TRIPOS>ATOM
      1 C1         -1.2100   -1.4690   -0.0130 c3        1 EEF     -0.168000
      2 N1          0.9420   -1.9030   -1.3050 n         1 EEF     -0.346000
      3 O1          2.2960    0.2090   -2.3020 o         1 EEF     -0.399000
      4 C2          0.2440   -1.9030   -0.0660 c2        1 EEF      0.293000
      5 N2          4.1510   -0.1640   -1.0240 n         1 EEF     -0.344000
      6 O2          0.8050   -2.2660    0.9480 o         1 EEF     -0.418000
      7 C3          2.3640   -1.9430   -1.3200 c3        1 EEF      0.009000
      8 N3          5.2200    2.4570   -3.3040 n         1 EEF     -0.404000
      9 C4          2.8310   -2.8780   -2.4130 c3        1 EEF     -0.142000
     10 C5          3.3190   -4.1710   -1.7960 c3        1 EEF     -0.226000
     11 O5          6.0330    0.3570   -2.9220 o         1 EEF     -0.428000
     12 O6          3.3880   -5.8390   -3.5260 o         1 EEF     -0.595000
     13 O7          5.2640   -4.8350   -3.0440 o         1 EEF     -0.595000
     14 C8          4.0300   -4.9950   -2.8470 c2        1 EEF      0.330000
     15 C9          2.9050   -0.5550   -1.5800 c2        1 EEF      0.298000
     16 C10         4.6230    1.1650   -1.2020 c3        1 EEF      0.005000
     17 C11         5.5810    1.5140   -0.0850 c3        1 EEF     -0.149000
     18 C12         5.1520    2.8140    0.5600 c3        1 EEF     -0.232000
     19 C13         5.3360    1.2730   -2.5310 c2        1 EEF      0.262000
     20 C14        -1.6230   -1.2560    1.4300 c3        1 EEF     -0.149000
     21 C15        -4.1350   -1.3530    1.5100 c1        1 EEF     -0.111000
     22 C16        -5.3710   -0.7450    1.6720 c1        1 EEF     -0.122500
     23 C17        -5.4550    0.6340    1.7970 c1        1 EEF     -0.040000
     24 C18        -2.9820   -0.5820    1.4750 c2        1 EEF     -0.047000
     25 C19        -6.6930    1.2440    1.9330 c1        1 EEF     -0.040000
     26 C20        -7.3710    1.6930    0.8100 c1        1 EEF     -0.137250
     27 C21        -8.5860    2.3460    0.9480 c1        1 EEF     -0.137250
     28 C22        -8.4470    2.1010    3.3330 c1        1 EEF     -0.137250
     29 C23        -7.2320    1.4480    3.1950 c1        1 EEF     -0.122500
     30 C27        -9.1240    2.5500    2.2100 c1        1 EEF     -0.137250
     31 C30        -4.3040    1.4050    1.7620 c1        1 EEF     -0.132000
     32 C31        -3.0670    0.7970    1.6010 c2        1 EEF     -0.143000
     33 C32         6.3210    3.4160    1.3060 c2        1 EEF      0.326000
     34 O33         6.5600    3.0640    2.4920 o         1 EEF     -0.588000
     35 O34         7.0360    4.2930    0.7540 o         1 EEF     -0.588000
     36 H1         -1.3200   -0.6340   -0.5100 hc        1 EEF      0.100500
     37 H1A        -1.7720   -2.1630   -0.4140 hc        1 EEF      0.100500
     38 HN1         0.4790   -1.8640   -2.0890 hn        1 EEF      0.282000
     39 HN2         4.6490   -0.7650   -0.5520 hn        1 EEF      0.248000
     40 H3          2.6900   -2.2640   -0.4550 h1        1 EEF      0.107000
     41 HN3         5.5000    2.4640   -4.1740 hn        1 EEF      0.230500
     42 HN3A        4.8690    3.2140   -2.9310 hn        1 EEF      0.230500
     43 H4          2.0880   -3.0670   -3.0190 hc        1 EEF      0.095500
     44 H4A         3.5600   -2.4590   -2.9110 hc        1 EEF      0.095500
     45 H5          2.5560   -4.6750   -1.4480 hc        1 EEF      0.070500
     46 H5A         3.9370   -3.9710   -1.0660 hc        1 EEF      0.070500
     47 H10         3.8660    1.7840   -1.1870 h1        1 EEF      0.138000
     48 H11         5.5760    0.8000    0.5840 hc        1 EEF      0.090000
     49 H11A        6.4830    1.6130   -0.4490 hc        1 EEF      0.090000
     50 H12         4.4190    2.6410    1.1850 hc        1 EEF      0.072000
     51 H12A        4.8510    3.4370   -0.1320 hc        1 EEF      0.072000
     52 H14        -0.9630   -0.6890    1.8770 hc        1 EEF      0.121500
     53 H14A       -1.6720   -2.1200    1.8860 hc        1 EEF      0.121500
     54 H15        -4.0740   -2.3240    1.4400 ha        1 EEF      0.217000
     55 H16        -6.1810   -1.2880    1.7010 ha        1 EEF      0.136000
     56 H20        -6.9920    1.5490   -0.0780 ha        1 EEF      0.122750
     57 H21        -9.0670    2.6540    0.1560 ha        1 EEF      0.122750
     58 H22        -8.8250    2.2440    4.2210 ha        1 EEF      0.122750
     59 H23        -6.7580    1.1270    3.9850 ha        1 EEF      0.136000
     60 H27        -9.9820    3.0030    2.3070 ha        1 EEF      0.122750
     61 H30        -4.3600    2.3720    1.8820 ha        1 EEF      0.115000
     62 H31        -2.3580    1.4570    1.7330 ha        1 EEF      0.124000
@<TRIPOS>BOND
     1    1    4 1   
     2    1   20 1   
     3    1   36 1   
     4    1   37 1   
     5    2    4 1   
     6    2    7 1   
     7    2   38 1   
     8    3   15 1   
     9    4    6 1   
    10    5   15 1   
    11    5   16 1   
    12    5   39 1   
    13    7    9 1   
    14    7   15 1   
    15    7   40 1   
    16    8   19 1   
    17    8   41 1   
    18    8   42 1   
    19    9   10 1   
    20    9   43 1   
    21    9   44 1   
    22   10   14 1   
    23   10   45 1   
    24   10   46 1   
    25   11   19 1   
    26   12   14 1   
    27   13   14 1   
    28   16   17 1   
    29   16   19 1   
    30   16   47 1   
    31   17   18 1   
    32   17   48 1   
    33   17   49 1   
    34   18   33 1   
    35   18   50 1   
    36   18   51 1   
    37   20   24 1   
    38   20   52 1   
    39   20   53 1   
    40   21   24 1   
    41   21   54 1   
    42   22   23 1   
    43   22   55 1   
    44   24   32 1   
    45   25   29 1   
    46   26   27 1   
    47   26   56 1   
    48   27   57 1   
    49   28   30 1   
    50   28   58 1   
    51   29   59 1   
    52   30   60 1   
    53   31   32 1   
    54   31   61 1   
    55   32   62 1   
    56   33   34 1   
    57   33   35 1   
@<TRIPOS>SUBSTRUCTURE
     1 EEF         1 TEMP              0 ****  ****    0 ROOT
