@<TRIPOS>MOLECULE
EEG
   72    74     1     0     0
SMALL
bcc


@<TRIPOS>ATOM
      1 O2          0.3200    3.8890   -0.7750 o         1 EEG     -0.451100
      2 S7          2.8420   -1.6050    6.7420 ss        1 EEG      0.053200
      3 C11         1.2710    3.1200   -0.7370 c         1 EEG      0.554100
      4 C12         1.8210    2.3680    0.4360 c3        1 EEG     -0.158400
      5 C13         0.8320    2.3690    1.5930 c3        1 EEG     -0.023100
      6 C14         1.9280    2.5530    3.8370 ca        1 EEG     -0.112500
      7 C15         2.1040   -0.2220    4.0370 ca        1 EEG     -0.123000
      8 C16         2.5930    0.5790    5.0840 ca        1 EEG      0.033000
      9 C17         2.4930    1.9750    4.9700 ca        1 EEG     -0.123000
     10 C18         3.1810   -0.0260    6.2530 cc        1 EEG     -0.100100
     11 C19         4.0790    0.5740    7.1210 cd        1 EEG     -0.117000
     12 C20         4.4730   -0.3060    8.1810 cd        1 EEG     -0.057000
     13 C21         5.4070    0.0620    9.2260 ca        1 EEG     -0.023000
     14 C22         6.2280   -0.9100    9.8190 ca        1 EEG     -0.117500
     15 C23         7.1240   -0.5560   10.8250 ca        1 EEG     -0.128000
     16 C24         7.2110    0.7680   11.2530 ca        1 EEG     -0.121000
     17 C25         6.3980    1.7400   10.6700 ca        1 EEG     -0.128000
     18 C26         5.5020    1.3920    9.6620 ca        1 EEG     -0.117500
     19 C27         1.4480    1.7520    2.7960 ca        1 EEG     -0.122300
     20 C28         1.5380    0.3590    2.9080 ca        1 EEG     -0.112500
     21 C29         3.8450   -1.5370    8.0610 cc        1 EEG     -0.157100
     22 N2          2.0160    2.9290   -2.0470 n4        1 EEG     -0.488600
     23 C7          1.4130    1.8950   -2.8780 c2        1 EEG     -0.396200
     24 C6          1.8700    0.5900   -2.6370 c2        1 EEG      0.554300
     25 O1          2.7310    0.2320   -1.7990 o         1 EEG     -0.666300
     26 C8          0.4890    2.3370   -3.9520 c3        1 EEG      0.011800
     27 C9         -0.9390    2.5900   -3.5020 c3        1 EEG     -0.196400
     28 C10        -1.7300    1.3490   -3.2250 c         1 EEG      0.658100
     29 O4E        -1.3550    0.1730   -3.3260 o         1 EEG     -0.574000
     30 O4         -3.0170    1.4610   -2.8060 oh        1 EEG     -0.551100
     31 N1          1.2620   -0.5490   -3.4170 n4        1 EEG     -0.630800
     32 C2          2.2840   -1.3800   -4.1280 c3        1 EEG      0.044500
     33 C1          2.5490   -0.8070   -5.5430 c         1 EEG      0.654100
     34 O9          1.7390   -0.0070   -6.0580 o         1 EEG     -0.619100
     35 C3          1.8540   -2.8490   -4.2430 c3        1 EEG     -0.096400
     36 C4          2.3060   -3.6640   -3.0520 c3        1 EEG     -0.140400
     37 C5          3.7770   -3.9270   -3.0120 c         1 EEG      0.630100
     38 O8E         4.3930   -4.6580   -2.2380 o         1 EEG     -0.497000
     39 O8          4.5240   -3.2660   -3.9510 oh        1 EEG     -0.652100
     40 N9          3.6910   -1.2040   -6.1610 n         1 EEG     -0.632000
     41 H12         2.0710    1.3090    0.1420 hc        1 EEG      0.113200
     42 H12A        2.7790    2.8670    0.7540 hc        1 EEG      0.113200
     43 H13         0.5130    3.4240    1.8130 hc        1 EEG      0.068200
     44 H13A       -0.0890    1.7980    1.2970 hc        1 EEG      0.068200
     45 H14         1.8490    3.6490    3.7700 ha        1 EEG      0.130000
     46 H15         2.1710   -1.3190    4.1140 ha        1 EEG      0.144500
     47 H17         2.8570    2.6150    5.7880 ha        1 EEG      0.144500
     48 H19         4.4700    1.5900    7.0190 ha        1 EEG      0.157000
     49 H22         6.1650   -1.9560    9.4820 ha        1 EEG      0.131500
     50 H23         7.7630   -1.3260   11.2830 ha        1 EEG      0.135500
     51 H24         7.9180    1.0450   12.0490 ha        1 EEG      0.137000
     52 H25         6.4620    2.7850   11.0080 ha        1 EEG      0.135500
     53 H26         4.8560    2.1610    9.2130 ha        1 EEG      0.131500
     54 H28         1.1530   -0.2810    2.1010 ha        1 EEG      0.130000
     55 H29         3.9730   -2.3710    8.7520 h4        1 EEG      0.182000
     56 HN2         2.9860    2.6610   -1.8350 hn        1 EEG      0.451800
     57 H7         -3.2810    2.3930   -2.7620 ho        1 EEG      0.443000
     58 H8          0.4930    1.6010   -4.8040 hc        1 EEG      0.076700
     59 H8A         0.8670    3.3000   -4.4050 hc        1 EEG      0.076700
     60 H9         -1.4740    3.1600   -4.3120 hc        1 EEG      0.092200
     61 H9A        -0.9470    3.2270   -2.5750 hc        1 EEG      0.092200
     62 HN1         0.7480   -1.1380   -2.7510 hn        1 EEG      0.475800
     63 H2          3.2430   -1.3230   -3.5190 hx        1 EEG      0.145700
     64 H3          0.7390   -2.9370   -4.3560 hc        1 EEG      0.092700
     65 H3A         2.3070   -3.2870   -5.1740 hc        1 EEG      0.092700
     66 H4          1.7910   -4.6660   -3.0700 hc        1 EEG      0.101200
     67 H4A         2.0270   -3.1610   -2.0860 hc        1 EEG      0.101200
     68 HN9         5.4590   -3.5180   -3.8570 ho        1 EEG      0.465000
     69 HN9A        3.8800   -0.8880   -7.0830 hn        1 EEG      0.341500
     70 H221        2.0070    3.8090   -2.5760 hn        1 EEG      0.451800
     71 H121        0.5740   -0.1880   -4.1050 hn        1 EEG      0.475800
     72 H93         4.2930   -1.8730   -5.7430 hn        1 EEG      0.341500
@<TRIPOS>BOND
     1    1    3 2   
     2    2   10 1   
     3    2   21 1   
     4    3    4 1   
     5    3   22 1   
     6    4    5 1   
     7    4   41 1   
     8    4   42 1   
     9    5   19 1   
    10    5   43 1   
    11    5   44 1   
    12    6    9 ar  
    13    6   19 ar  
    14    6   45 1   
    15    7    8 ar  
    16    7   20 ar  
    17    7   46 1   
    18    8    9 ar  
    19    8   10 1   
    20    9   47 1   
    21   10   11 2   
    22   11   12 1   
    23   11   48 1   
    24   12   13 1   
    25   12   21 2   
    26   13   14 ar  
    27   13   18 ar  
    28   14   15 ar  
    29   14   49 1   
    30   15   16 ar  
    31   15   50 1   
    32   16   17 ar  
    33   16   51 1   
    34   17   18 ar  
    35   17   52 1   
    36   18   53 1   
    37   19   20 ar  
    38   20   54 1   
    39   21   55 1   
    40   22   23 1   
    41   22   56 1   
    42   22   70 1   
    43   23   24 2   
    44   23   26 1   
    45   24   25 1   
    46   24   31 1   
    47   26   27 1   
    48   26   58 1   
    49   26   59 1   
    50   27   28 1   
    51   27   60 1   
    52   27   61 1   
    53   28   29 2   
    54   28   30 1   
    55   30   57 1   
    56   31   32 1   
    57   31   62 1   
    58   31   71 1   
    59   32   33 1   
    60   32   35 1   
    61   32   63 1   
    62   33   34 2   
    63   33   40 1   
    64   35   36 1   
    65   35   64 1   
    66   35   65 1   
    67   36   37 1   
    68   36   66 1   
    69   36   67 1   
    70   37   38 2   
    71   37   39 1   
    72   39   68 1   
    73   40   69 1   
    74   40   72 1   
@<TRIPOS>SUBSTRUCTURE
     1 EEG         1 TEMP              0 ****  ****    0 ROOT
