@<TRIPOS>MOLECULE
EEG
   69    71     1     0     0
SMALL
bcc


@<TRIPOS>ATOM
      1 O2         -3.2550    0.0880   -1.9690 o         1 EEG     -0.653100
      2 S7          6.1550    2.3980   -1.0270 ss        1 EEG      0.008200
      3 C11        -2.2850   -0.0130   -1.1830 c         1 EEG      0.654100
      4 C12        -0.9520    0.6500   -1.4990 c3        1 EEG     -0.141400
      5 C13         0.0290   -0.3780   -2.0380 c3        1 EEG     -0.059100
      6 C14         2.1010   -0.7640   -0.7010 ca        1 EEG     -0.118500
      7 C15         3.4340    1.2920   -2.0480 ca        1 EEG     -0.127500
      8 C16         4.1060    0.5640   -1.0530 ca        1 EEG     -0.055000
      9 C17         3.4230   -0.4640   -0.3840 ca        1 EEG     -0.127500
     10 C18         5.4760    0.8760   -0.7260 cc        1 EEG     -0.000100
     11 C19         6.4050    0.0370   -0.1410 cd        1 EEG     -0.157000
     12 C20         7.6760    0.6800    0.0430 cd        1 EEG     -0.072000
     13 C21         8.8250    0.0280    0.6360 ca        1 EEG      0.008000
     14 C22        10.1270    0.4270    0.2950 ca        1 EEG     -0.123000
     15 C23        11.2320   -0.2000    0.8680 ca        1 EEG     -0.134000
     16 C24        11.0540   -1.2310    1.7890 ca        1 EEG     -0.144000
     17 C25         9.7640   -1.6350    2.1340 ca        1 EEG     -0.134000
     18 C26         8.6570   -1.0120    1.5640 ca        1 EEG     -0.123000
     19 C27         1.4370   -0.0330   -1.6970 ca        1 EEG     -0.052300
     20 C28         2.1130    0.9950   -2.3650 ca        1 EEG     -0.118500
     21 C29         7.6460    1.9860   -0.4190 cc        1 EEG     -0.188100
     22 N2         -2.3770   -0.6830    0.0150 n         1 EEG     -0.541900
     23 C7         -3.4320   -1.6330    0.2800 c3        1 EEG      0.042700
     24 C6         -4.6390   -0.9690    0.9990 c         1 EEG      0.653100
     25 O1         -4.9890   -1.3300    2.1430 o         1 EEG     -0.641100
     26 C8         -2.9410   -2.8200    1.1250 c3        1 EEG     -0.069400
     27 C9         -1.9550   -3.6940    0.3870 c3        1 EEG     -0.188400
     28 C10        -0.5530   -3.1010    0.2520 c         1 EEG      0.892600
     29 O4E         0.1720   -3.4810   -0.7160 o         1 EEG     -0.860300
     30 O4         -0.1340   -2.2410    1.0900 o         1 EEG     -0.860300
     31 N1         -5.2810    0.0420    0.3170 n         1 EEG     -0.534900
     32 C2         -6.5360    0.5960    0.7690 c3        1 EEG      0.031700
     33 C1         -7.7540   -0.0150    0.0280 c         1 EEG      0.618100
     34 O9         -7.6350   -0.9270   -0.8230 o         1 EEG     -0.666100
     35 C3         -6.5880    2.1340    0.6280 c3        1 EEG     -0.070400
     36 C4         -7.2560    2.8000    1.8140 c3        1 EEG     -0.203400
     37 C5         -8.3670    3.7720    1.3870 c         1 EEG      0.906600
     38 O8E        -9.3810    3.2970    0.7850 o         1 EEG     -0.853300
     39 O8         -8.2470    4.9950    1.6730 o         1 EEG     -0.853300
     40 N9         -9.0020    0.4260    0.3960 n         1 EEG     -0.645000
     41 H12        -1.1360    1.4510   -2.2600 hc        1 EEG      0.059700
     42 H12A       -0.5400    1.1400   -0.5790 hc        1 EEG      0.059700
     43 H13        -0.1980   -1.4030   -1.6150 hc        1 EEG      0.083700
     44 H13A       -0.0820   -0.4470   -3.1530 hc        1 EEG      0.083700
     45 H14         1.5530   -1.5830   -0.1720 ha        1 EEG      0.178000
     46 H15         3.9580    2.0990   -2.5810 ha        1 EEG      0.120500
     47 H17         3.9330   -1.0380    0.4040 ha        1 EEG      0.120500
     48 H19         6.2130   -1.0010    0.1380 ha        1 EEG      0.162000
     49 H22        10.2720    1.2360   -0.4360 ha        1 EEG      0.137000
     50 H23        12.2460    0.1210    0.5910 ha        1 EEG      0.123500
     51 H24        11.9260   -1.7250    2.2400 ha        1 EEG      0.120000
     52 H25         9.6190   -2.4480    2.8600 ha        1 EEG      0.123500
     53 H26         7.6410   -1.3320    1.8450 ha        1 EEG      0.137000
     54 H28         1.5950    1.5690   -3.1460 ha        1 EEG      0.178000
     55 H29         8.4810    2.6810   -0.3850 h4        1 EEG      0.159000
     56 HN2        -1.5330   -0.8250    0.5460 hn        1 EEG      0.362500
     57 H7         -3.8310   -2.0290   -0.7060 h1        1 EEG      0.071700
     58 H8         -2.4730   -2.4410    2.0710 hc        1 EEG      0.059200
     59 H8A        -3.8460   -3.4200    1.4090 hc        1 EEG      0.059200
     60 H9         -1.8470   -4.6610    0.9430 hc        1 EEG      0.033700
     61 H9A        -2.3380   -3.9350   -0.6380 hc        1 EEG      0.033700
     62 HN1        -5.0540    0.1780   -0.6460 hn        1 EEG      0.335500
     63 H2         -6.6490    0.3160    1.8620 h1        1 EEG      0.098700
     64 H3         -5.5490    2.5420    0.5230 hc        1 EEG      0.050700
     65 H3A        -7.1360    2.4010   -0.3140 hc        1 EEG      0.050700
     66 H4         -7.7190    2.0450    2.5000 hc        1 EEG      0.032700
     67 H4A        -6.4930    3.3640    2.4080 hc        1 EEG      0.032700
     68 HN9        -9.0920    1.3360    0.8170 hn        1 EEG      0.317000
     69 HN9A       -9.7570    0.1500   -0.1860 hn        1 EEG      0.317000
@<TRIPOS>BOND
     1    1    3 2   
     2    2   10 1   
     3    2   21 1   
     4    3    4 1   
     5    3   22 1   
     6    4    5 1   
     7    4   41 1   
     8    4   42 1   
     9    5   19 1   
    10    5   43 1   
    11    5   44 1   
    12    6    9 ar  
    13    6   19 ar  
    14    6   45 1   
    15    7    8 ar  
    16    7   20 ar  
    17    7   46 1   
    18    8    9 ar  
    19    8   10 1   
    20    9   47 1   
    21   10   11 2   
    22   11   12 1   
    23   11   48 1   
    24   12   13 1   
    25   12   21 2   
    26   13   14 ar  
    27   13   18 ar  
    28   14   15 ar  
    29   14   49 1   
    30   15   16 ar  
    31   15   50 1   
    32   16   17 ar  
    33   16   51 1   
    34   17   18 ar  
    35   17   52 1   
    36   18   53 1   
    37   19   20 ar  
    38   20   54 1   
    39   21   55 1   
    40   22   23 1   
    41   22   56 1   
    42   23   24 1   
    43   23   26 1   
    44   23   57 1   
    45   24   25 2   
    46   24   31 1   
    47   26   27 1   
    48   26   58 1   
    49   26   59 1   
    50   27   28 1   
    51   27   60 1   
    52   27   61 1   
    53   28   29 1   
    54   28   30 1   
    55   31   32 1   
    56   31   62 1   
    57   32   33 1   
    58   32   35 1   
    59   32   63 1   
    60   33   34 2   
    61   33   40 1   
    62   35   36 1   
    63   35   64 1   
    64   35   65 1   
    65   36   37 1   
    66   36   66 1   
    67   36   67 1   
    68   37   38 1   
    69   37   39 1   
    70   40   68 1   
    71   40   69 1   
@<TRIPOS>SUBSTRUCTURE
     1 EEG         1 TEMP              0 ****  ****    0 ROOT
