@<TRIPOS>MOLECULE
EEG
   72    74     1     0     0
SMALL
bcc


@<TRIPOS>ATOM
      1 O2         -0.8800    2.6870   -0.1810 o         1 EEG     -0.416100
      2 S7          4.8410   -1.8490    6.1290 ss        1 EEG      0.054200
      3 C11         0.3280    2.5300   -0.2300 c         1 EEG      0.559100
      4 C12         1.2710    1.9860    0.7980 c3        1 EEG     -0.159400
      5 C13         0.5080    1.2550    1.8950 c3        1 EEG     -0.021100
      6 C14         1.3970    1.4850    4.2240 ca        1 EEG     -0.111000
      7 C15         3.2280   -0.5710    3.7850 ca        1 EEG     -0.123500
      8 C16         3.1920    0.0660    5.0380 ca        1 EEG      0.039000
      9 C17         2.2600    1.0960    5.2450 ca        1 EEG     -0.123500
     10 C18         4.0930   -0.3370    6.0880 cc        1 EEG     -0.104100
     11 C19         4.4700    0.4260    7.1820 cd        1 EEG     -0.114000
     12 C20         5.3860   -0.2720    8.0350 cd        1 EEG     -0.056000
     13 C21         5.9460    0.2930    9.2470 ca        1 EEG     -0.025000
     14 C22         7.2270   -0.0830    9.6790 ca        1 EEG     -0.117000
     15 C23         7.7630    0.4590   10.8450 ca        1 EEG     -0.127500
     16 C24         7.0300    1.3790   11.5930 ca        1 EEG     -0.120000
     17 C25         5.7550    1.7570   11.1710 ca        1 EEG     -0.127500
     18 C26         5.2140    1.2200   10.0050 ca        1 EEG     -0.117000
     19 C27         1.4420    0.8510    2.9790 ca        1 EEG     -0.130300
     20 C28         2.3620   -0.1840    2.7700 ca        1 EEG     -0.111000
     21 C29         5.6560   -1.5390    7.5390 cc        1 EEG     -0.155100
     22 N2          0.9830    2.9830   -1.5320 ny        1 EEG     -0.685800
     23 C7          0.6670    2.0620   -2.6770 c3        1 EEG      0.030500
     24 C6          1.6130    0.8280   -2.6500 c         1 EEG      0.650100
     25 O1          2.6470    0.8740   -1.9520 o         1 EEG     -0.607100
     26 C8          0.8130    2.7630   -4.0370 c3        1 EEG     -0.117400
     27 C9         -0.5120    3.2570   -4.5730 c3        1 EEG     -0.144400
     28 C10        -1.4280    2.1230   -4.9180 c         1 EEG      0.649100
     29 O4E        -1.3900    0.9590   -4.4940 o         1 EEG     -0.593000
     30 O4         -2.4130    2.4490   -5.7830 oh        1 EEG     -0.571100
     31 N1          1.1930   -0.2740   -3.3550 ns        1 EEG     -0.486900
     32 C2          2.1840   -1.2060   -3.8730 c3        1 EEG      0.009700
     33 C1          2.9420   -0.6060   -5.0910 c         1 EEG      0.638100
     34 O9          2.5160    0.4250   -5.6630 o         1 EEG     -0.662100
     35 C3          1.5510   -2.5480   -4.2770 c3        1 EEG     -0.072400
     36 C4          1.6580   -3.5760   -3.1710 c3        1 EEG     -0.183400
     37 C5          3.0750   -4.0190   -2.9500 c         1 EEG      0.631100
     38 O8E         4.0920   -3.5170   -3.4380 o         1 EEG     -0.519000
     39 O8          3.3260   -5.0700   -2.1220 oh        1 EEG     -0.557100
     40 N9          4.0830   -1.2270   -5.4860 nt        1 EEG     -0.636000
     41 H12         1.8430    2.8490    1.2400 hc        1 EEG      0.119700
     42 H12A        2.0170    1.2870    0.3190 hc        1 EEG      0.119700
     43 H13        -0.3010    1.9210    2.2990 hc        1 EEG      0.070200
     44 H13A        0.0100    0.3470    1.4610 hc        1 EEG      0.070200
     45 H14         0.6680    2.2890    4.4090 ha        1 EEG      0.130500
     46 H15         3.9520   -1.3830    3.6080 ha        1 EEG      0.147000
     47 H17         2.2080    1.5950    6.2250 ha        1 EEG      0.147000
     48 H19         4.1370    1.4470    7.3820 ha        1 EEG      0.158000
     49 H22         7.8110   -0.8060    9.0890 ha        1 EEG      0.131000
     50 H23         8.7690    0.1580   11.1750 ha        1 EEG      0.136000
     51 H24         7.4550    1.8050   12.5140 ha        1 EEG      0.137000
     52 H25         5.1730    2.4800   11.7620 ha        1 EEG      0.136000
     53 H26         4.2050    1.5140    9.6830 ha        1 EEG      0.131000
     54 H28         2.3990   -0.6970    1.7970 ha        1 EEG      0.130500
     55 H29         6.3160   -2.2650    8.0150 h4        1 EEG      0.183000
     56 HN2         0.6540    3.9240   -1.7740 hn        1 EEG      0.465300
     57 H7         -0.4060    1.7160   -2.5400 hx        1 EEG      0.147700
     58 H8          1.2610    2.0340   -4.7800 hc        1 EEG      0.114200
     59 H8A         1.5330    3.6230   -3.9810 hc        1 EEG      0.114200
     60 H9         -1.0410    3.9160   -3.8340 hc        1 EEG      0.102200
     61 H9A        -0.3330    3.8690   -5.5020 hc        1 EEG      0.102200
     62 HN1        -2.9720    1.6720   -5.9670 ho        1 EEG      0.468000
     63 H2          2.9470   -1.3800   -3.0500 h1        1 EEG      0.117700
     64 H3          0.4690   -2.4200   -4.5520 hc        1 EEG      0.081200
     65 H3A         2.0730   -2.9430   -5.1890 hc        1 EEG      0.081200
     66 H4          1.0360   -4.4730   -3.4410 hc        1 EEG      0.086200
     67 H4A         1.2610   -3.1620   -2.2060 hc        1 EEG      0.086200
     68 HN9         2.4960   -5.4430   -1.7920 ho        1 EEG      0.434000
     69 HN9A        4.5960   -0.8650   -6.2540 hn        1 EEG      0.340000
     70 H221        2.0070    2.9990   -1.4050 hn        1 EEG      0.465300
     71 H121        0.3850   -0.1530   -3.9420 hn        1 EEG      0.344500
     72 H93         4.4290   -2.0250   -5.0050 hn        1 EEG      0.340000
@<TRIPOS>BOND
     1    1    3 2   
     2    2   10 1   
     3    2   21 1   
     4    3    4 1   
     5    3   22 1   
     6    4    5 1   
     7    4   41 1   
     8    4   42 1   
     9    5   19 1   
    10    5   43 1   
    11    5   44 1   
    12    6    9 ar  
    13    6   19 ar  
    14    6   45 1   
    15    7    8 ar  
    16    7   20 ar  
    17    7   46 1   
    18    8    9 ar  
    19    8   10 1   
    20    9   47 1   
    21   10   11 2   
    22   11   12 1   
    23   11   48 1   
    24   12   13 1   
    25   12   21 2   
    26   13   14 ar  
    27   13   18 ar  
    28   14   15 ar  
    29   14   49 1   
    30   15   16 ar  
    31   15   50 1   
    32   16   17 ar  
    33   16   51 1   
    34   17   18 ar  
    35   17   52 1   
    36   18   53 1   
    37   19   20 ar  
    38   20   54 1   
    39   21   55 1   
    40   22   23 1   
    41   22   56 1   
    42   22   70 1   
    43   23   24 1   
    44   23   26 1   
    45   23   57 1   
    46   24   25 2   
    47   24   31 1   
    48   26   27 1   
    49   26   58 1   
    50   26   59 1   
    51   27   28 1   
    52   27   60 1   
    53   27   61 1   
    54   28   29 2   
    55   28   30 1   
    56   30   62 1   
    57   31   32 1   
    58   31   71 1   
    59   32   33 1   
    60   32   35 1   
    61   32   63 1   
    62   33   34 2   
    63   33   40 1   
    64   35   36 1   
    65   35   64 1   
    66   35   65 1   
    67   36   37 1   
    68   36   66 1   
    69   36   67 1   
    70   37   38 2   
    71   37   39 1   
    72   39   68 1   
    73   40   69 1   
    74   40   72 1   
@<TRIPOS>SUBSTRUCTURE
     1 EEG         1 TEMP              0 ****  ****    0 ROOT
