@<TRIPOS>MOLECULE
EEG
   72    74     1     0     0
SMALL
bcc


@<TRIPOS>ATOM
      1 O2          0.1500    3.7840   -0.7000 o         1 EEG     -0.451100
      2 S7          3.1180   -1.6900    6.6670 ss        1 EEG      0.052200
      3 C11         1.1370    3.0620   -0.6930 c         1 EEG      0.554100
      4 C12         1.7470    2.3220    0.4580 c3        1 EEG     -0.158400
      5 C13         0.7770    2.2450    1.6280 c3        1 EEG     -0.023100
      6 C14         1.8370    2.4540    3.8880 ca        1 EEG     -0.113000
      7 C15         2.2890   -0.2950    3.9890 ca        1 EEG     -0.122500
      8 C16         2.6870    0.5110    5.0690 ca        1 EEG      0.033000
      9 C17         2.4500    1.8930    5.0050 ca        1 EEG     -0.122500
     10 C18         3.3230   -0.0750    6.2230 cc        1 EEG     -0.100100
     11 C19         4.1610    0.5760    7.1140 cd        1 EEG     -0.117000
     12 C20         4.6170   -0.2950    8.1570 cd        1 EEG     -0.057000
     13 C21         5.5050    0.1250    9.2230 ca        1 EEG     -0.023000
     14 C22         5.4240   -0.4730   10.4900 ca        1 EEG     -0.117500
     15 C23         6.2770   -0.0700   11.5140 ca        1 EEG     -0.128000
     16 C24         7.2210    0.9320   11.2890 ca        1 EEG     -0.121000
     17 C25         7.3080    1.5320   10.0320 ca        1 EEG     -0.128000
     18 C26         6.4560    1.1330    9.0050 ca        1 EEG     -0.117500
     19 C27         1.4480    1.6480    2.8130 ca        1 EEG     -0.122300
     20 C28         1.6750    0.2680    2.8760 ca        1 EEG     -0.113000
     21 C29         4.0960   -1.5700    8.0010 cc        1 EEG     -0.157100
     22 N2          1.8610    2.9250   -2.0210 n4        1 EEG     -0.488600
     23 C7          1.2890    1.8750   -2.8540 c2        1 EEG     -0.396200
     24 C6          1.8110    0.5900   -2.6430 c2        1 EEG      0.554300
     25 O1          2.7040    0.2600   -1.8290 o         1 EEG     -0.667300
     26 C8          0.3230    2.2900   -3.9030 c3        1 EEG      0.011800
     27 C9         -1.1050    2.4700   -3.4210 c3        1 EEG     -0.196400
     28 C10        -1.8320    1.1910   -3.1480 c         1 EEG      0.658100
     29 O4E        -1.4070    0.0350   -3.2740 o         1 EEG     -0.574000
     30 O4         -3.1150    1.2370   -2.7020 oh        1 EEG     -0.551100
     31 N1          1.2380   -0.5650   -3.4270 n4        1 EEG     -0.630800
     32 C2          2.2810   -1.3390   -4.1700 c3        1 EEG      0.044500
     33 C1          2.4910   -0.7350   -5.5810 c         1 EEG      0.654100
     34 O9          1.6370    0.0360   -6.0680 o         1 EEG     -0.619100
     35 C3          1.9150   -2.8240   -4.2990 c3        1 EEG     -0.096400
     36 C4          2.4260   -3.6340   -3.1290 c3        1 EEG     -0.140400
     37 C5          3.9090   -3.8310   -3.1210 c         1 EEG      0.630100
     38 O8E         4.5720   -4.5400   -2.3670 o         1 EEG     -0.497000
     39 O8          4.6060   -3.1260   -4.0660 oh        1 EEG     -0.652100
     40 N9          3.6370   -1.0720   -6.2280 n         1 EEG     -0.632000
     41 H12         2.0540    1.2850    0.1420 hc        1 EEG      0.113200
     42 H12A        2.6790    2.8720    0.7710 hc        1 EEG      0.113200
     43 H13        -0.1100    1.6220    1.3360 hc        1 EEG      0.068200
     44 H13A        0.3960    3.2740    1.8690 hc        1 EEG      0.068200
     45 H14         1.6510    3.5390    3.8590 ha        1 EEG      0.130000
     46 H15         2.4650   -1.3820    4.0260 ha        1 EEG      0.145000
     47 H17         2.7420    2.5360    5.8500 ha        1 EEG      0.145000
     48 H19         4.4520    1.6270    7.0500 ha        1 EEG      0.157000
     49 H22         4.6780   -1.2610   10.6740 ha        1 EEG      0.131500
     50 H23         6.2050   -0.5440   12.5050 ha        1 EEG      0.135500
     51 H24         7.8940    1.2490   12.0990 ha        1 EEG      0.137000
     52 H25         8.0520    2.3210    9.8500 ha        1 EEG      0.135500
     53 H26         6.5350    1.6040    8.0140 ha        1 EEG      0.131500
     54 H28         1.3610   -0.3770    2.0410 ha        1 EEG      0.130000
     55 H29         4.2980   -2.4110    8.6640 h4        1 EEG      0.182000
     56 HN2         2.8480    2.6990   -1.8340 hn        1 EEG      0.451800
     57 H7         -3.4190    2.1560   -2.6380 ho        1 EEG      0.443000
     58 H8          0.6480    3.2750   -4.3490 hc        1 EEG      0.076700
     59 H8A         0.3430    1.5670   -4.7660 hc        1 EEG      0.076700
     60 H9         -1.6820    3.0270   -4.2110 hc        1 EEG      0.092200
     61 H9A        -1.1230    3.0930   -2.4840 hc        1 EEG      0.092200
     62 HN1         0.7650   -1.1860   -2.7590 hn        1 EEG      0.475800
     63 H2          3.2490   -1.2480   -3.5800 hx        1 EEG      0.145700
     64 H3          0.8030   -2.9610   -4.3920 hc        1 EEG      0.092700
     65 H3A         2.3680   -3.2280   -5.2450 hc        1 EEG      0.092700
     66 H4          1.9580   -4.6590   -3.1530 hc        1 EEG      0.101200
     67 H4A         2.1440   -3.1600   -2.1510 hc        1 EEG      0.101200
     68 HN9         3.7940   -0.7340   -7.1490 hn        1 EEG      0.341500
     69 HN9A        4.2770   -1.7200   -5.8320 hn        1 EEG      0.341500
     70 H221        1.8000    3.8110   -2.5360 hn        1 EEG      0.451800
     71 H121        0.5210   -0.2260   -4.0960 hn        1 EEG      0.475800
     72 H93         5.5530   -3.3370   -3.9940 ho        1 EEG      0.465000
@<TRIPOS>BOND
     1    1    3 2   
     2    2   10 1   
     3    2   21 1   
     4    3    4 1   
     5    3   22 1   
     6    4    5 1   
     7    4   41 1   
     8    4   42 1   
     9    5   19 1   
    10    5   43 1   
    11    5   44 1   
    12    6    9 ar  
    13    6   19 ar  
    14    6   45 1   
    15    7    8 ar  
    16    7   20 ar  
    17    7   46 1   
    18    8    9 ar  
    19    8   10 1   
    20    9   47 1   
    21   10   11 2   
    22   11   12 1   
    23   11   48 1   
    24   12   13 1   
    25   12   21 2   
    26   13   14 ar  
    27   13   18 ar  
    28   14   15 ar  
    29   14   49 1   
    30   15   16 ar  
    31   15   50 1   
    32   16   17 ar  
    33   16   51 1   
    34   17   18 ar  
    35   17   52 1   
    36   18   53 1   
    37   19   20 ar  
    38   20   54 1   
    39   21   55 1   
    40   22   23 1   
    41   22   56 1   
    42   22   70 1   
    43   23   24 2   
    44   23   26 1   
    45   24   25 1   
    46   24   31 1   
    47   26   27 1   
    48   26   58 1   
    49   26   59 1   
    50   27   28 1   
    51   27   60 1   
    52   27   61 1   
    53   28   29 2   
    54   28   30 1   
    55   30   57 1   
    56   31   32 1   
    57   31   62 1   
    58   31   71 1   
    59   32   33 1   
    60   32   35 1   
    61   32   63 1   
    62   33   34 2   
    63   33   40 1   
    64   35   36 1   
    65   35   64 1   
    66   35   65 1   
    67   36   37 1   
    68   36   66 1   
    69   36   67 1   
    70   37   38 2   
    71   37   39 1   
    72   39   72 1   
    73   40   68 1   
    74   40   69 1   
@<TRIPOS>SUBSTRUCTURE
     1 EEG         1 TEMP              0 ****  ****    0 ROOT
