@<TRIPOS>MOLECULE
EEG
   69    60     1     0     0
SMALL
bcc


@<TRIPOS>ATOM
      1 O2         -2.0730    2.1190   -1.8100 o         1 EEG     -0.418000
      2 S7          3.4780    0.7190    5.4770 ss        1 EEG      0.553000
      3 C11        -0.8590    2.1370   -1.8160 c1        1 EEG      0.293000
      4 C12        -0.0960    2.1520   -0.5080 c3        1 EEG     -0.168000
      5 C13        -1.0000    1.6750    0.6090 c3        1 EEG     -0.150000
      6 C14        -0.0970    2.2330    2.8870 c1        1 EEG     -0.109000
      7 C15         1.1630   -0.2310    3.0690 c1        1 EEG     -0.140000
      8 C16         1.2290    0.6610    4.1280 c1        1 EEG     -0.051000
      9 C17         0.5990    1.8930    4.0370 c1        1 EEG     -0.111000
     10 C18         1.9870    0.3500    5.2510 c1        1 EEG     -0.278000
     11 C19         1.5090   -0.3250    6.4430 c1        1 EEG     -0.154000
     12 C20         2.7090   -0.4070    7.4860 c2        1 EEG     -0.071000
     13 C21         2.6520   -0.9820    8.7440 c1        1 EEG      0.006000
     14 C22         3.0040   -2.3120    8.9130 c1        1 EEG     -0.134000
     15 C23         2.9990   -2.8740   10.1790 c1        1 EEG     -0.134000
     16 C24         2.6420   -2.1060   11.2770 c1        1 EEG     -0.134000
     17 C25         2.2900   -0.7780   11.1070 c1        1 EEG     -0.134000
     18 C26         2.2950   -0.2150    9.8400 c1        1 EEG     -0.117000
     19 C27        -0.1640    1.3410    1.8280 c2        1 EEG     -0.044000
     20 C28         0.4660    0.1090    1.9190 c2        1 EEG     -0.139000
     21 C29         3.8750    0.2210    6.8920 c1        1 EEG     -0.456000
     22 N2         -0.1540    2.0850   -3.0480 n2        1 EEG     -0.346000
     23 C7         -0.8460    1.7720   -4.2500 c3        1 EEG      0.009000
     24 C6         -0.6460    0.3080   -4.5810 c1        1 EEG      0.298000
     25 O1          0.3870   -0.2500   -4.2670 o         1 EEG     -0.399000
     26 C8         -0.3070    2.6220   -5.3760 c3        1 EEG     -0.142000
     27 C9         -1.3660    3.6070   -5.8150 c3        1 EEG     -0.226000
     28 C10        -0.8590    4.3960   -7.0010 c1        1 EEG      0.330000
     29 O4E        -1.2560    4.1130   -8.1610 o         1 EEG     -0.559000
     30 O4         -0.0540    5.3480   -6.8260 os        1 EEG     -0.631000
     31 N1         -1.6510   -0.4040   -5.2970 n2        1 EEG     -0.344000
     32 C2         -1.4800   -1.7880   -5.5760 c3        1 EEG      0.005000
     33 C1         -0.5540   -1.9540   -6.7570 c2        1 EEG      0.262000
     34 O9         -0.6270   -1.1890   -7.6990 o         1 EEG     -0.428000
     35 C3         -2.8240   -2.4080   -5.8980 c3        1 EEG     -0.149000
     36 C4         -3.0480   -3.6190   -5.0120 c3        1 EEG     -0.232000
     37 C5         -4.2830   -4.3640   -5.4770 c2        1 EEG      0.326000
     38 O8E        -4.1970   -5.2030   -6.4120 o         1 EEG     -0.588000
     39 O8         -5.4000   -4.1250   -4.9450 o         1 EEG     -0.588000
     40 N9          0.3960   -3.0080   -6.7710 n         1 EEG     -0.404000
     41 H12         0.6800    1.5600   -0.5760 hc        1 EEG      0.100500
     42 H12A        0.2060    3.0630   -0.3170 hc        1 EEG      0.100500
     43 H13        -1.6390    2.3800    0.8360 hc        1 EEG      0.122000
     44 H13A       -1.4850    0.8760    0.3180 hc        1 EEG      0.122000
     45 H14        -0.5410    3.1000    2.8240 ha        1 EEG      0.220000
     46 H15         1.6050   -1.0980    3.1330 ha        1 EEG      0.114000
     47 H17         0.6330    2.5140    4.7890 ha        1 EEG      0.131000
     48 H19         0.6060   -0.6690    6.5810 DU        1 EEG      0.161500
     49 H22         3.2960   -2.8410    8.1460 ha        1 EEG      0.124500
     50 H23         3.2440   -3.8110   10.2980 ha        1 EEG      0.124500
     51 H24         2.6120   -2.5090   12.1650 ha        1 EEG      0.124500
     52 H25         2.0460   -0.2350   11.8810 ha        1 EEG      0.124500
     53 H26         2.0460    0.7300    9.8720 ha        1 EEG      0.144000
     54 H28         0.4200   -0.5190    1.1730 ha        1 EEG      0.126000
     55 H29         4.7530    0.3140    7.3080 DU        1 EEG      0.161500
     56 HN2         0.7390    2.2710   -3.0710 hn        1 EEG      0.282000
     57 H7         -1.7990    1.9530   -4.1330 h1        1 EEG      0.107000
     58 H8          0.4840    3.1080   -5.0680 hc        1 EEG      0.096000
     59 H8A        -0.0630    2.0480   -6.1290 hc        1 EEG      0.096000
     60 H9         -2.1770    3.1230   -6.0690 hc        1 EEG      0.071000
     61 H9A        -1.5680    4.2180   -5.0790 hc        1 EEG      0.071000
     62 HN1        -2.4030    0.0290   -5.5790 hn        1 EEG      0.248000
     63 H2         -1.0950   -2.2320   -4.7960 h1        1 EEG      0.138000
     64 H3         -2.8390   -2.6840   -6.8370 hc        1 EEG      0.090000
     65 H3A        -3.5320   -1.7520   -5.7390 hc        1 EEG      0.090000
     66 H4         -2.2710   -4.2110   -5.0660 hc        1 EEG      0.072000
     67 H4A        -3.1720   -3.3280   -4.0860 hc        1 EEG      0.072000
     68 HN9         0.8130   -3.2370   -7.5520 hn        1 EEG      0.230500
     69 HN9A        0.5660   -3.4800   -6.0070 hn        1 EEG      0.230500
@<TRIPOS>BOND
     1    1    3 1   
     2    2   10 1   
     3    2   21 1   
     4    3    4 1   
     5    4    5 1   
     6    4   41 1   
     7    4   42 1   
     8    5   19 1   
     9    5   43 1   
    10    5   44 1   
    11    6   19 1   
    12    6   45 1   
    13    7   20 1   
    14    7   46 1   
    15    8    9 1   
    16    9   47 1   
    17   10   11 1   
    18   11   12 1   
    19   12   13 1   
    20   12   21 1   
    21   13   18 1   
    22   14   15 1   
    23   14   49 1   
    24   15   50 1   
    25   16   17 1   
    26   16   51 1   
    27   17   52 1   
    28   18   53 1   
    29   19   20 1   
    30   20   54 1   
    31   22   23 1   
    32   22   56 1   
    33   23   24 1   
    34   23   26 1   
    35   23   57 1   
    36   24   25 1   
    37   26   27 1   
    38   26   58 1   
    39   26   59 1   
    40   27   28 1   
    41   27   60 1   
    42   27   61 1   
    43   28   29 1   
    44   31   32 1   
    45   31   62 1   
    46   32   33 1   
    47   32   35 1   
    48   32   63 1   
    49   33   34 1   
    50   33   40 1   
    51   35   36 1   
    52   35   64 1   
    53   35   65 1   
    54   36   37 1   
    55   36   66 1   
    56   36   67 1   
    57   37   38 1   
    58   37   39 1   
    59   40   68 1   
    60   40   69 1   
@<TRIPOS>SUBSTRUCTURE
     1 EEG         1 TEMP              0 ****  ****    0 ROOT
