@<TRIPOS>MOLECULE
EEM
   49    51     1     0     0
SMALL
bcc


@<TRIPOS>ATOM
      1 C2          6.3470   -0.0380   -0.5570 ca        1 EEM      0.701900
      2 N3          5.1990    0.6080   -0.2320 nb        1 EEM     -0.771000
      3 C4          4.1720   -0.2540    0.0280 ca        1 EEM      0.460800
      4 C1'         2.3000    1.2800    0.7520 c3        1 EEM      0.240800
      5 C2'         2.5210    2.3870   -0.3300 c3        1 EEM      0.087100
      6 C3'         1.1180    2.6830   -0.9010 c3        1 EEM      0.134100
      7 C4'         0.1350    1.9280    0.0250 c3        1 EEM      0.112100
      8 C5'        -0.7750    1.0040   -0.7610 c3        1 EEM     -0.021100
      9 C          -6.5160   -1.8820   -0.0870 c         1 EEM      0.902600
     10 OXT        -7.7620   -1.7520   -0.1390 o         1 EEM     -0.803800
     11 CA         -5.6520   -0.8440   -0.9140 c3        1 EEM      0.012500
     12 N          -6.3720    0.3070   -1.4250 n3        1 EEM     -0.905800
     13 CG         -3.4340    0.3240   -0.7400 c3        1 EEM      0.053900
     14 SE         -1.9450    0.0670    0.1540 s4        1 EEM     -0.172900
     15 CE         -2.2090    0.9590    1.6140 c3        1 EEM     -0.031800
     16 O4'         0.8840    1.1780    0.9860 os        1 EEM     -0.433600
     17 O3'         0.7930    4.0450   -0.9790 oh        1 EEM     -0.571800
     18 O2'         2.9940    3.5470    0.3180 oh        1 EEM     -0.596800
     19 N9          2.8340   -0.0090    0.3880 na        1 EEM     -0.306000
     20 C8          2.2400   -1.2860    0.5710 cc        1 EEM      0.408700
     21 N7          3.0690   -2.3030    0.3110 nd        1 EEM     -0.523100
     22 C5          4.2920   -1.7050   -0.0320 ca        1 EEM     -0.234200
     23 N1          6.6060   -1.3650   -0.6590 nb        1 EEM     -0.788000
     24 C6          5.5730   -2.2430   -0.3990 ca        1 EEM      0.774200
     25 N6          5.7550   -3.5920   -0.4940 nh        1 EEM     -0.948500
     26 H2          7.2170    0.6210   -0.7740 h5        1 EEM      0.057100
     27 H1'         2.7400    1.6030    1.7460 h2        1 EEM      0.111700
     28 H2'         3.2150    2.0660   -1.1500 h1        1 EEM      0.104700
     29 H3'         1.0420    2.3080   -1.9600 h1        1 EEM      0.097700
     30 H4'        -0.4740    2.6680    0.6200 h1        1 EEM      0.088700
     31 H5'        -1.2760    1.6200   -1.5550 h1        1 EEM      0.126700
     32 H5'A       -0.1460    0.2330   -1.2880 h1        1 EEM      0.126700
     33 HA         -5.2330   -1.4150   -1.7920 h1        1 EEM      0.044700
     34 HN         -6.9790   -0.0090   -2.1610 hn        1 EEM      0.351300
     35 HNA        -6.9690    0.6590   -0.6960 hn        1 EEM      0.351300
     36 HB         -4.8840    0.1640    0.8620 hc        1 EEM      0.077200
     37 HBA        -4.0830   -1.4130    0.4200 hc        1 EEM      0.077200
     38 HG         -3.2910   -0.1060   -1.7680 h1        1 EEM      0.121200
     39 HGA        -3.7380    1.3910   -0.8670 h1        1 EEM      0.121200
     40 HE         -2.6210    1.9870    1.4800 h1        1 EEM      0.129033
     41 HEA        -2.9500    0.3850    2.2340 h1        1 EEM      0.129033
     42 HEB        -1.2560    1.0380    2.1950 h1        1 EEM      0.129033
     43 HO3'        1.1510    4.4990   -0.2020 ho        1 EEM      0.436000
     44 HO2'        3.9600    3.5280    0.2710 ho        1 EEM      0.444000
     45 H8          1.1980   -1.3770    0.8980 h5        1 EEM      0.073800
     46 HN6         5.0030   -4.1970   -0.2700 hn        1 EEM      0.456300
     47 HN6A        6.6400   -3.9700   -0.7260 hn        1 EEM      0.456300
     48 CB         -4.4940   -0.4460    0.0050 c3        1 EEM     -0.082400
     49 O          -5.8620   -2.7480    0.5510 o         1 EEM     -0.803800
@<TRIPOS>BOND
     1    1    2 ar  
     2    1   23 ar  
     3    1   26 1   
     4    2    3 ar  
     5    3   19 1   
     6    3   22 ar  
     7    4    5 1   
     8    4   16 1   
     9    4   19 1   
    10    4   27 1   
    11    5    6 1   
    12    5   18 1   
    13    5   28 1   
    14    6    7 1   
    15    6   17 1   
    16    6   29 1   
    17    7    8 1   
    18    7   16 1   
    19    7   30 1   
    20    8   14 1   
    21    8   31 1   
    22    8   32 1   
    23    9   10 1   
    24    9   11 1   
    25    9   49 1   
    26   11   12 1   
    27   11   33 1   
    28   11   48 1   
    29   12   34 1   
    30   12   35 1   
    31   13   14 1   
    32   13   38 1   
    33   13   39 1   
    34   13   48 1   
    35   14   15 1   
    36   15   40 1   
    37   15   41 1   
    38   15   42 1   
    39   17   43 1   
    40   18   44 1   
    41   19   20 1   
    42   20   21 2   
    43   20   45 1   
    44   21   22 1   
    45   22   24 ar  
    46   23   24 ar  
    47   24   25 1   
    48   25   46 1   
    49   25   47 1   
    50   36   48 1   
    51   37   48 1   
@<TRIPOS>SUBSTRUCTURE
     1 EEM         1 TEMP              0 ****  ****    0 ROOT
