@<TRIPOS>MOLECULE
EES
   27    29     1     0     0
SMALL
bcc


@<TRIPOS>ATOM
      1 CL1         0.0640    0.3850   -0.0260 cl        1 EES     -0.022400
      2 CAP         1.7160    0.1540    0.0500 cc        1 EES     -0.044700
      3 CAR         2.5500    0.1180    1.1910 ca        1 EES     -0.076000
      4 CAJ         2.3430    0.2250    2.5810 ca        1 EES     -0.184000
      5 CAN         3.4500    0.1360    3.3970 ca        1 EES      0.120100
      6 OAC         3.3800    0.2260    4.7700 oh        1 EES     -0.498100
      7 CAH         4.7780   -0.0590    2.8840 ca        1 EES     -0.130000
      8 CAI         5.0050   -0.1650    1.5420 ca        1 EES     -0.063000
      9 CAQ         3.8950   -0.0800    0.6500 ca        1 EES     -0.098000
     10 NAL         3.8460   -0.1540   -0.7220 nc        1 EES     -0.240400
     11 NAS         2.5600   -0.0200   -1.0630 na        1 EES      0.233700
     12 CAO         2.1250   -0.0370   -2.4260 ca        1 EES     -0.043200
     13 CAF         1.0850   -0.8980   -2.8260 ca        1 EES     -0.070500
     14 CAD         0.6630   -0.9070   -4.1510 ca        1 EES     -0.183000
     15 CAG         2.7540    0.7960   -3.3750 ca        1 EES     -0.070500
     16 CAE         2.3370    0.7820   -4.6990 ca        1 EES     -0.183000
     17 CAM         1.2870   -0.0680   -5.0850 ca        1 EES      0.139100
     18 OAB         0.9210   -0.0260   -6.4090 oh        1 EES     -0.490100
     19 HAJ         1.3310    0.3740    2.9800 ha        1 EES      0.142000
     20 HOAC        2.4530    0.3570    5.0150 ho        1 EES      0.419000
     21 HAH         5.6000   -0.1180    3.6130 ha        1 EES      0.153000
     22 HAI         6.0160   -0.3150    1.1370 ha        1 EES      0.151000
     23 HAF         0.5980   -1.5670   -2.0990 ha        1 EES      0.157000
     24 HAD        -0.1530   -1.5750   -4.4630 ha        1 EES      0.151000
     25 HAG         3.5830    1.4580   -3.0750 ha        1 EES      0.157000
     26 HAE         2.8180    1.4270   -5.4490 ha        1 EES      0.151000
     27 HOAB        0.2030   -0.6630   -6.5430 ho        1 EES      0.424000
@<TRIPOS>BOND
     1    1    2 1   
     2    2    3 2   
     3    2   11 1   
     4    3    4 ar  
     5    3    9 ar  
     6    4    5 ar  
     7    4   19 1   
     8    5    6 1   
     9    5    7 ar  
    10    6   20 1   
    11    7    8 ar  
    12    7   21 1   
    13    8    9 ar  
    14    8   22 1   
    15    9   10 2   
    16   10   11 1   
    17   11   12 1   
    18   12   13 ar  
    19   12   15 ar  
    20   13   14 ar  
    21   13   23 1   
    22   14   17 ar  
    23   14   24 1   
    24   15   16 ar  
    25   15   25 1   
    26   16   17 ar  
    27   16   26 1   
    28   17   18 1   
    29   18   27 1   
@<TRIPOS>SUBSTRUCTURE
     1 EES         1 TEMP              0 ****  ****    0 ROOT
