@<TRIPOS>MOLECULE
EES
   27    29     1     0     0
SMALL
bcc


@<TRIPOS>ATOM
      1 CL1         0.0980   -2.2540    0.5230 cl        1 EES     -0.022400
      2 CAP         0.6040   -0.7040    0.1610 cc        1 EES     -0.044700
      3 CAR         1.9250   -0.2170    0.0260 ca        1 EES     -0.076000
      4 CAJ         3.2120   -0.7870    0.1080 ca        1 EES     -0.184000
      5 CAN         4.2900    0.0460   -0.0900 ca        1 EES      0.120100
      6 OAC         5.5960   -0.3880   -0.0360 oh        1 EES     -0.498100
      7 CAH         4.1450    1.4490   -0.3730 ca        1 EES     -0.130000
      8 CAI         2.9100    2.0240   -0.4580 ca        1 EES     -0.063000
      9 CAQ         1.7570    1.2080   -0.2590 ca        1 EES     -0.098000
     10 NAL         0.4210    1.5300   -0.2890 nc        1 EES     -0.240400
     11 NAS        -0.2470    0.3970   -0.0450 na        1 EES      0.233700
     12 CAO        -1.6770    0.3490    0.0120 ca        1 EES     -0.043200
     13 CAF        -2.3840   -0.5980   -0.7530 ca        1 EES     -0.070500
     14 CAD        -3.7720   -0.6420   -0.6900 ca        1 EES     -0.183000
     15 CAG        -2.3780    1.2680    0.8210 ca        1 EES     -0.070500
     16 CAE        -3.7640    1.2270    0.8790 ca        1 EES     -0.183000
     17 CAM        -4.4610    0.2670    0.1250 ca        1 EES      0.139100
     18 OAB        -5.8300    0.2790    0.2340 oh        1 EES     -0.490100
     19 HAJ         3.3290   -1.8570    0.3240 ha        1 EES      0.142000
     20 HOAC        5.5880   -1.3360    0.1600 ho        1 EES      0.419000
     21 HAH         5.0640    2.0350   -0.5180 ha        1 EES      0.153000
     22 HAI         2.7850    3.0950   -0.6740 ha        1 EES      0.151000
     23 HAF        -1.8490   -1.3080   -1.4030 ha        1 EES      0.157000
     24 HAD        -4.3240   -1.3850   -1.2830 ha        1 EES      0.151000
     25 HAG        -1.8330    2.0260    1.4070 ha        1 EES      0.157000
     26 HAE        -4.3240    1.9360    1.5060 ha        1 EES      0.151000
     27 HOAB       -6.1840   -0.4170   -0.3400 ho        1 EES      0.424000
@<TRIPOS>BOND
     1    1    2 1   
     2    2    3 2   
     3    2   11 1   
     4    3    4 ar  
     5    3    9 ar  
     6    4    5 ar  
     7    4   19 1   
     8    5    6 1   
     9    5    7 ar  
    10    6   20 1   
    11    7    8 ar  
    12    7   21 1   
    13    8    9 ar  
    14    8   22 1   
    15    9   10 2   
    16   10   11 1   
    17   11   12 1   
    18   12   13 ar  
    19   12   15 ar  
    20   13   14 ar  
    21   13   23 1   
    22   14   17 ar  
    23   14   24 1   
    24   15   16 ar  
    25   15   25 1   
    26   16   17 ar  
    27   16   26 1   
    28   17   18 1   
    29   18   27 1   
@<TRIPOS>SUBSTRUCTURE
     1 EES         1 TEMP              0 ****  ****    0 ROOT
