@<TRIPOS>MOLECULE
EES
   27    22     1     0     0
SMALL
bcc


@<TRIPOS>ATOM
      1 CL1        -2.5620    0.0380    0.5340 cl        1 EES      0.062000
      2 CAP        -0.8310    0.1170    0.7290 c2        1 EES     -0.102000
      3 CAR        -0.1340    0.1160    1.9240 c1        1 EES     -0.076000
      4 CAJ        -0.5580    0.1980    3.2640 c1        1 EES     -0.197500
      5 CAN         0.3730    0.1630    4.2890 c1        1 EES      0.084500
      6 OAC        -0.1050    0.4060    5.5900 oh        1 EES     -0.248000
      7 CAH         1.7210    0.0480    3.9960 c1        1 EES     -0.103500
      8 CAI         2.1380   -0.0320    2.6780 c1        1 EES     -0.103500
      9 CAQ         1.1920    0.0030    1.6360 c1        1 EES     -0.098000
     10 NAL         1.3240   -0.0660    0.2750 n1        1 EES     -0.061000
     11 NAS         0.0660    0.0060   -0.2790 n3        1 EES     -0.018000
     12 CAO        -0.1800   -0.0510   -1.5960 c1        1 EES      0.002000
     13 CAF        -0.2140   -1.2770   -2.2430 c1        1 EES     -0.103500
     14 CAD        -0.4420   -1.3350   -3.6080 c1        1 EES     -0.103500
     15 CAG        -0.3730    1.1170   -2.3160 c1        1 EES     -0.075000
     16 CAE        -0.6000    1.0600   -3.6820 c1        1 EES     -0.197500
     17 CAM        -0.6350   -0.1660   -4.3280 c1        1 EES      0.084500
     18 OAB        -0.9000   -0.2260   -5.7090 oh        1 EES     -0.248000
     19 HAJ        -1.5100    0.2670    3.4710 ha        1 EES      0.142000
     20 HOAC       -0.2720   -0.3690    5.9940 ho        1 EES      0.220500
     21 HAH         2.3770    0.0240    4.7180 ha        1 EES      0.156250
     22 HAI         3.0890   -0.1130    2.4720 ha        1 EES      0.156250
     23 HAF        -0.0780   -2.1000   -1.7350 ha        1 EES      0.156250
     24 HAD        -0.4660   -2.1980   -4.0630 ha        1 EES      0.156250
     25 HAG        -0.3480    1.9800   -1.8620 ha        1 EES      0.153000
     26 HAE        -0.7360    1.8830   -4.1890 ha        1 EES      0.142000
     27 HOAB       -1.3350    0.5080   -5.9590 ho        1 EES      0.220500
@<TRIPOS>BOND
     1    1    2 1   
     2    2    3 1   
     3    2   11 1   
     4    3    9 1   
     5    4    5 1   
     6    4   19 1   
     7    5    6 1   
     8    6   20 1   
     9    7    8 1   
    10    7   21 1   
    11    8   22 1   
    12   10   11 1   
    13   11   12 1   
    14   12   15 1   
    15   13   14 1   
    16   13   23 1   
    17   14   24 1   
    18   15   25 1   
    19   16   17 1   
    20   16   26 1   
    21   17   18 1   
    22   18   27 1   
@<TRIPOS>SUBSTRUCTURE
     1 EES         1 TEMP              0 ****  ****    0 ROOT
