@<TRIPOS>MOLECULE
EF1
   64    64     1     0     0
SMALL
bcc


@<TRIPOS>ATOM
      1 O23         1.0710   -0.2460   -4.9230 o         1 EF1     -0.335000
      2 C21         1.4420   -0.3410   -3.7530 c2        1 EF1      0.326000
      3 O22         2.3450    0.5470   -3.3060 os        1 EF1     -0.690000
      4 C20         1.0320   -1.3740   -2.7120 c3        1 EF1     -0.123000
      5 C24        -0.4390   -1.3440   -2.2960 c3        1 EF1     -0.142000
      6 C25        -1.4170   -0.6370   -3.2160 c3        1 EF1     -0.174000
      7 C26        -1.7940    0.7530   -2.7310 c3        1 EF1     -0.147000
      8 C27        -0.5920    1.6690   -2.7410 c3        1 EF1     -0.212000
      9 C28        -0.8340    2.9790   -2.0000 c3        1 EF1     -0.110000
     10 N29         0.3860    3.4110   -1.2650 nz        1 EF1     -0.071000
     11 C17         1.9630   -1.1850   -1.5260 c3        1 EF1     -0.890000
     12 P13         2.7650    0.2880   -1.6890 p5        1 EF1      2.073000
     13 O18         2.0180    1.4000   -1.0340 o         1 EF1     -0.886000
     14 O19         4.2240    0.1590   -1.5780 o         1 EF1     -0.886000
     15 C12         6.8270   -2.5460   -2.2760 c2        1 EF1     -0.752000
     16 C14         6.5640   -3.4940   -1.1830 c3        1 EF1      0.038000
     17 C16         5.0900   -3.5500   -0.8050 c3        1 EF1     -0.200000
     18 C15         7.0430   -4.8770   -1.5860 c3        1 EF1     -0.200000
     19 N10         6.5880   -1.1700   -2.1380 ny        1 EF1      0.127000
     20 C9          7.8490   -0.3860   -1.8730 c2        1 EF1      0.189000
     21 O11         8.2900    0.3440   -2.7650 o         1 EF1     -0.299000
     22 C8          8.5200   -0.6250   -0.5490 c3        1 EF1     -0.182000
     23 C7          9.8260    0.1380   -0.4450 c3        1 EF1     -0.121000
     24 C1         10.5080   -0.1250    0.8520 ca        1 EF1     -0.071000
     25 C6         10.6110    0.8820    1.8180 ca        1 EF1     -0.126500
     26 C2         11.0690   -1.3820    1.1100 ca        1 EF1     -0.126500
     27 C3         11.7200   -1.6270    2.3170 ca        1 EF1     -0.129500
     28 C4         11.8190   -0.6200    3.2770 ca        1 EF1     -0.134000
     29 C5         11.2640    0.6340    3.0250 ca        1 EF1     -0.129500
     30 H2          1.2160   -2.3780   -3.1960 hc        1 EF1      0.130000
     31 H3         -0.7650   -2.4160   -2.1940 hc        1 EF1      0.085000
     32 H4         -0.5310   -0.8950   -1.2690 hc        1 EF1      0.085000
     33 H5         -2.3600   -1.2460   -3.2670 hc        1 EF1      0.107500
     34 H6         -1.0120   -0.5780   -4.2610 hc        1 EF1      0.107500
     35 H7         -2.2170    0.6830   -1.6930 hc        1 EF1      0.078500
     36 H8         -2.5970    1.1680   -3.3940 hc        1 EF1      0.078500
     37 H9          0.2740    1.1210   -2.2560 hc        1 EF1      0.137000
     38 H10        -0.2800    1.8780   -3.8000 hc        1 EF1      0.137000
     39 H11        -1.6640    2.8650   -1.2470 hx        1 EF1      0.119000
     40 H12        -1.1140    3.7950   -2.7240 hx        1 EF1      0.119000
     41 H13         1.2090    3.3620   -1.8870 hn        1 EF1      0.267667
     42 H15         0.6050    2.7240   -0.5110 hn        1 EF1      0.267667
     43 H16         1.4030   -1.2480   -0.5630 hc        1 EF1      0.143500
     44 H17         2.7040   -2.0280   -1.4960 hc        1 EF1      0.143500
     45 H19         7.3070   -2.8650   -3.1990 hx        1 EF1      0.142000
     46 H20         7.1290   -3.1940   -0.2460 hc        1 EF1      0.022000
     47 H21         4.4740   -3.8170   -1.6970 hc        1 EF1      0.058333
     48 H22         4.9170   -4.3160   -0.0100 hc        1 EF1      0.058333
     49 H23         4.7430   -2.5610   -0.4210 hc        1 EF1      0.058333
     50 H24         6.4950   -5.2310   -2.4910 hc        1 EF1      0.058333
     51 H25         8.1340   -4.8540   -1.8200 hc        1 EF1      0.058333
     52 H26         6.8690   -5.6040   -0.7560 hc        1 EF1      0.058333
     53 H27         6.1700   -0.7820   -2.9900 hn        1 EF1      0.241500
     54 H28         8.7050   -1.7290   -0.4350 hc        1 EF1      0.127000
     55 H29         7.8200   -0.3100    0.2700 hc        1 EF1      0.127000
     56 H30         9.6250    1.2360   -0.5680 hc        1 EF1      0.101500
     57 H31        10.4990   -0.1660   -1.2920 hc        1 EF1      0.101500
     58 H32        10.1760    1.8730    1.6230 ha        1 EF1      0.134000
     59 H33        10.9930   -2.1770    0.3530 ha        1 EF1      0.134000
     60 H34        12.1580   -2.6170    2.5120 ha        1 EF1      0.129000
     61 H35        12.3340   -0.8140    4.2290 ha        1 EF1      0.128000
     62 H36        11.3410    1.4310    3.7790 ha        1 EF1      0.129000
     63 H293        0.2810    4.3440   -0.8820 hn        1 EF1      0.267667
     64 H102        5.9420   -0.9860   -1.3570 hn        1 EF1      0.241500
@<TRIPOS>BOND
     1    1    2 1   
     2    2    3 1   
     3    2    4 1   
     4    3   12 1   
     5    4    5 1   
     6    4   11 1   
     7    4   30 1   
     8    5    6 1   
     9    5   31 1   
    10    5   32 1   
    11    6    7 1   
    12    6   33 1   
    13    6   34 1   
    14    7    8 1   
    15    7   35 1   
    16    7   36 1   
    17    8    9 1   
    18    8   37 1   
    19    8   38 1   
    20    9   10 1   
    21    9   39 1   
    22    9   40 1   
    23   10   41 1   
    24   10   42 1   
    25   10   63 1   
    26   11   12 1   
    27   11   43 1   
    28   11   44 1   
    29   12   13 1   
    30   12   14 1   
    31   15   16 1   
    32   15   19 1   
    33   15   45 1   
    34   16   17 1   
    35   16   18 1   
    36   16   46 1   
    37   17   47 1   
    38   17   48 1   
    39   17   49 1   
    40   18   50 1   
    41   18   51 1   
    42   18   52 1   
    43   19   20 1   
    44   19   53 1   
    45   19   64 1   
    46   20   21 1   
    47   20   22 1   
    48   22   23 1   
    49   22   54 1   
    50   22   55 1   
    51   23   24 1   
    52   23   56 1   
    53   23   57 1   
    54   24   25 1   
    55   24   26 1   
    56   25   29 1   
    57   25   58 1   
    58   26   27 1   
    59   26   59 1   
    60   27   28 1   
    61   27   60 1   
    62   28   29 1   
    63   28   61 1   
    64   29   62 1   
@<TRIPOS>SUBSTRUCTURE
     1 EF1         1 TEMP              0 ****  ****    0 ROOT
