@<TRIPOS>MOLECULE
EF1
   63    63     1     0     0
SMALL
bcc


@<TRIPOS>ATOM
      1 O23         0.3750   -1.7460   -1.1690 o         1 EF1     -0.831800
      2 C21         1.3850   -1.1390   -0.7340 c         1 EF1      0.906600
      3 O22         1.7960   -1.2160    0.4680 o         1 EF1     -0.831800
      4 C20         2.2240   -0.2440   -1.6950 c3        1 EF1     -0.175700
      5 C24         1.3780    0.2180   -2.8680 c3        1 EF1     -0.050400
      6 C25         0.2750    1.1530   -2.4160 c3        1 EF1     -0.081400
      7 C26        -0.5990    1.5700   -3.5800 c3        1 EF1     -0.074400
      8 C27        -1.7200    2.4780   -3.1220 c3        1 EF1     -0.086400
      9 C28        -2.6430    2.8150   -4.2910 c3        1 EF1      0.152800
     10 N29        -3.7390    3.6940   -3.9460 n3        1 EF1     -0.916800
     11 C17         3.4580   -0.9890   -2.1720 c3        1 EF1     -0.430600
     12 P13         4.7940   -0.6190   -1.2880 p5        1 EF1      1.484100
     13 O18         5.6860    0.3510   -1.9240 o         1 EF1     -0.867300
     14 O19         4.4240   -0.0900    0.1760 oh        1 EF1     -0.821400
     15 C12         5.5170   -2.1270   -0.9650 c3        1 EF1     -0.183500
     16 C14         4.5860   -2.9880   -0.0910 c3        1 EF1     -0.096700
     17 C16         4.4500   -4.3780   -0.6850 c3        1 EF1     -0.084600
     18 C15         5.0130   -3.1010    1.3590 c3        1 EF1     -0.084600
     19 N10         6.8320   -1.8830   -0.4420 n         1 EF1     -0.512900
     20 C9          7.8880   -2.7520   -0.6200 c         1 EF1      0.656100
     21 O11         7.8250   -3.7380   -1.3830 o         1 EF1     -0.622100
     22 C8          9.1840   -2.4170    0.1040 c3        1 EF1     -0.148400
     23 C7          9.8300   -1.1780   -0.4870 c3        1 EF1     -0.041100
     24 C1         11.1460   -0.8960    0.1500 ca        1 EF1     -0.071300
     25 C6         11.3140    0.2300    0.9640 ca        1 EF1     -0.126500
     26 C2         12.2360   -1.7470   -0.0740 ca        1 EF1     -0.126500
     27 C3         13.4710   -1.4780    0.5110 ca        1 EF1     -0.132500
     28 C4         13.6320   -0.3560    1.3240 ca        1 EF1     -0.140000
     29 C5         12.5520    0.4970    1.5480 ca        1 EF1     -0.132500
     30 H2          2.5510    0.6640   -1.1150 hc        1 EF1      0.040700
     31 H3          0.9210   -0.6840   -3.3540 hc        1 EF1      0.034700
     32 H4          2.0200    0.7380   -3.6270 hc        1 EF1      0.034700
     33 H5         -0.3450    0.6230   -1.6430 hc        1 EF1      0.052700
     34 H6          0.7180    2.0630   -1.9330 hc        1 EF1      0.052700
     35 H7          0.0200    2.0960   -4.3530 hc        1 EF1      0.033700
     36 H8         -1.0300    0.6540   -4.0660 hc        1 EF1      0.033700
     37 H9         -1.2910    3.4200   -2.6890 hc        1 EF1      0.045200
     38 H10        -2.3010    1.9700   -2.3080 hc        1 EF1      0.045200
     39 H11        -2.0430    3.3380   -5.0900 h1        1 EF1      0.023700
     40 H12        -3.0060    1.8420   -4.7380 h1        1 EF1      0.023700
     41 H13        -4.4990    3.5640   -4.5840 hn        1 EF1      0.340300
     42 H15        -4.0650    3.5120   -3.0170 hn        1 EF1      0.340300
     43 H16         3.6460   -0.7200   -3.2480 hc        1 EF1      0.104200
     44 H17         3.1990   -2.0820   -2.1990 hc        1 EF1      0.104200
     45 H18         3.5770   -0.3430    0.5710 ho        1 EF1      0.516000
     46 H19         5.6660   -2.6910   -1.9370 h1        1 EF1      0.110700
     47 H20         3.5580   -2.5040   -0.0870 hc        1 EF1      0.100700
     48 H21         3.8120   -5.0170   -0.0280 hc        1 EF1      0.034033
     49 H22         5.4550   -4.8540   -0.7920 hc        1 EF1      0.034033
     50 H23         3.9710   -4.3250   -1.6920 hc        1 EF1      0.034033
     51 H24         4.2340   -3.6670    1.9280 hc        1 EF1      0.034033
     52 H25         5.9820   -3.6470    1.4550 hc        1 EF1      0.034033
     53 H26         5.1130   -2.0910    1.8260 hc        1 EF1      0.034033
     54 H27         6.8650   -1.2400    0.3170 hn        1 EF1      0.313500
     55 H28         9.8710   -3.2960   -0.0050 hc        1 EF1      0.063200
     56 H29         8.9860   -2.2690    1.1970 hc        1 EF1      0.063200
     57 H30         9.1440   -0.2960   -0.3660 hc        1 EF1      0.070200
     58 H31         9.9770   -1.3310   -1.5910 hc        1 EF1      0.070200
     59 H32        10.4660    0.9090    1.1410 ha        1 EF1      0.137000
     60 H33        12.1090   -2.6310   -0.7170 ha        1 EF1      0.137000
     61 H34        14.3210   -2.1520    0.3310 ha        1 EF1      0.125000
     62 H35        14.6070   -0.1440    1.7840 ha        1 EF1      0.123000
     63 H36        12.6750    1.3850    2.1860 ha        1 EF1      0.125000
@<TRIPOS>BOND
     1    1    2 1   
     2    2    3 1   
     3    2    4 1   
     4    4    5 1   
     5    4   11 1   
     6    4   30 1   
     7    5    6 1   
     8    5   31 1   
     9    5   32 1   
    10    6    7 1   
    11    6   33 1   
    12    6   34 1   
    13    7    8 1   
    14    7   35 1   
    15    7   36 1   
    16    8    9 1   
    17    8   37 1   
    18    8   38 1   
    19    9   10 1   
    20    9   39 1   
    21    9   40 1   
    22   10   41 1   
    23   10   42 1   
    24   11   12 1   
    25   11   43 1   
    26   11   44 1   
    27   12   13 2   
    28   12   14 1   
    29   12   15 1   
    30   14   45 1   
    31   15   16 1   
    32   15   19 1   
    33   15   46 1   
    34   16   17 1   
    35   16   18 1   
    36   16   47 1   
    37   17   48 1   
    38   17   49 1   
    39   17   50 1   
    40   18   51 1   
    41   18   52 1   
    42   18   53 1   
    43   19   20 1   
    44   19   54 1   
    45   20   21 2   
    46   20   22 1   
    47   22   23 1   
    48   22   55 1   
    49   22   56 1   
    50   23   24 1   
    51   23   57 1   
    52   23   58 1   
    53   24   25 ar  
    54   24   26 ar  
    55   25   29 ar  
    56   25   59 1   
    57   26   27 ar  
    58   26   60 1   
    59   27   28 ar  
    60   27   61 1   
    61   28   29 ar  
    62   28   62 1   
    63   29   63 1   
@<TRIPOS>SUBSTRUCTURE
     1 EF1         1 TEMP              0 ****  ****    0 ROOT
