@<TRIPOS>MOLECULE
EF1
   63    59     1     0     0
SMALL
bcc


@<TRIPOS>ATOM
      1 O23        -4.3270    2.1380    1.1280 o         1 EF1     -0.566000
      2 C21        -3.0850    2.3680    1.4490 c1        1 EF1      0.329000
      3 O22        -2.7960    2.6540    2.5950 o         1 EF1     -0.566000
      4 C20        -2.0070    2.2970    0.3940 c2        1 EF1     -0.166000
      5 C24        -2.2340    3.4170   -0.6350 c3        1 EF1     -0.127000
      6 C25        -1.7730    4.7520   -0.0430 c3        1 EF1     -0.161000
      7 C26        -1.9490    5.8690   -1.1010 c3        1 EF1     -0.149000
      8 C27        -1.4310    7.2280   -0.5180 c3        1 EF1     -0.197000
      9 C28        -1.7310    8.3150   -1.4810 c3        1 EF1     -0.093000
     10 N29        -1.1920    9.5390   -1.0010 n3        1 EF1     -0.339000
     11 C17        -2.0600    0.9670   -0.2870 c3        1 EF1     -0.918000
     12 P13        -1.4370   -0.3250    0.8520 p5        1 EF1      2.802000
     13 O18        -0.2010    0.1650    1.5410 o         1 EF1     -1.150000
     14 O19        -2.5630   -0.6530    1.9500 oh        1 EF1     -0.847000
     15 C12        -1.0420   -1.8660   -0.1050 c3        1 EF1     -0.660000
     16 C14        -2.2840   -2.7160   -0.2050 c3        1 EF1     -0.119000
     17 C16        -2.6180   -2.9800   -1.6720 c3        1 EF1     -0.201000
     18 C15        -2.0460   -4.0710    0.5240 c3        1 EF1     -0.201000
     19 N10        -0.0380   -2.5820    0.5560 n         1 EF1     -0.331000
     20 C9          1.3040   -2.6270   -0.0010 c2        1 EF1      0.301000
     21 O11         1.5940   -1.9200   -0.9970 o         1 EF1     -0.388000
     22 C8          2.3710   -3.5680    0.6170 c3        1 EF1     -0.179000
     23 C7          3.5700   -3.6460   -0.3170 c3        1 EF1     -0.130000
     24 C1          4.6230   -4.6390    0.2610 c1        1 EF1     -0.064000
     25 C6          5.5950   -4.1910    1.1290 c1        1 EF1     -0.132000
     26 C2          4.6250   -5.9350   -0.1550 c1        1 EF1     -0.129000
     27 C3          5.5980   -6.7990    0.2880 c1        1 EF1     -0.132000
     28 C4          6.5750   -6.3530    1.1580 c1        1 EF1     -0.132000
     29 C5          6.5710   -5.0510    1.5760 c1        1 EF1     -0.132000
     30 H2         -1.1360    2.4120    0.8120 ha        1 EF1      0.079000
     31 H3         -3.1510    3.4680   -0.8470 hc        1 EF1      0.073000
     32 H4         -1.7380    3.2320   -1.4190 hc        1 EF1      0.073000
     33 H5         -2.3360    4.9720    0.7820 hc        1 EF1      0.092500
     34 H6         -0.8400    4.6890    0.2110 hc        1 EF1      0.092500
     35 H7         -1.4490    5.6470   -1.8880 hc        1 EF1      0.073000
     36 H8         -2.9380    5.9570   -1.3410 hc        1 EF1      0.073000
     37 H9         -1.8900    7.4150    0.3520 hc        1 EF1      0.078500
     38 H10        -0.4440    7.1740   -0.3700 hc        1 EF1      0.078500
     39 H11        -2.6870    8.4020   -1.5780 h1        1 EF1      0.087000
     40 H12        -1.3140    8.0900   -2.3910 h1        1 EF1      0.087000
     41 H13        -0.5540    9.8690   -1.6220 hn        1 EF1      0.132500
     42 H15        -1.8990   10.1790   -0.8990 hn        1 EF1      0.132500
     43 H16        -2.9860    0.7660   -0.5330 hc        1 EF1      0.145500
     44 H17        -1.5130    0.9870   -1.0800 hc        1 EF1      0.145500
     45 H18        -2.2060   -0.6230    2.7510 ho        1 EF1      0.319000
     46 H19        -0.7440   -1.6340   -0.9740 h1        1 EF1      0.130000
     47 H20        -3.0420   -2.2400    0.2260 hc        1 EF1      0.128000
     48 H21        -3.5100   -2.6900   -1.8490 hc        1 EF1      0.074333
     49 H22        -2.5420   -3.9510   -1.8580 hc        1 EF1      0.074333
     50 H23        -2.0150   -2.5040   -2.2270 hc        1 EF1      0.074333
     51 H24        -1.2950   -4.5390    0.1120 hc        1 EF1      0.074333
     52 H25        -1.8420   -3.8970    1.4940 hc        1 EF1      0.074333
     53 H26        -2.8530   -4.6250    0.4550 hc        1 EF1      0.074333
     54 H27        -0.2180   -2.9850    1.4010 hn        1 EF1      0.239000
     55 H28         1.9740   -4.5010    0.7430 hc        1 EF1      0.105000
     56 H29         2.6590   -3.2100    1.4930 hc        1 EF1      0.105000
     57 H30         3.9700   -2.7620   -0.4040 hc        1 EF1      0.107000
     58 H31         3.2720   -3.9650   -1.2100 hc        1 EF1      0.107000
     59 H32         5.6330   -3.2730    1.3600 ha        1 EF1      0.128750
     60 H33         3.9440   -6.2450   -0.8340 ha        1 EF1      0.134000
     61 H34         5.5970   -7.6940   -0.0010 ha        1 EF1      0.128750
     62 H35         7.2560   -6.9560    1.4700 ha        1 EF1      0.128750
     63 H36         7.2260   -4.7500    2.1610 ha        1 EF1      0.128750
@<TRIPOS>BOND
     1    1    2 1   
     2    2    3 1   
     3    4    5 1   
     4    4   11 1   
     5    4   30 1   
     6    5    6 1   
     7    5   31 1   
     8    5   32 1   
     9    6    7 1   
    10    6   33 1   
    11    6   34 1   
    12    7    8 1   
    13    7   35 1   
    14    7   36 1   
    15    8    9 1   
    16    8   37 1   
    17    8   38 1   
    18    9   10 1   
    19    9   39 1   
    20    9   40 1   
    21   10   41 1   
    22   10   42 1   
    23   11   12 1   
    24   11   43 1   
    25   11   44 1   
    26   12   13 1   
    27   12   14 1   
    28   12   15 1   
    29   14   45 1   
    30   15   16 1   
    31   15   19 1   
    32   15   46 1   
    33   16   17 1   
    34   16   18 1   
    35   16   47 1   
    36   17   48 1   
    37   17   49 1   
    38   17   50 1   
    39   18   51 1   
    40   18   52 1   
    41   18   53 1   
    42   19   20 1   
    43   19   54 1   
    44   20   21 1   
    45   20   22 1   
    46   22   23 1   
    47   22   55 1   
    48   22   56 1   
    49   23   24 1   
    50   23   57 1   
    51   23   58 1   
    52   24   26 1   
    53   25   29 1   
    54   25   59 1   
    55   26   60 1   
    56   27   28 1   
    57   27   61 1   
    58   28   62 1   
    59   29   63 1   
@<TRIPOS>SUBSTRUCTURE
     1 EF1         1 TEMP              0 ****  ****    0 ROOT
