@<TRIPOS>MOLECULE
EF2
   29    30     1     0     0
SMALL
bcc


@<TRIPOS>ATOM
      1 O01         0.2510    1.3760    0.4480 o         1 EF2     -0.325000
      2 C02         1.1350    0.5030    0.4500 c2        1 EF2      0.322000
      3 N03         1.4250   -0.1530    1.6400 n         1 EF2     -0.383000
      4 C04         2.4860   -1.0280    1.8800 c2        1 EF2      0.261000
      5 O05         2.6070   -1.5350    3.0030 o         1 EF2     -0.332000
      6 C06         4.2330    0.9310   -1.4950 c3        1 EF2     -0.266000
      7 C07         3.3110    0.2610   -0.6290 c1        1 EF2     -0.073000
      8 C08         1.8740    0.0940   -0.8560 c3        1 EF2     -0.025000
      9 N09         1.2720    0.6580   -2.0440 n         1 EF2     -0.356000
     10 C11        -0.6400    2.9760   -5.6960 c3        1 EF2     -0.119000
     11 C12         0.2890    3.1390   -4.5160 c2        1 EF2     -0.074000
     12 C13         0.3490    2.2290   -3.5270 c2        1 EF2     -0.138000
     13 C14        -0.3900    0.9350   -3.6670 c2        1 EF2     -0.115000
     14 C19        -1.3630    1.0400   -4.5540 c1        1 EF2     -0.028000
     15 C20        -1.7560    2.0290   -5.3500 c2        1 EF2     -0.110000
     16 C3          0.2590   -0.0460   -2.7780 c2        1 EF2      0.384000
     17 C4          1.3120    2.0380   -2.4050 c2        1 EF2      0.380000
     18 H03         0.8410    0.0890    2.4180 hn        1 EF2      0.245000
     19 H08         1.7410   -1.0440   -0.9540 h1        1 EF2      0.190000
     20 H061        3.1830   -1.2020    1.0270 h5        1 EF2      0.185000
     21 H062        5.2680    0.5190   -1.3700 hc        1 EF2      0.129333
     22 H071        3.9690    0.9460   -2.5830 hc        1 EF2      0.129333
     23 H072        4.2430    2.0090   -1.1420 hc        1 EF2      0.129333
     24 H11        -0.0280    2.6530   -6.5810 hc        1 EF2      0.127500
     25 H12         0.9470    4.0210   -4.5430 ha        1 EF2      0.162000
     26 H20        -1.1080    3.9660   -5.9480 hc        1 EF2      0.127500
     27 H19        -2.7870    2.2640   -5.6310 ha        1 EF2      0.171000
     28 O16         2.0780    2.8710   -1.9140 o         1 EF2     -0.309000
     29 O18         0.0300   -1.2490   -2.6310 o         1 EF2     -0.291000
@<TRIPOS>BOND
     1    1    2 1   
     2    2    3 1   
     3    2    8 1   
     4    3    4 1   
     5    3   18 1   
     6    4    5 1   
     7    4   20 1   
     8    6    7 1   
     9    6   21 1   
    10    6   22 1   
    11    6   23 1   
    12    7    8 1   
    13    8    9 1   
    14    8   19 1   
    15    9   16 1   
    16    9   17 1   
    17   10   11 1   
    18   10   15 1   
    19   10   24 1   
    20   10   26 1   
    21   11   12 1   
    22   11   25 1   
    23   12   13 1   
    24   12   17 1   
    25   13   14 1   
    26   13   16 1   
    27   14   15 1   
    28   15   27 1   
    29   16   29 1   
    30   17   28 1   
@<TRIPOS>SUBSTRUCTURE
     1 EF2         1 TEMP              0 ****  ****    0 ROOT
