@<TRIPOS>MOLECULE
EF2
   29    29     1     0     0
SMALL
bcc


@<TRIPOS>ATOM
      1 O01         0.0590    1.5390   -0.1160 o         1 EF2     -0.318000
      2 C02         1.0060    0.7480    0.0170 c2        1 EF2      0.292000
      3 N03         1.1690    0.1170    1.2480 ns        1 EF2     -0.388000
      4 C04         2.1530   -0.8070    1.5840 c2        1 EF2      0.264000
      5 O05         2.1740   -1.3160    2.7110 o         1 EF2     -0.316000
      6 C06         4.4540    0.2410   -0.8250 c2        1 EF2     -0.184000
      7 C07         3.3470    0.9760   -0.7720 c2        1 EF2     -0.195000
      8 C08         1.9930    0.4250   -1.1350 c3        1 EF2      0.060000
      9 N09         1.5220    0.9100   -2.4130 n         1 EF2     -0.338000
     10 C11        -1.6250    3.3210   -4.5160 c3        1 EF2     -0.289000
     11 C12        -0.2890    3.4160   -3.9980 c1        1 EF2      0.002000
     12 C13         0.7290    2.3810   -4.1460 c3        1 EF2     -0.180000
     13 C14         0.3220    0.9660   -4.4540 c2        1 EF2      0.149000
     14 C19        -0.3180    0.5280   -5.5110 c1        1 EF2     -0.517000
     15 C20        -0.9400    0.0730   -6.5400 c1        1 EF2      0.269000
     16 C3          0.7810    0.0960   -3.3010 c2        1 EF2      0.312000
     17 C4          1.5560    2.2640   -2.8440 c2        1 EF2      0.348000
     18 H03         0.4980    0.3560    1.9540 hn        1 EF2      0.251000
     19 H08         2.0390   -0.7070   -1.2330 h1        1 EF2      0.139000
     20 H061        2.8980   -1.0350    0.7880 h5        1 EF2      0.140000
     21 H062        4.4650   -0.8130   -1.1380 ha        1 EF2      0.125500
     22 H071        5.4360    0.6550   -0.5540 ha        1 EF2      0.125500
     23 H072        3.3550    2.0430   -0.4870 ha        1 EF2      0.167000
     24 H11        -1.8840    2.4030   -5.1050 hc        1 EF2      0.128667
     25 H12         1.4160    2.7800   -4.9600 hc        1 EF2      0.206000
     26 H20        -1.8190    4.2300   -5.1510 hc        1 EF2      0.128667
     27 H19        -2.3210    3.3960   -3.6320 hc        1 EF2      0.128667
     28 O16         2.1890    3.1620   -2.2970 o         1 EF2     -0.250000
     29 O18         0.5910   -1.1100   -3.1420 o         1 EF2     -0.261000
@<TRIPOS>BOND
     1    1    2 1   
     2    2    3 1   
     3    2    8 1   
     4    3    4 1   
     5    3   18 1   
     6    4    5 1   
     7    4   20 1   
     8    6    7 1   
     9    6   21 1   
    10    6   22 1   
    11    7    8 1   
    12    7   23 1   
    13    8    9 1   
    14    8   19 1   
    15    9   16 1   
    16    9   17 1   
    17   10   11 1   
    18   10   24 1   
    19   10   26 1   
    20   10   27 1   
    21   11   12 1   
    22   12   13 1   
    23   12   17 1   
    24   12   25 1   
    25   13   14 1   
    26   13   16 1   
    27   14   15 1   
    28   16   29 1   
    29   17   28 1   
@<TRIPOS>SUBSTRUCTURE
     1 EF2         1 TEMP              0 ****  ****    0 ROOT
