@<TRIPOS>MOLECULE
EF2
   29    29     1     0     0
SMALL
bcc


@<TRIPOS>ATOM
      1 O01         0.0470    1.1540    0.2240 o         1 EF2     -0.328000
      2 C02         1.0190    0.3860    0.3070 c2        1 EF2      0.323000
      3 N03         1.2790   -0.2430    1.5170 n         1 EF2     -0.382000
      4 C04         2.4060   -1.0000    1.8480 c2        1 EF2      0.261000
      5 O05         2.4850   -1.4970    2.9780 o         1 EF2     -0.327000
      6 C06         4.2070    1.1790   -1.3580 c3        1 EF2     -0.266000
      7 C07         3.2940    0.3950   -0.5830 c1        1 EF2     -0.071000
      8 C08         1.9090    0.0740   -0.9310 c3        1 EF2     -0.025000
      9 N09         1.3490    0.5890   -2.1640 n         1 EF2     -0.351000
     10 C11        -0.8670    3.5240   -5.3710 c3        1 EF2     -0.234000
     11 C12         0.0390    3.2810   -4.2410 c2        1 EF2      0.049000
     12 C13         0.3290    2.0880   -3.6910 c2        1 EF2     -0.226000
     13 C14        -0.1400    0.7470   -4.0200 c2        1 EF2      0.236000
     14 C19        -0.9380    0.3380   -4.9820 c1        1 EF2     -0.528000
     15 C20        -1.7140   -0.0960   -5.9040 c1        1 EF2      0.246000
     16 C3          0.4950   -0.1880   -2.9940 c2        1 EF2      0.309000
     17 C4          1.2620    1.9630   -2.5160 c2        1 EF2      0.362000
     18 H03         0.6080   -0.0720    2.2420 hn        1 EF2      0.247000
     19 H08         1.9090   -1.0690   -1.0460 h1        1 EF2      0.190000
     20 H061        3.1870   -1.0900    1.0580 h5        1 EF2      0.186000
     21 H062        5.2660    0.8730   -1.1540 hc        1 EF2      0.130667
     22 H071        4.0760    2.2420   -0.9860 hc        1 EF2      0.130667
     23 H072        4.0320    1.1960   -2.4640 hc        1 EF2      0.130667
     24 H11        -0.3110    4.0450   -6.1930 hc        1 EF2      0.117000
     25 H12         0.5200    4.1830   -3.8080 ha        1 EF2      0.154000
     26 H20        -1.7020    4.1970   -5.0400 hc        1 EF2      0.117000
     27 H19        -1.3110    2.5820   -5.7810 hc        1 EF2      0.117000
     28 O16         1.8920    2.8740   -1.9710 o         1 EF2     -0.310000
     29 O18         0.3480   -1.4050   -2.8840 o         1 EF2     -0.259000
@<TRIPOS>BOND
     1    1    2 1   
     2    2    3 1   
     3    2    8 1   
     4    3    4 1   
     5    3   18 1   
     6    4    5 1   
     7    4   20 1   
     8    6    7 1   
     9    6   21 1   
    10    6   22 1   
    11    6   23 1   
    12    7    8 1   
    13    8    9 1   
    14    8   19 1   
    15    9   16 1   
    16    9   17 1   
    17   10   11 1   
    18   10   24 1   
    19   10   26 1   
    20   10   27 1   
    21   11   12 1   
    22   11   25 1   
    23   12   13 1   
    24   12   17 1   
    25   13   14 1   
    26   13   16 1   
    27   14   15 1   
    28   16   29 1   
    29   17   28 1   
@<TRIPOS>SUBSTRUCTURE
     1 EF2         1 TEMP              0 ****  ****    0 ROOT
