@<TRIPOS>MOLECULE
EF3
   60    59     1     0     0
SMALL
bcc


@<TRIPOS>ATOM
      1 C1         -0.1310    0.0130   -0.4430 c2        1 EF3      0.087000
      2 C2          0.8310    0.9900    0.1440 c2        1 EF3     -0.244000
      3 N3          0.8950    1.1000    1.5590 n3        1 EF3     -0.223000
      4 C4         -2.3120   -0.3290    0.8540 c1        1 EF3      0.173000
      5 N5         -1.3030   -0.1970    0.2450 n2        1 EF3     -0.299000
      6 C6          3.4070    0.8840   -6.0080 c2        1 EF3     -0.316000
      7 C7          4.2930   -0.1980   -5.9260 c2        1 EF3      0.263000
      8 C8          4.5430   -0.8260   -4.6460 c2        1 EF3     -0.259000
      9 C9          3.9270   -0.3800   -3.5300 c2        1 EF3     -0.021000
     10 C10         3.0200    0.7960   -3.5640 c3        1 EF3     -0.124000
     11 C11         2.7180    1.3520   -4.8950 c1        1 EF3     -0.084000
     12 C12         1.7190    0.6170   -2.8210 c2        1 EF3      0.028000
     13 C13         1.5250    1.7980   -0.6860 c1        1 EF3      0.125000
     14 C14         0.1630   -0.6690   -1.6060 c2        1 EF3     -0.070000
     15 N15         1.3550   -0.5200   -2.3270 n2        1 EF3     -0.183000
     16 C16         2.0340    1.8360    2.0490 c3        1 EF3     -0.136000
     17 C18         5.7320   -1.7700   -7.0160 c3        1 EF3     -0.099000
     18 C19         6.2580   -2.0710  -10.5370 c2        1 EF3     -0.351000
     19 C20         7.5290   -1.6410  -10.4380 c2        1 EF3     -0.020000
     20 N21         7.9700   -0.4160   -9.9410 n3        1 EF3     -0.287000
     21 C22         3.1130    1.5460   -7.3470 c3        1 EF3      0.499000
     22 F23         2.7870    2.8760   -7.2790 f         1 EF3     -0.167667
     23 F24         4.1590    1.5180   -8.2420 f         1 EF3     -0.167667
     24 F25         2.0730    0.9750   -8.0420 f         1 EF3     -0.167667
     25 C26        -0.7530   -1.7410   -2.1040 c2        1 EF3     -0.012000
     26 N27        -1.0390   -2.0490   -3.3050 n2        1 EF3     -0.199000
     27 C28         6.2660    1.2010  -10.9110 c3        1 EF3     -0.246000
     28 N29         9.5590    1.3280  -12.2140 n2        1 EF3     -0.185000
     29 C30         9.8370    0.0490  -11.6220 c3        1 EF3     -0.137000
     30 C31         9.3530   -0.0760  -10.1570 c3        1 EF3     -0.019000
     31 C32         7.0150    0.6450   -9.7100 c3        1 EF3     -0.033000
     32 C33         8.8220    1.4420  -13.2490 c2        1 EF3     -0.117000
     33 H4          0.8090    0.2030    2.0000 hn        1 EF3      0.184000
     34 H8          4.0960   -0.8660   -2.5540 ha        1 EF3      0.155000
     35 H9          5.2350   -1.6820   -4.6050 ha        1 EF3      0.153000
     36 H11         3.5620    1.6520   -3.0290 hc        1 EF3      0.197000
     37 H13         1.1010    1.5510   -2.8440 h4        1 EF3      0.169000
     38 H16         3.0220    1.3570    1.8060 h1        1 EF3      0.085667
     39 H16A        2.0210    2.8680    1.6030 h1        1 EF3      0.085667
     40 H16B        1.9390    1.9210    3.1630 h1        1 EF3      0.085667
     41 H18         6.6190   -1.5580   -6.3730 h1        1 EF3      0.109667
     42 H18A        6.0380   -1.8960   -8.0920 h1        1 EF3      0.109667
     43 H19         5.1690   -2.6620   -6.6530 h1        1 EF3      0.109667
     44 H19A        5.3800   -1.4540  -10.3170 ha        1 EF3      0.122000
     45 H20         6.0460   -3.0920  -10.8710 ha        1 EF3      0.122000
     46 H20A        8.3600   -2.3290  -10.7050 h4        1 EF3      0.124000
     47 H26        -0.6170   -1.5230   -4.0410 hn        1 EF3      0.153000
     48 HN27       -1.2260   -2.3470   -1.3010 h4        1 EF3      0.160000
     49 H28         6.2480    0.2430   -8.9790 h1        1 EF3      0.093500
     50 H28A        5.8130    0.3840  -11.5230 hc        1 EF3      0.084000
     51 H30         6.9360    1.8050  -11.5680 hc        1 EF3      0.084000
     52 H30A        9.4340   -0.8230  -12.2160 h1        1 EF3      0.086000
     53 H31        10.9620   -0.0440  -11.6020 h1        1 EF3      0.086000
     54 H31A        9.9750   -0.8960   -9.6940 h1        1 EF3      0.096000
     55 H32         9.5780    0.8810   -9.6070 h1        1 EF3      0.096000
     56 H32A        7.5540    1.4940   -9.2000 h1        1 EF3      0.093500
     57 H33         5.4450    1.8600  -10.5350 hc        1 EF3      0.084000
     58 H33A        8.6670    2.4580  -13.6590 h4        1 EF3      0.112500
     59 H33B        8.3110    0.6250  -13.7930 h4        1 EF3      0.112500
     60 O17         4.8730   -0.6250   -7.0690 os        1 EF3     -0.164000
@<TRIPOS>BOND
     1    1    2 1   
     2    1    5 1   
     3    1   14 1   
     4    2    3 1   
     5    2   13 1   
     6    3   16 1   
     7    3   33 1   
     8    4    5 1   
     9    6    7 1   
    10    6   11 1   
    11    6   21 1   
    12    7    8 1   
    13    7   60 1   
    14    8    9 1   
    15    8   35 1   
    16    9   10 1   
    17    9   34 1   
    18   10   11 1   
    19   10   12 1   
    20   10   36 1   
    21   12   15 1   
    22   12   37 1   
    23   14   15 1   
    24   14   25 1   
    25   16   38 1   
    26   16   39 1   
    27   16   40 1   
    28   17   41 1   
    29   17   42 1   
    30   17   43 1   
    31   17   60 1   
    32   18   19 1   
    33   18   44 1   
    34   18   45 1   
    35   19   20 1   
    36   19   46 1   
    37   20   30 1   
    38   20   31 1   
    39   21   22 1   
    40   21   23 1   
    41   21   24 1   
    42   25   26 1   
    43   25   48 1   
    44   26   47 1   
    45   27   31 1   
    46   27   50 1   
    47   27   51 1   
    48   27   57 1   
    49   28   29 1   
    50   28   32 1   
    51   29   30 1   
    52   29   52 1   
    53   29   53 1   
    54   30   54 1   
    55   30   55 1   
    56   31   49 1   
    57   31   56 1   
    58   32   58 1   
    59   32   59 1   
@<TRIPOS>SUBSTRUCTURE
     1 EF3         1 TEMP              0 ****  ****    0 ROOT
