@<TRIPOS>MOLECULE
EF3
   60    60     1     0     0
SMALL
bcc


@<TRIPOS>ATOM
      1 C1          0.1190   -0.7890   -0.9220 c2        1 EF3     -0.025000
      2 C2          0.6480    0.5210   -1.2020 c2        1 EF3      0.121000
      3 N3         -0.0250    1.6710   -0.8220 nu        1 EF3     -0.301000
      4 C4         -2.1870   -1.0730    0.1540 c1        1 EF3      0.134000
      5 N5         -1.1210   -0.9440   -0.3460 n2        1 EF3     -0.289000
      6 C6          4.6590    0.7900   -4.7800 c2        1 EF3     -0.322000
      7 C7          5.1120   -0.3920   -5.3910 c2        1 EF3      0.270000
      8 C8          4.9970   -1.6470   -4.6820 c2        1 EF3     -0.267000
      9 C9          4.4470   -1.6970   -3.4490 c2        1 EF3     -0.015000
     10 C10         3.9830   -0.4650   -2.7510 c3        1 EF3     -0.086000
     11 C11         4.0650    0.7830   -3.5290 c1        1 EF3     -0.115000
     12 C12         2.6120   -0.5980   -2.1210 c2        1 EF3      0.048000
     13 C13         1.9210    0.5840   -1.8190 c2        1 EF3     -0.206000
     14 C14         0.9120   -1.9210   -1.2670 c2        1 EF3     -0.013000
     15 N15         2.1210   -1.8310   -1.8560 n2        1 EF3     -0.184000
     16 C16         0.4130    2.9560   -1.2830 c3        1 EF3     -0.093000
     17 C18         6.0740   -1.4950   -7.2880 c3        1 EF3     -0.137000
     18 C19         4.6230    1.6950   -9.7590 c2        1 EF3     -0.226000
     19 C20         5.8730    1.3190   -9.4810 c2        1 EF3     -0.124000
     20 N21         6.8120    0.7850  -10.4740 nx        1 EF3      0.188000
     21 C22         4.7650    2.1140   -5.5160 c3        1 EF3      0.500000
     22 F23         4.6710    3.2370   -4.7370 f         1 EF3     -0.175000
     23 F24         5.9470    2.2970   -6.2010 f         1 EF3     -0.175000
     24 F25         3.8060    2.3040   -6.4860 f         1 EF3     -0.175000
     25 C26         0.4060   -3.2950   -0.9640 c2        1 EF3     -0.014000
     26 N27         0.5110   -4.3500   -1.6700 n2        1 EF3     -0.203000
     27 C28         7.1260    2.9600  -11.7360 c3        1 EF3     -0.240000
     28 N29         8.1530   -1.3930  -12.0940 n2        1 EF3     -0.227000
     29 C30         7.5570   -1.5880  -10.7870 c3        1 EF3      0.003000
     30 C31         7.4840   -0.3690   -9.9530 c2        1 EF3     -0.714000
     31 C32         7.7650    1.8760  -10.8950 c3        1 EF3     -0.155000
     32 C33         9.2210   -1.9920  -12.4440 c2        1 EF3     -0.130000
     33 H4         -1.0050    1.5870   -0.6660 hn        1 EF3      0.221000
     34 H8          4.3550   -2.6560   -2.9120 ha        1 EF3      0.162000
     35 H9          5.3620   -2.5620   -5.1750 ha        1 EF3      0.155000
     36 H11         4.7130   -0.2940   -1.8850 hc        1 EF3      0.180000
     37 H13         2.3860    1.5510   -2.0850 ha        1 EF3      0.199000
     38 H16         0.4530    3.0190   -2.4050 h1        1 EF3      0.087667
     39 H16A        1.4380    3.1720   -0.8780 h1        1 EF3      0.087667
     40 H16B       -0.2980    3.7350   -0.8990 h1        1 EF3      0.087667
     41 H18         6.8970   -1.9710   -6.7050 h1        1 EF3      0.124000
     42 H18A        5.2180   -2.1960   -7.4260 h1        1 EF3      0.124000
     43 H19         6.4570   -1.1010   -8.2880 h1        1 EF3      0.124000
     44 H19A        4.1710    1.6630  -10.7590 ha        1 EF3      0.137000
     45 H20         3.9690    2.0610   -8.9520 ha        1 EF3      0.137000
     46 H20A        6.2970    1.3300   -8.4560 hx        1 EF3      0.192000
     47 H26         0.9900   -4.2770   -2.5430 hn        1 EF3      0.151000
     48 HN27       -0.1150   -3.3840    0.0130 h4        1 EF3      0.159000
     49 H28         6.2610    3.4290  -11.2060 hc        1 EF3      0.090333
     50 H28A        6.7690    2.5550  -12.7130 hc        1 EF3      0.090333
     51 H30         6.2810    0.5080  -11.3090 hn        1 EF3      0.211000
     52 H30A        8.0940   -2.3670  -10.1680 h1        1 EF3      0.064500
     53 H31         6.5190   -1.9860  -10.9990 h1        1 EF3      0.064500
     54 H31A        8.2940   -0.1450   -9.2560 hx        1 EF3      0.127000
     55 H32         8.5880    1.3720  -11.4750 hx        1 EF3      0.123500
     56 H32A        8.2080    2.3170   -9.9610 hx        1 EF3      0.123500
     57 H33         7.8880    3.7510  -11.9410 hc        1 EF3      0.090333
     58 H33A        9.8100   -2.7010  -11.8310 h4        1 EF3      0.098500
     59 H33B        9.6200   -1.8060  -13.4590 h4        1 EF3      0.098500
     60 O17         5.6310   -0.3000   -6.6290 os        1 EF3     -0.165000
@<TRIPOS>BOND
     1    1    2 1   
     2    1    5 1   
     3    1   14 1   
     4    2    3 1   
     5    2   13 1   
     6    3   16 1   
     7    3   33 1   
     8    4    5 1   
     9    6    7 1   
    10    6   11 1   
    11    6   21 1   
    12    7    8 1   
    13    7   60 1   
    14    8    9 1   
    15    8   35 1   
    16    9   10 1   
    17    9   34 1   
    18   10   11 1   
    19   10   12 1   
    20   10   36 1   
    21   12   13 1   
    22   12   15 1   
    23   13   37 1   
    24   14   15 1   
    25   14   25 1   
    26   16   38 1   
    27   16   39 1   
    28   16   40 1   
    29   17   41 1   
    30   17   42 1   
    31   17   43 1   
    32   17   60 1   
    33   18   19 1   
    34   18   44 1   
    35   18   45 1   
    36   19   20 1   
    37   19   46 1   
    38   20   30 1   
    39   20   31 1   
    40   20   51 1   
    41   21   22 1   
    42   21   23 1   
    43   21   24 1   
    44   25   26 1   
    45   25   48 1   
    46   26   47 1   
    47   27   31 1   
    48   27   49 1   
    49   27   50 1   
    50   27   57 1   
    51   28   29 1   
    52   28   32 1   
    53   29   30 1   
    54   29   52 1   
    55   29   53 1   
    56   30   54 1   
    57   31   55 1   
    58   31   56 1   
    59   32   58 1   
    60   32   59 1   
@<TRIPOS>SUBSTRUCTURE
     1 EF3         1 TEMP              0 ****  ****    0 ROOT
