@<TRIPOS>MOLECULE
EF3
   60    59     1     0     0
SMALL
bcc


@<TRIPOS>ATOM
      1 C1         -0.5480   -0.2100    0.2820 c2        1 EF3      0.214000
      2 C2          0.9270   -0.2670    0.5130 c2        1 EF3     -0.178000
      3 N3          1.4670   -0.7260    1.7240 n3        1 EF3     -0.222000
      4 C4         -2.2880   -0.7560    2.0550 c1        1 EF3      0.199000
      5 N5         -1.4940   -0.4850    1.2140 n2        1 EF3     -0.296000
      6 C6          2.9100    0.5870   -5.7410 c2        1 EF3     -0.318000
      7 C7          4.0270   -0.0800   -5.2080 c2        1 EF3      0.274000
      8 C8          4.1450   -0.2580   -3.7790 c2        1 EF3     -0.276000
      9 C9          3.2170    0.2510   -2.9370 c2        1 EF3     -0.029000
     10 C10         2.0970    1.0790   -3.4570 c3        1 EF3     -0.137000
     11 C11         1.9240    1.1130   -4.9250 c1        1 EF3     -0.114000
     12 C12         0.7510    0.8320   -2.8450 c2        1 EF3      0.143000
     13 C13         1.5680    0.0860   -0.6680 c1        1 EF3     -0.252000
     14 C14        -0.7720    0.1690   -1.0450 c2        1 EF3     -0.283000
     15 N15         0.5270    0.3700   -1.6470 n3        1 EF3      0.038000
     16 C16         2.8960   -0.9230    1.7180 c3        1 EF3     -0.109000
     17 C18         6.0790   -1.2620   -5.5670 c3        1 EF3     -0.094000
     18 C19         6.4890   -1.4540   -9.0040 c2        1 EF3     -0.194000
     19 C20         7.3660   -0.6170   -9.5810 c2        1 EF3     -0.126000
     20 N21         8.6580   -1.0250   -9.9640 n2        1 EF3     -0.156000
     21 C22         2.7440    0.7410   -7.2450 c3        1 EF3      0.501000
     22 F23         1.4480    0.7490   -7.6920 f         1 EF3     -0.167000
     23 F24         3.2880    1.8970   -7.7520 f         1 EF3     -0.167000
     24 F25         3.3370   -0.2520   -7.9930 f         1 EF3     -0.167000
     25 C26        -2.0620    0.3010   -1.7110 c2        1 EF3      0.008000
     26 N27        -2.4280   -0.0360   -2.8860 n2        1 EF3     -0.222000
     27 C28         6.7500    1.5430  -13.8140 c3        1 EF3     -0.214500
     28 N29        11.2330   -0.3730  -12.4050 n2        1 EF3     -0.178000
     29 C30        10.8110   -0.6310  -11.0620 c3        1 EF3     -0.085000
     30 C31         9.3970   -0.2490  -10.6780 c2        1 EF3     -0.096000
     31 C32         7.3630    2.2920  -12.6670 c3        1 EF3     -0.214500
     32 C33        10.4450   -0.0330  -13.3470 c2        1 EF3     -0.125000
     33 H4          1.1880   -0.1240    2.4790 hn        1 EF3      0.163000
     34 H8          3.2530    0.0930   -1.8290 ha        1 EF3      0.236000
     35 H9          4.9960   -0.8350   -3.3860 ha        1 EF3      0.158000
     36 H11         2.3630    2.1670   -3.1960 hc        1 EF3      0.209000
     37 H13        -0.0980    1.1090   -3.5160 h4        1 EF3      0.202000
     38 H16         3.1620   -1.6380    0.8960 h1        1 EF3      0.074333
     39 H16A        3.1860   -1.3690    2.7050 h1        1 EF3      0.074333
     40 H16B        3.4810    0.0240    1.5590 h1        1 EF3      0.074333
     41 H18         6.6830   -0.6010   -4.9020 h1        1 EF3      0.109333
     42 H18A        5.7480   -2.1860   -5.0350 h1        1 EF3      0.109333
     43 H19         6.6440   -1.5170   -6.5040 h1        1 EF3      0.109333
     44 H19A        6.6970   -2.5160   -8.8180 ha        1 EF3      0.130000
     45 H20         5.4920   -1.1010   -8.6980 ha        1 EF3      0.130000
     46 H20A        7.0820    0.4430   -9.7580 h4        1 EF3      0.112000
     47 H26        -1.7420   -0.4470   -3.4850 hn        1 EF3      0.137000
     48 HN27       -2.8490    0.7380   -1.0530 h4        1 EF3      0.162000
     49 H28         7.0790    1.8240  -11.6920 hc        1 EF3      0.071667
     50 H28A        5.6360    1.5360  -13.7300 hc        1 EF3      0.071667
     51 H30         7.1050    0.4840  -13.8300 hc        1 EF3      0.071667
     52 H30A       11.0020   -1.7270  -10.8670 h1        1 EF3      0.126500
     53 H31        11.5020   -0.0430  -10.3860 h1        1 EF3      0.126500
     54 H31A        9.0770    0.7540  -11.0440 h4        1 EF3      0.102000
     55 H32         8.4780    2.2900  -12.7450 hc        1 EF3      0.071667
     56 H32A        7.0150    3.3540  -12.6570 hc        1 EF3      0.071667
     57 H33         7.0230    2.0180  -14.7870 hc        1 EF3      0.071667
     58 H33A       10.8880    0.1260  -14.3480 h4        1 EF3      0.115500
     59 H33B        9.3500    0.1240  -13.2830 h4        1 EF3      0.115500
     60 O17         4.9440   -0.5500   -6.0790 os        1 EF3     -0.162000
@<TRIPOS>BOND
     1    1    2 1   
     2    1    5 1   
     3    1   14 1   
     4    2    3 1   
     5    2   13 1   
     6    3   16 1   
     7    3   33 1   
     8    4    5 1   
     9    6    7 1   
    10    6   11 1   
    11    6   21 1   
    12    7    8 1   
    13    7   60 1   
    14    8    9 1   
    15    8   35 1   
    16    9   10 1   
    17    9   34 1   
    18   10   11 1   
    19   10   12 1   
    20   10   36 1   
    21   12   15 1   
    22   12   37 1   
    23   13   15 1   
    24   14   15 1   
    25   14   25 1   
    26   16   38 1   
    27   16   39 1   
    28   16   40 1   
    29   17   41 1   
    30   17   42 1   
    31   17   43 1   
    32   17   60 1   
    33   18   19 1   
    34   18   44 1   
    35   18   45 1   
    36   19   20 1   
    37   19   46 1   
    38   20   30 1   
    39   21   22 1   
    40   21   23 1   
    41   21   24 1   
    42   25   26 1   
    43   25   48 1   
    44   26   47 1   
    45   27   31 1   
    46   27   50 1   
    47   27   51 1   
    48   27   57 1   
    49   28   29 1   
    50   28   32 1   
    51   29   30 1   
    52   29   52 1   
    53   29   53 1   
    54   30   54 1   
    55   31   49 1   
    56   31   55 1   
    57   31   56 1   
    58   32   58 1   
    59   32   59 1   
@<TRIPOS>SUBSTRUCTURE
     1 EF3         1 TEMP              0 ****  ****    0 ROOT
