@<TRIPOS>MOLECULE
EF3
   60    63     1     0     0
SMALL
bcc


@<TRIPOS>ATOM
      1 C1          6.5360   -0.6140    0.3190 ca        1 EF3     -0.045900
      2 C2          5.7230   -1.7280   -0.1450 ca        1 EF3     -0.047200
      3 N3          6.6200   -2.7710   -0.4020 na        1 EF3     -0.168300
      4 C4          7.9060   -2.2600   -0.1080 cc        1 EF3      0.423700
      5 N5          7.8910   -0.9920    0.3300 nd        1 EF3     -0.550100
      6 C6          0.3930    1.1630   -0.4790 ca        1 EF3     -0.211300
      7 C7         -0.4500    0.1120   -0.0600 ca        1 EF3      0.189100
      8 C8          0.1050   -1.0780    0.4320 ca        1 EF3     -0.222000
      9 C9          1.4880   -1.2150    0.4990 ca        1 EF3     -0.054000
     10 C10         2.3320   -0.1800    0.0800 cp        1 EF3     -0.185500
     11 C11         1.7770    1.0130   -0.3990 ca        1 EF3     -0.009000
     12 C12         3.7950   -0.3530    0.1480 cp        1 EF3      0.473800
     13 C13         4.3350   -1.5960   -0.2320 ca        1 EF3     -0.233300
     14 C14         5.8730    0.5940    0.6560 ca        1 EF3      0.432000
     15 N15         4.5410    0.7130    0.5740 nb        1 EF3     -0.643000
     16 C16         6.3180   -4.0400   -0.9690 c3        1 EF3      0.030600
     17 C18        -2.6740   -0.6950    0.2680 c3        1 EF3      0.131400
     18 C19        -4.0800   -0.1600    0.0550 c3        1 EF3     -0.090400
     19 C20        -5.0820   -1.2760    0.3430 c3        1 EF3      0.174800
     20 N21        -6.4610   -0.8160    0.4280 n3        1 EF3     -0.727600
     21 C22        -0.2090    2.4560   -1.0120 c3        1 EF3      0.704200
     22 F23         0.7130    3.3910   -1.4210 f         1 EF3     -0.235300
     23 F24        -1.0180    2.2950   -2.1100 f         1 EF3     -0.235300
     24 F25        -0.9890    3.1360   -0.1100 f         1 EF3     -0.235300
     25 C26         6.7080    1.7320    1.1320 ce        1 EF3      0.372200
     26 N27         6.5930    2.9110    0.6540 n2        1 EF3     -0.728100
     27 C28        -8.4100    0.2310   -0.7390 c3        1 EF3      0.167300
     28 N29        -9.2890   -0.8400   -0.2940 n3        1 EF3     -0.732600
     29 C30        -8.8240   -1.4500    0.9440 c3        1 EF3      0.167300
     30 C31        -7.3470   -1.8820    0.8790 c3        1 EF3      0.166800
     31 C32        -6.9300   -0.1900   -0.8000 c3        1 EF3      0.166800
     32 C33       -10.6710   -0.4250   -0.2190 c3        1 EF3      0.157100
     33 H4          8.8050   -2.8770   -0.2280 h5        1 EF3      0.073800
     34 H8         -0.5390   -1.9020    0.7690 ha        1 EF3      0.145000
     35 H9          1.9190   -2.1480    0.8970 ha        1 EF3      0.139000
     36 H11         2.4330    1.8440   -0.7150 ha        1 EF3      0.178000
     37 H13         3.6930   -2.4110   -0.5870 ha        1 EF3      0.148000
     38 H16         6.3200   -3.9830   -2.0930 h1        1 EF3      0.055700
     39 H16A        7.0870   -4.7900   -0.6410 h1        1 EF3      0.055700
     40 H16B        5.3030   -4.3750   -0.6260 h1        1 EF3      0.055700
     41 H18        -2.4890   -1.6160   -0.3450 h1        1 EF3      0.042700
     42 H18A       -2.4790   -0.9110    1.3510 h1        1 EF3      0.042700
     43 H19        -4.2520    0.7190    0.7280 hc        1 EF3      0.071700
     44 H19A       -4.1810    0.2000   -1.0020 hc        1 EF3      0.071700
     45 H20        -4.9570   -2.0780   -0.4450 h1        1 EF3      0.030200
     46 H20A       -4.8260   -1.7380    1.3390 h1        1 EF3      0.030200
     47 H26         7.4320    1.4090    1.9140 h4        1 EF3     -0.013200
     48 HN27        7.2210    3.5870    1.0400 hn        1 EF3      0.389400
     49 H28        -8.7260    0.5250   -1.7790 h1        1 EF3      0.037950
     50 H28A       -8.4980    1.1440   -0.0800 h1        1 EF3      0.037950
     51 H30        -8.9600   -0.7590    1.8270 h1        1 EF3      0.037950
     52 H30A       -9.4430   -2.3720    1.1270 h1        1 EF3      0.037950
     53 H31        -7.2670   -2.7960    0.2200 h1        1 EF3      0.037700
     54 H31A       -7.0310   -2.1750    1.9190 h1        1 EF3      0.037700
     55 H32        -6.3190    0.7420   -0.9640 h1        1 EF3      0.037700
     56 H32A       -6.7820   -0.8650   -1.6930 h1        1 EF3      0.037700
     57 H33       -10.9880   -0.0430   -1.2250 h1        1 EF3      0.032367
     58 H33A      -11.3010   -1.3150    0.0450 h1        1 EF3      0.032367
     59 H33B      -10.8560    0.3820    0.5430 h1        1 EF3      0.032367
     60 O17        -1.7970    0.3530   -0.1760 os        1 EF3     -0.316900
@<TRIPOS>BOND
     1    1    2 ar  
     2    1    5 1   
     3    1   14 ar  
     4    2    3 1   
     5    2   13 ar  
     6    3    4 1   
     7    3   16 1   
     8    4    5 2   
     9    4   33 1   
    10    6    7 ar  
    11    6   11 ar  
    12    6   21 1   
    13    7    8 ar  
    14    7   60 1   
    15    8    9 ar  
    16    8   34 1   
    17    9   10 ar  
    18    9   35 1   
    19   10   11 ar  
    20   10   12 1   
    21   11   36 1   
    22   12   13 ar  
    23   12   15 ar  
    24   13   37 1   
    25   14   15 ar  
    26   14   25 1   
    27   16   38 1   
    28   16   39 1   
    29   16   40 1   
    30   17   18 1   
    31   17   41 1   
    32   17   42 1   
    33   17   60 1   
    34   18   19 1   
    35   18   43 1   
    36   18   44 1   
    37   19   20 1   
    38   19   45 1   
    39   19   46 1   
    40   20   30 1   
    41   20   31 1   
    42   21   22 1   
    43   21   23 1   
    44   21   24 1   
    45   25   26 2   
    46   25   47 1   
    47   26   48 1   
    48   27   28 1   
    49   27   31 1   
    50   27   49 1   
    51   27   50 1   
    52   28   29 1   
    53   28   32 1   
    54   29   30 1   
    55   29   51 1   
    56   29   52 1   
    57   30   53 1   
    58   30   54 1   
    59   31   55 1   
    60   31   56 1   
    61   32   57 1   
    62   32   58 1   
    63   32   59 1   
@<TRIPOS>SUBSTRUCTURE
     1 EF3         1 TEMP              0 ****  ****    0 ROOT
