@<TRIPOS>MOLECULE
EFA
   33    35     1     0     0
SMALL
bcc


@<TRIPOS>ATOM
      1 N1         -0.0930    0.3250    0.3520 nb        1 EFA     -0.777000
      2 C2          1.2730    0.4590    0.2740 ca        1 EFA      0.829000
      3 N3          2.2030    0.2950    1.2670 nb        1 EFA     -0.741000
      4 C4          1.6460   -0.0490    2.4630 ca        1 EFA      0.450800
      5 C5          0.2190   -0.2230    2.6900 ca        1 EFA     -0.223200
      6 C6         -0.6440   -0.0110    1.5640 ca        1 EFA      0.766200
      7 N6         -2.0020   -0.1180    1.7060 nh        1 EFA     -0.956500
      8 N7         -0.0160   -0.5810    4.0260 nc        1 EFA     -0.545100
      9 C8          1.1970   -0.6270    4.5960 cd        1 EFA      0.425700
     10 N9          2.2500   -0.3030    3.7050 na        1 EFA     -0.297000
     11 C1'         3.6750   -0.3540    3.9380 c3        1 EFA      0.222800
     12 C2'         4.4100    0.9950    3.6340 c3        1 EFA      0.082100
     13 O2'         5.5520    0.7260    2.8520 oh        1 EFA     -0.592800
     14 C3'         4.8730    1.5200    5.0120 c3        1 EFA      0.131100
     15 O3'         6.2580    1.7400    5.1030 oh        1 EFA     -0.572800
     16 C4'         4.3970    0.4610    6.0280 c3        1 EFA      0.057100
     17 O4'         3.9450   -0.6880    5.3010 os        1 EFA     -0.394600
     18 C5'         3.2600    1.0080    6.9060 c3        1 EFA      0.142900
     19 F5'         2.7880    0.0550    7.7840 f         1 EFA     -0.233300
     20 CAA         2.2110    1.1130   -2.0910 c1        1 EFA     -0.090500
     21 CAF         1.7860    0.8160   -1.0140 cg        1 EFA     -0.219000
     22 HN6        -2.3630   -0.4510    2.5660 hn        1 EFA      0.450300
     23 HN6A       -2.5990   -0.0430    0.9200 hn        1 EFA      0.450300
     24 H8          1.4150   -0.8820    5.6450 h5        1 EFA      0.094800
     25 H1'         4.1160   -1.1990    3.3250 h2        1 EFA      0.108700
     26 H2'         3.7440    1.7410    3.1260 h1        1 EFA      0.086700
     27 HO2'        5.2550    0.6610    1.9340 ho        1 EFA      0.436000
     28 H3'         4.4140    2.5250    5.2250 h1        1 EFA      0.092700
     29 HO3'        6.7130    0.9930    4.6910 ho        1 EFA      0.428000
     30 H4'         5.2410    0.0860    6.6680 h1        1 EFA      0.105700
     31 H5'         3.6510    1.8840    7.4940 h1        1 EFA      0.054200
     32 H5'A        2.4070    1.3450    6.2540 h1        1 EFA      0.054200
     33 HAA         2.5870    1.3770   -3.0470 ha        1 EFA      0.171500
@<TRIPOS>BOND
     1    1    2 ar  
     2    1    6 ar  
     3    2    3 ar  
     4    2   21 1   
     5    3    4 ar  
     6    4    5 ar  
     7    4   10 1   
     8    5    6 ar  
     9    5    8 1   
    10    6    7 1   
    11    7   22 1   
    12    7   23 1   
    13    8    9 2   
    14    9   10 1   
    15    9   24 1   
    16   10   11 1   
    17   11   12 1   
    18   11   17 1   
    19   11   25 1   
    20   12   13 1   
    21   12   14 1   
    22   12   26 1   
    23   13   27 1   
    24   14   15 1   
    25   14   16 1   
    26   14   28 1   
    27   15   29 1   
    28   16   17 1   
    29   16   18 1   
    30   16   30 1   
    31   18   19 1   
    32   18   31 1   
    33   18   32 1   
    34   20   21 3   
    35   20   33 1   
@<TRIPOS>SUBSTRUCTURE
     1 EFA         1 TEMP              0 ****  ****    0 ROOT
