@<TRIPOS>MOLECULE
EFA
   34    36     1     0     0
SMALL
bcc


@<TRIPOS>ATOM
      1 N1         -0.1350    0.2270    0.2620 nb        1 EFA     -0.675000
      2 C2          1.2230    0.4660    0.1620 ca        1 EFA      0.837000
      3 N3          2.1570    0.3540    1.1670 nb        1 EFA     -0.607000
      4 C4          1.6540   -0.0310    2.3600 ca        1 EFA      0.456800
      5 C5          0.2180   -0.3120    2.5920 ca        1 EFA     -0.141200
      6 C6         -0.6090   -0.1560    1.4690 ca        1 EFA      0.523200
      7 N6         -2.0510   -0.4290    1.6200 n4        1 EFA     -0.815300
      8 N7          0.0070   -0.6910    3.9200 nc        1 EFA     -0.590100
      9 C8          1.2310   -0.6560    4.4850 cd        1 EFA      0.515700
     10 N9          2.2600   -0.2520    3.6070 na        1 EFA     -0.276000
     11 C1'         3.6970   -0.2830    3.8690 c3        1 EFA      0.209800
     12 C2'         4.4300    1.0770    3.6250 c3        1 EFA      0.090100
     13 O2'         5.5370    0.8840    2.7850 oh        1 EFA     -0.563800
     14 C3'         4.8480    1.5560    5.0370 c3        1 EFA      0.086100
     15 O3'         6.2570    1.5930    5.1430 oh        1 EFA     -0.580800
     16 C4'         4.3520    0.4720    6.0090 c3        1 EFA      0.091100
     17 O4'         3.9090   -0.6500    5.2270 os        1 EFA     -0.389600
     18 C5'         3.2050    0.9910    6.8910 c3        1 EFA      0.140900
     19 F5'         2.4860   -0.0440    7.4510 f         1 EFA     -0.230300
     20 CAA         2.1070    1.2000   -2.1910 c1        1 EFA      0.019500
     21 CAF         1.6970    0.8660   -1.1180 cg        1 EFA     -0.284000
     22 HN6        -2.1670   -1.4130    1.8940 hn        1 EFA      0.477800
     23 HN6A       -2.4200    0.1740    2.3660 hn        1 EFA      0.477800
     24 H8          1.4580   -0.9060    5.5430 h5        1 EFA      0.131800
     25 H1'         4.1480   -1.1110    3.2390 h2        1 EFA      0.126700
     26 H2'         3.7900    1.8290    3.0910 h1        1 EFA      0.111700
     27 HO2'        6.2040    0.3730    3.2710 ho        1 EFA      0.431000
     28 H3'         4.4070    2.5610    5.2690 h1        1 EFA      0.073700
     29 HO3'        6.5660    2.3320    4.5990 ho        1 EFA      0.432000
     30 H4'         5.1880    0.0610    6.6430 h1        1 EFA      0.132700
     31 H5'         2.5000    1.6220    6.2810 h1        1 EFA      0.059700
     32 H5'A        3.6440    1.6220    7.7130 h1        1 EFA      0.059700
     33 HAA         2.4740    1.4980   -3.1450 ha        1 EFA      0.193500
     34 H63        -2.5600   -0.2500    0.7440 hn        1 EFA      0.477800
@<TRIPOS>BOND
     1    1    2 ar  
     2    1    6 ar  
     3    2    3 ar  
     4    2   21 1   
     5    3    4 ar  
     6    4    5 ar  
     7    4   10 1   
     8    5    6 ar  
     9    5    8 1   
    10    6    7 1   
    11    7   22 1   
    12    7   23 1   
    13    7   34 1   
    14    8    9 2   
    15    9   10 1   
    16    9   24 1   
    17   10   11 1   
    18   11   12 1   
    19   11   17 1   
    20   11   25 1   
    21   12   13 1   
    22   12   14 1   
    23   12   26 1   
    24   13   27 1   
    25   14   15 1   
    26   14   16 1   
    27   14   28 1   
    28   15   29 1   
    29   16   17 1   
    30   16   18 1   
    31   16   30 1   
    32   18   19 1   
    33   18   31 1   
    34   18   32 1   
    35   20   21 3   
    36   20   33 1   
@<TRIPOS>SUBSTRUCTURE
     1 EFA         1 TEMP              0 ****  ****    0 ROOT
