@<TRIPOS>MOLECULE
EFA
   33    35     1     0     0
SMALL
bcc


@<TRIPOS>ATOM
      1 N1         -0.0890    0.3460    0.3480 nb        1 EFA     -0.777000
      2 C2          1.2780    0.4640    0.2730 ca        1 EFA      0.829000
      3 N3          2.2040    0.2890    1.2680 nb        1 EFA     -0.741000
      4 C4          1.6400   -0.0460    2.4630 ca        1 EFA      0.450800
      5 C5          0.2110   -0.2030    2.6880 ca        1 EFA     -0.223200
      6 C6         -0.6470    0.0190    1.5590 ca        1 EFA      0.766200
      7 N6         -2.0070   -0.0720    1.6980 nv        1 EFA     -0.956500
      8 N7         -0.0320   -0.5560    4.0240 nc        1 EFA     -0.545100
      9 C8          1.1790   -0.6160    4.5960 cd        1 EFA      0.425700
     10 N9          2.2380   -0.3060    3.7070 na        1 EFA     -0.297000
     11 C1'         3.6630   -0.3740    3.9420 c3        1 EFA      0.222800
     12 C2'         4.4130    0.9660    3.6380 c3        1 EFA      0.082100
     13 O2'         5.5540    0.6820    2.8590 oh        1 EFA     -0.592800
     14 C3'         4.8810    1.4880    5.0170 c3        1 EFA      0.131100
     15 O3'         6.2670    1.6910    5.1110 oh        1 EFA     -0.572800
     16 C4'         4.3890    0.4360    6.0330 c3        1 EFA      0.057100
     17 O4'         3.9250   -0.7090    5.3070 os        1 EFA     -0.394600
     18 C5'         3.2580    0.9970    6.9090 c3        1 EFA      0.142900
     19 F5'         2.7730    0.0510    7.7870 f         1 EFA     -0.233300
     20 CAA         2.2290    1.1030   -2.0910 c1        1 EFA     -0.090500
     21 CAF         1.7990    0.8120   -1.0150 cg        1 EFA     -0.219000
     22 HN6        -2.6010    0.0090    0.9110 hn        1 EFA      0.450300
     23 HN6A       -2.3740   -0.4000    2.5580 hn        1 EFA      0.450300
     24 H8          1.3920   -0.8720    5.6460 h5        1 EFA      0.094800
     25 H1'         4.0940   -1.2250    3.3320 h2        1 EFA      0.108700
     26 H2'         3.7590    1.7200    3.1280 h1        1 EFA      0.086700
     27 HO2'        5.2580    0.6200    1.9410 ho        1 EFA      0.436000
     28 H3'         4.4330    2.4980    5.2280 h1        1 EFA      0.092700
     29 HO3'        6.7150    0.9380    4.7000 ho        1 EFA      0.428000
     30 H4'         5.2280    0.0510    6.6760 h1        1 EFA      0.105700
     31 H5'         3.6580    1.8700    7.4950 h1        1 EFA      0.054200
     32 H5'A        2.4100    1.3440    6.2540 h1        1 EFA      0.054200
     33 HAA         2.6110    1.3610   -3.0470 ha        1 EFA      0.171500
@<TRIPOS>BOND
     1    1    2 ar  
     2    1    6 ar  
     3    2    3 ar  
     4    2   21 1   
     5    3    4 ar  
     6    4    5 ar  
     7    4   10 1   
     8    5    6 ar  
     9    5    8 1   
    10    6    7 1   
    11    7   22 1   
    12    7   23 1   
    13    8    9 2   
    14    9   10 1   
    15    9   24 1   
    16   10   11 1   
    17   11   12 1   
    18   11   17 1   
    19   11   25 1   
    20   12   13 1   
    21   12   14 1   
    22   12   26 1   
    23   13   27 1   
    24   14   15 1   
    25   14   16 1   
    26   14   28 1   
    27   15   29 1   
    28   16   17 1   
    29   16   18 1   
    30   16   30 1   
    31   18   19 1   
    32   18   31 1   
    33   18   32 1   
    34   20   21 3   
    35   20   33 1   
@<TRIPOS>SUBSTRUCTURE
     1 EFA         1 TEMP              0 ****  ****    0 ROOT
