@<TRIPOS>MOLECULE
EFC
   20    19     1     0     0
SMALL
bcc


@<TRIPOS>ATOM
      1 N           1.2640   -1.3830   -1.9700 n3        1 EFC     -0.881800
      2 CA          0.2750   -0.3350   -2.1710 c3        1 EFC      0.010500
      3 CB          0.1030    0.5790   -0.9740 c3        1 EFC      0.036700
      4 SG         -0.8470   -0.0460    0.3860 ss        1 EFC     -0.230100
      5 SD          0.3420   -1.2900    1.5980 ss        1 EFC     -0.167100
      6 C1          1.0310   -0.2290    2.8180 c3        1 EFC     -0.070300
      7 C2         -0.0040    0.2550    3.8220 c3        1 EFC      0.155900
      8 F2          0.5720    0.9940    4.8410 f         1 EFC     -0.261300
      9 C           0.5440    0.5770   -3.4280 c         1 EFC      0.891600
     10 O           1.4370    0.2050   -4.2370 o         1 EFC     -0.832300
     11 OXT        -0.1650    1.6120   -3.5530 o         1 EFC     -0.832300
     12 H           2.1390   -0.9570   -1.7220 hn        1 EFC      0.333800
     13 H2          1.4080   -1.8270   -2.8620 hn        1 EFC      0.333800
     14 HA         -0.7100   -0.8510   -2.3710 h1        1 EFC      0.061700
     15 HB2         1.0820    0.9750   -0.6180 h1        1 EFC      0.091700
     16 HB3        -0.5380    1.4490   -1.3040 h1        1 EFC      0.091700
     17 H11         1.8020   -0.8550    3.3350 h1        1 EFC      0.080700
     18 H12         1.5520    0.6460    2.3630 h1        1 EFC      0.080700
     19 H21        -0.7640    0.9010    3.2980 h1        1 EFC      0.053200
     20 H22        -0.5330   -0.6260    4.2790 h1        1 EFC      0.053200
@<TRIPOS>BOND
     1    1    2 1   
     2    1   12 1   
     3    1   13 1   
     4    2    3 1   
     5    2    9 1   
     6    2   14 1   
     7    3    4 1   
     8    3   15 1   
     9    3   16 1   
    10    4    5 1   
    11    5    6 1   
    12    6    7 1   
    13    6   17 1   
    14    6   18 1   
    15    7    8 1   
    16    7   19 1   
    17    7   20 1   
    18    9   10 1   
    19    9   11 1   
@<TRIPOS>SUBSTRUCTURE
     1 EFC         1 TEMP              0 ****  ****    0 ROOT
