@<TRIPOS>MOLECULE
EFG
   37    35     1     0     0
SMALL
bcc


@<TRIPOS>ATOM
      1 O6          0.0080    0.5830    0.2480 o         1 EFG     -0.448000
      2 C6          1.2160    0.4680   -0.0800 c2        1 EFG      0.382000
      3 N1          2.0640    1.4810    0.4240 n         1 EFG     -0.348000
      4 C2          3.4630    1.4430    0.3420 c2        1 EFG      0.264000
      5 N2          4.1700    2.4030    0.8970 n2        1 EFG     -0.390000
      6 C10         6.2940   -0.4880    0.4570 c1        1 EFG     -0.292000
      7 C9          5.2270   -0.1160    0.0480 c1        1 EFG     -0.021000
      8 N3          4.0290    0.3220   -0.3860 na        1 EFG     -0.209000
      9 C4          3.2190   -0.5240   -1.2490 c2        1 EFG      0.283000
     10 C5          1.8000   -0.5530   -0.9040 c2        1 EFG     -0.322000
     11 N7          0.9890   -1.5300   -1.4180 n2        1 EFG     -0.148000
     12 C8          0.2910   -2.3770   -1.8440 c1        1 EFG     -0.056000
     13 N9          3.6740   -1.1960   -2.2750 n2        1 EFG     -0.325000
     14 C1'         5.0460   -1.3320   -2.6430 c3        1 EFG      0.075000
     15 O4'         5.6410   -0.1030   -3.1430 os        1 EFG     -0.291000
     16 C2'         5.2600   -2.3630   -3.8310 c3        1 EFG     -0.032000
     17 F           4.3350   -3.3760   -3.9240 f         1 EFG     -0.134000
     18 C3'         5.4020   -1.5120   -5.0650 c1        1 EFG      0.032000
     19 O3'         9.1650   -0.7140   -5.0860 oh        1 EFG     -0.459000
     20 C4'         5.7680   -0.1680   -4.5780 c3        1 EFG     -0.172000
     21 C5'         4.9500    0.9400   -5.2000 c2        1 EFG      0.260000
     22 O5'         5.3300    1.5630   -6.1930 o         1 EFG     -0.322000
     23 P           7.4340    2.1260   -7.3790 p3        1 EFG      2.453000
     24 OP1         7.9630    1.1430   -6.4000 o         1 EFG     -1.148333
     25 OP2         7.1520    1.6930   -8.7580 o         1 EFG     -1.148333
     26 H1          1.6450    2.2390    0.9140 hn        1 EFG      0.243000
     27 H9          5.1560    2.3240    0.7830 hn        1 EFG      0.152000
     28 H10         7.2490   -0.8090    0.7700 ha        1 EFG      0.222000
     29 H8          3.2050   -0.9770   -5.4090 ha        1 EFG      0.011000
     30 H1'         3.1060   -1.6350   -5.2630 ha        1 EFG      0.011000
     31 H2'         5.7160   -1.6330   -1.7830 h2        1 EFG      0.095000
     32 H3'         6.2820   -2.8310   -3.6690 h1        1 EFG      0.115000
     33 HO3'        8.7540   -0.7630   -5.9570 ho        1 EFG      0.226000
     34 H4'         9.1070    0.2270   -4.8840 ho        1 EFG      0.226000
     35 H5'         6.8770    0.0090   -4.8270 h1        1 EFG      0.248000
     36 H5''        3.9950    1.1680   -4.6790 h4        1 EFG      0.114000
     37 OP3         7.4320    3.5560   -7.0300 o         1 EFG     -1.148333
@<TRIPOS>BOND
     1    1    2 1   
     2    2    3 1   
     3    2   10 1   
     4    3    4 1   
     5    3   26 1   
     6    4    5 1   
     7    4    8 1   
     8    5   27 1   
     9    6    7 1   
    10    6   28 1   
    11    7    8 1   
    12    8    9 1   
    13    9   10 1   
    14    9   13 1   
    15   10   11 1   
    16   11   12 1   
    17   13   14 1   
    18   14   15 1   
    19   14   16 1   
    20   14   31 1   
    21   15   20 1   
    22   16   17 1   
    23   16   18 1   
    24   16   32 1   
    25   18   20 1   
    26   19   33 1   
    27   19   34 1   
    28   20   21 1   
    29   20   35 1   
    30   21   22 1   
    31   21   36 1   
    32   23   24 1   
    33   23   25 1   
    34   23   37 1   
    35   29   30 1   
@<TRIPOS>SUBSTRUCTURE
     1 EFG         1 TEMP              0 ****  ****    0 ROOT
