@<TRIPOS>MOLECULE
EFG
   37    40     1     0     0
SMALL
bcc


@<TRIPOS>ATOM
      1 O6         -4.6130   -3.1430    0.8260 o         1 EFG     -0.625500
      2 C6         -4.2100   -2.0200    0.4760 c         1 EFG      0.656000
      3 N1         -5.1940   -1.0430    0.2040 n         1 EFG     -0.544400
      4 C2         -4.8810    0.2680   -0.1580 cc        1 EFG      0.535400
      5 N2         -5.7320    1.3180   -0.3930 nd        1 EFG     -0.721000
      6 C10        -4.9030    2.3970   -0.7020 cd        1 EFG      0.302200
      7 C9         -3.5470    2.0390   -0.6670 cc        1 EFG     -0.245600
      8 N3         -3.5160    0.6820   -0.3370 na        1 EFG     -0.105000
      9 C4         -2.5150   -0.2500   -0.1230 cc        1 EFG     -0.087800
     10 C5         -2.8310   -1.5920    0.2960 cd        1 EFG      0.216800
     11 N7         -1.6490   -2.3150    0.4570 nd        1 EFG     -0.617000
     12 C8         -0.6560   -1.4560    0.1440 cc        1 EFG      0.456400
     13 N9         -1.1270   -0.1720   -0.2190 na        1 EFG     -0.191900
     14 C1'        -0.3540    0.9360   -0.7740 c3        1 EFG      0.217800
     15 O4'         0.8030    0.4410   -1.4050 os        1 EFG     -0.423600
     16 C2'         0.1060    2.0300    0.2550 c3        1 EFG      0.111600
     17 F          -0.6420    2.0730    1.4100 f         1 EFG     -0.236300
     18 C3'         1.6120    1.7140    0.4950 c3        1 EFG      0.154100
     19 O3'         2.3040    2.9360    0.4390 oh        1 EFG     -0.672800
     20 C4'         2.0110    0.7940   -0.6710 c3        1 EFG      0.052100
     21 C5'         2.7540   -0.4950   -0.2340 c3        1 EFG      0.233400
     22 O5'         4.1010   -0.3320   -0.3680 os        1 EFG     -0.549200
     23 P           4.9120    0.0010    1.1500 p5        1 EFG      1.333900
     24 OP1         4.1330    1.2530    1.5040 o         1 EFG     -0.927500
     25 OP2         4.5270   -1.2060    1.9520 o         1 EFG     -0.927500
     26 H1         -6.1540   -1.2690    0.3310 hn        1 EFG      0.343500
     27 H9         -5.3270    3.3740   -0.9290 h4        1 EFG      0.033100
     28 H10        -2.6340    2.6160   -0.8080 h4        1 EFG      0.192000
     29 H8          0.4310   -1.6660    0.1590 h5        1 EFG      0.122100
     30 H1'        -0.9950    1.3950   -1.5860 h2        1 EFG      0.055700
     31 H2'         0.0130    3.0280   -0.2610 h1        1 EFG      0.062700
     32 H3'         1.7780    1.2180    1.4920 h1        1 EFG      0.123700
     33 HO3'        3.2030    2.7440    0.8040 ho        1 EFG      0.512000
     34 H4'         2.6430    1.3510   -1.4140 h1        1 EFG      0.088700
     35 H5'         2.4760   -0.7520    0.8290 h1        1 EFG     -0.002300
     36 H5''        2.3960   -1.3210   -0.9200 h1        1 EFG     -0.002300
     37 OP3         6.3420    0.1820    0.7540 o         1 EFG     -0.927500
@<TRIPOS>BOND
     1    1    2 2   
     2    2    3 1   
     3    2   10 1   
     4    3    4 1   
     5    3   26 1   
     6    4    5 2   
     7    4    8 1   
     8    5    6 1   
     9    6    7 2   
    10    6   27 1   
    11    7    8 1   
    12    7   28 1   
    13    8    9 1   
    14    9   10 2   
    15    9   13 1   
    16   10   11 1   
    17   11   12 2   
    18   12   13 1   
    19   12   29 1   
    20   13   14 1   
    21   14   15 1   
    22   14   16 1   
    23   14   30 1   
    24   15   20 1   
    25   16   17 1   
    26   16   18 1   
    27   16   31 1   
    28   18   19 1   
    29   18   20 1   
    30   18   32 1   
    31   19   33 1   
    32   20   21 1   
    33   20   34 1   
    34   21   22 1   
    35   21   35 1   
    36   21   36 1   
    37   22   23 1   
    38   23   24 1   
    39   23   25 1   
    40   23   37 1   
@<TRIPOS>SUBSTRUCTURE
     1 EFG         1 TEMP              0 ****  ****    0 ROOT
