@<TRIPOS>MOLECULE
EFG
   37    35     1     0     0
SMALL
bcc


@<TRIPOS>ATOM
      1 O6         -0.3590    0.3580   -0.0370 o         1 EFG     -0.444000
      2 C6          0.8970    0.3730   -0.0650 c2        1 EFG      0.381000
      3 N1          1.4980    1.1300    0.9700 n         1 EFG     -0.347000
      4 C2          2.8680    1.1010    1.2610 c2        1 EFG      0.262000
      5 N2          3.3290    1.7690    2.2960 n2        1 EFG     -0.391000
      6 C10         5.6310   -0.9230    1.4420 c1        1 EFG     -0.297000
      7 C9          4.7140   -0.3460    0.9230 c1        1 EFG     -0.028000
      8 N3          3.7020    0.3360    0.3490 na        1 EFG     -0.214000
      9 C4          3.2060   -0.1040   -0.9550 c2        1 EFG      0.278000
     10 C5          1.7560   -0.2650   -1.0210 c2        1 EFG     -0.317000
     11 N7          1.1900   -0.9740   -2.0470 n2        1 EFG     -0.153000
     12 C8          0.7000   -1.5950   -2.9190 c1        1 EFG     -0.046000
     13 N9          3.9590   -0.3190   -2.0000 n2        1 EFG     -0.312000
     14 C1'         5.3870   -0.2320   -2.0360 c3        1 EFG      0.074000
     15 O4'         5.8040    0.7890   -2.9780 os        1 EFG     -0.278000
     16 C2'         6.0850   -1.5480   -2.5900 c3        1 EFG     -0.045000
     17 F           5.4460   -2.7270   -2.2850 f         1 EFG     -0.139000
     18 C3'         6.2830   -1.2900   -4.0630 c1        1 EFG      0.034000
     19 O3'         8.5980   -1.0790  -10.5430 oh        1 EFG     -0.460000
     20 C4'         6.1910    0.1730   -4.2250 c3        1 EFG     -0.177000
     21 C5'         5.2310    0.5940   -5.3150 c2        1 EFG      0.261000
     22 O5'         5.6090    0.8380   -6.4630 o         1 EFG     -0.325000
     23 P           7.7140    1.5630   -7.5860 p3        1 EFG      2.458000
     24 OP1         8.1930    1.3250   -6.2080 o         1 EFG     -1.149000
     25 OP2         7.9390    0.5350   -8.6250 o         1 EFG     -1.149000
     26 H1          0.9010    1.6440    1.5780 hn        1 EFG      0.243000
     27 H9          4.3130    1.7090    2.4320 hn        1 EFG      0.146000
     28 H10         6.4430   -1.4380    1.8770 ha        1 EFG      0.222000
     29 H8          4.1630   -1.6880   -4.8130 ha        1 EFG      0.011500
     30 H1'         4.2290   -2.2460   -4.4280 ha        1 EFG      0.011500
     31 H2'         5.8990    0.0760   -1.0790 h2        1 EFG      0.095000
     32 H3'         7.1250   -1.5810   -2.1400 h1        1 EFG      0.108000
     33 HO3'        8.6290   -1.2260   -9.5900 ho        1 EFG      0.225000
     34 H4'         8.1970   -0.2050  -10.5950 ho        1 EFG      0.225000
     35 H5'         7.2320    0.5870   -4.4870 h1        1 EFG      0.262000
     36 H5''        4.1720    0.6950   -4.9930 h4        1 EFG      0.123000
     37 OP3         7.2390    2.8960   -7.9910 o         1 EFG     -1.149000
@<TRIPOS>BOND
     1    1    2 1   
     2    2    3 1   
     3    2   10 1   
     4    3    4 1   
     5    3   26 1   
     6    4    5 1   
     7    4    8 1   
     8    5   27 1   
     9    6    7 1   
    10    6   28 1   
    11    7    8 1   
    12    8    9 1   
    13    9   10 1   
    14    9   13 1   
    15   10   11 1   
    16   11   12 1   
    17   13   14 1   
    18   14   15 1   
    19   14   16 1   
    20   14   31 1   
    21   15   20 1   
    22   16   17 1   
    23   16   18 1   
    24   16   32 1   
    25   18   20 1   
    26   19   33 1   
    27   19   34 1   
    28   20   21 1   
    29   20   35 1   
    30   21   22 1   
    31   21   36 1   
    32   23   24 1   
    33   23   25 1   
    34   23   37 1   
    35   29   30 1   
@<TRIPOS>SUBSTRUCTURE
     1 EFG         1 TEMP              0 ****  ****    0 ROOT
