@<TRIPOS>MOLECULE
EFG
   37    35     1     0     0
SMALL
bcc


@<TRIPOS>ATOM
      1 O6         -0.1000    0.7270    0.0990 o         1 EFG     -0.445000
      2 C6          1.1350    0.5660   -0.0680 c2        1 EFG      0.381000
      3 N1          1.9440    1.1300    0.9490 ns        1 EFG     -0.348000
      4 C2          3.3150    0.8780    1.0820 c2        1 EFG      0.262000
      5 N2          3.9710    1.3730    2.1090 n2        1 EFG     -0.392000
      6 C10         5.7480   -1.5230    0.7950 c1        1 EFG     -0.294000
      7 C9          4.8800   -0.7760    0.4280 c1        1 EFG     -0.030000
      8 N3          3.9290    0.0910    0.0260 na        1 EFG     -0.214000
      9 C4          3.2450   -0.1510   -1.2440 c2        1 EFG      0.279000
     10 C5          1.7880   -0.0970   -1.1600 c2        1 EFG     -0.318000
     11 N7          1.0230   -0.6210   -2.1680 n2        1 EFG     -0.153000
     12 C8          0.3600   -1.0820   -3.0240 c1        1 EFG     -0.048000
     13 N9          3.8500   -0.3740   -2.3800 n2        1 EFG     -0.314000
     14 C1'         5.2630   -0.4910   -2.5710 c3        1 EFG      0.075000
     15 O4'         5.7380    0.5560   -3.4560 os        1 EFG     -0.277000
     16 C2'         5.6840   -1.8250   -3.3260 c3        1 EFG     -0.046000
     17 F           4.9110   -2.9280   -3.0490 f         1 EFG     -0.140000
     18 C3'         5.7530   -1.4390   -4.7810 c1        1 EFG      0.036000
     19 O3'         9.3460   -0.0600   -5.2240 oh        1 EFG     -0.459000
     20 C4'         5.8880    0.0320   -4.7930 c3        1 EFG     -0.171000
     21 C5'         4.8960    0.7160   -5.7080 c2        1 EFG      0.259000
     22 O5'         5.1920    1.0660   -6.8520 o         1 EFG     -0.325000
     23 P           7.1960    1.6230   -8.2030 p3        1 EFG      2.454000
     24 OP1         7.8660    1.0780   -6.9950 o         1 EFG     -1.149000
     25 OP2         7.0340    0.7650   -9.3880 o         1 EFG     -1.149000
     26 H1          1.4940    1.6650    1.6570 hn        1 EFG      0.242000
     27 H9          4.9440    1.1620    2.1290 hn        1 EFG      0.146000
     28 H10         6.5150   -2.1840    1.0920 ha        1 EFG      0.222000
     29 H8          3.5340   -1.4400   -5.3080 ha        1 EFG      0.012000
     30 H1'         3.5410   -2.0220   -4.9530 ha        1 EFG      0.012000
     31 H2'         5.9110   -0.3700   -1.6560 h2        1 EFG      0.098000
     32 H3'         6.7530   -2.0510   -3.0180 h1        1 EFG      0.117000
     33 HO3'        8.9650   -0.4410   -6.0240 ho        1 EFG      0.225500
     34 H4'         9.1180    0.8730   -5.3110 ho        1 EFG      0.225500
     35 H5'         6.9530    0.2960   -5.1320 h1        1 EFG      0.248000
     36 H5''        3.8970    0.9020   -5.2600 h4        1 EFG      0.124000
     37 OP3         6.9340    3.0690   -8.2850 o         1 EFG     -1.149000
@<TRIPOS>BOND
     1    1    2 1   
     2    2    3 1   
     3    2   10 1   
     4    3    4 1   
     5    3   26 1   
     6    4    5 1   
     7    4    8 1   
     8    5   27 1   
     9    6    7 1   
    10    6   28 1   
    11    7    8 1   
    12    8    9 1   
    13    9   10 1   
    14    9   13 1   
    15   10   11 1   
    16   11   12 1   
    17   13   14 1   
    18   14   15 1   
    19   14   16 1   
    20   14   31 1   
    21   15   20 1   
    22   16   17 1   
    23   16   18 1   
    24   16   32 1   
    25   18   20 1   
    26   19   33 1   
    27   19   34 1   
    28   20   21 1   
    29   20   35 1   
    30   21   22 1   
    31   21   36 1   
    32   23   24 1   
    33   23   25 1   
    34   23   37 1   
    35   29   30 1   
@<TRIPOS>SUBSTRUCTURE
     1 EFG         1 TEMP              0 ****  ****    0 ROOT
