@<TRIPOS>MOLECULE
EFG
   37    33     1     0     0
SMALL
bcc


@<TRIPOS>ATOM
      1 O6         -4.2510   -0.0170    3.1400 o         1 EFG     -0.374000
      2 C6         -3.0000    0.1540    3.0360 c1        1 EFG      0.405000
      3 N1         -2.3090    0.8890    4.0160 n3        1 EFG     -0.307000
      4 C2         -0.8870    0.9820    3.9610 c2        1 EFG      0.082000
      5 N2          0.0230    1.5960    4.7740 n2        1 EFG     -0.141000
      6 C10         1.2760    1.3490    4.2690 c1        1 EFG     -0.147000
      7 C9          1.1340    0.5650    3.1190 c1        1 EFG     -0.147000
      8 N3         -0.1820    0.3410    2.9280 n2        1 EFG     -0.141000
      9 C4         -0.8930   -0.4140    1.9230 c1        1 EFG     -0.072000
     10 C5         -2.2630   -0.5090    1.9720 c1        1 EFG     -0.072000
     11 N7         -2.6730   -1.2690    0.9130 n2        1 EFG     -0.112500
     12 C8         -1.5690   -1.6450    0.2090 c1        1 EFG     -0.078000
     13 N9         -0.4630   -1.1160    0.8340 n2        1 EFG     -0.112500
     14 C1'         0.6870   -0.8380    0.2190 c2        1 EFG      0.131000
     15 O4'         0.5220    0.3470   -0.6840 os        1 EFG     -0.304000
     16 C2'         1.1160   -2.0480   -0.7250 c3        1 EFG     -0.102000
     17 F           0.3160   -3.1900   -0.4580 f         1 EFG     -0.197000
     18 C3'         0.9160   -1.6510   -1.8620 c3        1 EFG      0.206000
     19 O3'         1.9520   -2.2150   -2.7770 oh        1 EFG     -0.685000
     20 C4'         1.0470   -0.0200   -1.8080 c3        1 EFG     -0.064000
     21 C5'         0.2900    0.6100   -2.9690 c3        1 EFG      0.028000
     22 O5'         1.1700    1.4420   -3.7060 os        1 EFG     -0.742000
     23 P           0.5810    2.7270   -4.4180 p3        1 EFG      2.532000
     24 OP1        -0.8940    2.6770   -4.3740 o         1 EFG     -0.984500
     25 OP2         1.0510    2.7660   -5.8820 os        1 EFG     -1.173000
     26 H1         -2.7500    1.2020    4.7350 hn        1 EFG      0.253000
     27 H9          2.1210    1.7310    4.6080 DU        1 EFG      0.211667
     28 H10         1.9080    0.2160    2.5150 DU        1 EFG      0.211667
     29 H8         -1.5670   -2.1430   -0.5700 DU        1 EFG      0.211667
     30 H1'         1.3640   -0.6720    0.8560 h4        1 EFG      0.099000
     31 H2'         2.0500   -2.2500   -0.6010 h1        1 EFG      0.087000
     32 H3'        -0.0230   -1.9280   -2.1760 h1        1 EFG      0.010000
     33 HO3'        1.5940   -2.8850   -3.2640 ho        1 EFG      0.216000
     34 H4'         2.0060    0.2450   -1.8400 h1        1 EFG      0.117000
     35 H5'        -0.0720   -0.1200   -3.5760 h1        1 EFG      0.070000
     36 H5''       -0.4040    1.1100   -2.6440 h1        1 EFG      0.070000
     37 OP3         1.0750    3.9830   -3.6940 o         1 EFG     -0.984500
@<TRIPOS>BOND
     1    1    2 1   
     2    2    3 1   
     3    3    4 1   
     4    3   26 1   
     5    4    5 1   
     6    4    8 1   
     7    5    6 1   
     8    6    7 1   
     9    7    8 1   
    10    9   10 1   
    11    9   13 1   
    12   10   11 1   
    13   11   12 1   
    14   12   13 1   
    15   14   15 1   
    16   14   16 1   
    17   14   30 1   
    18   15   20 1   
    19   16   17 1   
    20   16   18 1   
    21   16   31 1   
    22   18   19 1   
    23   18   20 1   
    24   18   32 1   
    25   19   33 1   
    26   20   21 1   
    27   20   34 1   
    28   21   22 1   
    29   21   35 1   
    30   21   36 1   
    31   22   23 1   
    32   23   24 1   
    33   23   37 1   
@<TRIPOS>SUBSTRUCTURE
     1 EFG         1 TEMP              0 ****  ****    0 ROOT
