@<TRIPOS>MOLECULE
EFP
   48    50     1     0     0
SMALL
bcc


@<TRIPOS>ATOM
      1 C1         -0.1530    0.2230    0.1550 cy        1 EFP      0.038000
      2 N3         -1.1810   -0.1340    1.0910 na        1 EFP     -0.200900
      3 C4         -0.8600   -0.8380    2.2740 cc        1 EFP     -0.326600
      4 C6         -1.9180   -1.7370    2.5190 cd        1 EFP      0.433200
      5 N7         -1.9440   -2.6870    3.5430 n         1 EFP     -0.503400
      6 C9         -0.7980   -3.3500    3.9290 c         1 EFP      0.701100
      7 C10        -0.9010   -4.4270    4.9930 c3        1 EFP     -0.085100
      8 C13        -2.0760   -4.3020    5.8900 ca        1 EFP     -0.173300
      9 C14        -1.9650   -3.6080    7.1040 ca        1 EFP     -0.085500
     10 C16        -3.0490   -3.5070    7.9640 ca        1 EFP     -0.177000
     11 C18        -4.2710   -4.1150    7.6100 ca        1 EFP      0.153100
     12 O19        -5.2830   -3.9540    8.5260 os        1 EFP     -0.315900
     13 C20        -6.5220   -4.5930    8.2270 c3        1 EFP      0.108700
     14 C24        -4.3930   -4.8160    6.4020 ca        1 EFP     -0.177000
     15 C26        -3.2920   -4.9050    5.5520 ca        1 EFP     -0.085500
     16 O28         0.3160   -3.0820    3.4020 o         1 EFP     -0.736100
     17 N29        -2.9210   -1.5810    1.5190 nd        1 EFP     -0.651000
     18 C30        -2.4360   -0.6600    0.6760 cc        1 EFP      0.443400
     19 C32         0.4580   -0.9830   -0.6480 cy        1 EFP     -0.113400
     20 C35         1.7660   -0.8710    0.1860 cy        1 EFP      0.091500
     21 N37         1.9360   -1.9740    1.1730 n4        1 EFP     -0.680800
     22 C39         3.2600   -1.9650    1.9080 c         1 EFP      0.558100
     23 C40         3.4520   -3.0940    2.8620 c3        1 EFP     -0.197100
     24 O44         4.0330   -1.0550    1.6530 o         1 EFP     -0.418100
     25 C45         1.2590    0.4790    0.7750 cy        1 EFP     -0.113400
     26 H1         -0.5240    1.0550   -0.4960 h1        1 EFP      0.114700
     27 H4         -0.0220   -0.5820    2.9210 h4        1 EFP      0.187000
     28 HN7        -2.8300   -2.9560    3.9200 hn        1 EFP      0.365500
     29 H10         0.0520   -4.3910    5.5900 hc        1 EFP      0.090200
     30 H10A       -0.9250   -5.4130    4.4510 hc        1 EFP      0.090200
     31 H14        -1.0070   -3.1430    7.3840 ha        1 EFP      0.135500
     32 H16        -2.9720   -2.9680    8.9200 ha        1 EFP      0.157000
     33 H20        -7.1600   -4.3390    9.1120 h1        1 EFP      0.053700
     34 H20A       -6.9620   -4.1760    7.2890 h1        1 EFP      0.053700
     35 H20B       -6.3840   -5.6980    8.1430 h1        1 EFP      0.053700
     36 H24        -5.3390   -5.2990    6.1210 ha        1 EFP      0.157000
     37 H26        -3.3850   -5.4690    4.6110 ha        1 EFP      0.135500
     38 H30        -2.9610   -0.2820   -0.2120 h5        1 EFP      0.084100
     39 H32         0.6320   -0.7340   -1.7190 hc        1 EFP      0.098450
     40 H32A       -0.0970   -1.9420   -0.5760 hc        1 EFP      0.098450
     41 H35         2.7090   -0.7820   -0.4140 hx        1 EFP      0.127700
     42 HN37        1.8500   -2.8710    0.6810 hn        1 EFP      0.479300
     43 H40         3.6640   -4.0370    2.2960 hc        1 EFP      0.119033
     44 H40A        4.3330   -2.8600    3.5160 hc        1 EFP      0.119033
     45 H40B        2.5470   -3.2520    3.5070 hc        1 EFP      0.119033
     46 H45         1.7700    1.3450    0.2940 hc        1 EFP      0.098450
     47 H45A        1.3140    0.5980    1.8770 hc        1 EFP      0.098450
     48 H372        1.1690   -1.9420    1.8790 hn        1 EFP      0.479300
@<TRIPOS>BOND
     1    1    2 1   
     2    1   19 1   
     3    1   25 1   
     4    1   26 1   
     5    2    3 1   
     6    2   18 1   
     7    3    4 2   
     8    3   27 1   
     9    4    5 1   
    10    4   17 1   
    11    5    6 1   
    12    5   28 1   
    13    6    7 1   
    14    6   16 2   
    15    7    8 1   
    16    7   29 1   
    17    7   30 1   
    18    8    9 ar  
    19    8   15 ar  
    20    9   10 ar  
    21    9   31 1   
    22   10   11 ar  
    23   10   32 1   
    24   11   12 1   
    25   11   14 ar  
    26   12   13 1   
    27   13   33 1   
    28   13   34 1   
    29   13   35 1   
    30   14   15 ar  
    31   14   36 1   
    32   15   37 1   
    33   17   18 2   
    34   18   38 1   
    35   19   20 1   
    36   19   39 1   
    37   19   40 1   
    38   20   21 1   
    39   20   25 1   
    40   20   41 1   
    41   21   22 1   
    42   21   42 1   
    43   21   48 1   
    44   22   23 1   
    45   22   24 2   
    46   23   43 1   
    47   23   44 1   
    48   23   45 1   
    49   25   46 1   
    50   25   47 1   
@<TRIPOS>SUBSTRUCTURE
     1 EFP         1 TEMP              0 ****  ****    0 ROOT
