@<TRIPOS>MOLECULE
EFP
   49    51     1     0     0
SMALL
bcc


@<TRIPOS>ATOM
      1 C1          0.6080   -0.0680    1.7780 cy        1 EFP      0.031000
      2 N3         -0.2180   -1.1520    2.2180 na        1 EFP     -0.200900
      3 C4         -0.3660   -1.5810    3.5340 cc        1 EFP     -0.154600
      4 C6         -1.3950   -2.5540    3.5010 cd        1 EFP      0.329200
      5 N7         -1.9080   -3.3230    4.6110 n4        1 EFP     -0.627500
      6 C9         -1.4230   -4.7820    4.5710 c         1 EFP      0.569100
      7 C10        -2.5070   -5.8230    4.6280 c3        1 EFP     -0.078100
      8 C13        -3.6980   -5.4060    5.4040 ca        1 EFP     -0.244300
      9 C14        -3.7230   -5.5770    6.7990 ca        1 EFP     -0.081000
     10 C16        -4.8540   -5.2570    7.5300 ca        1 EFP     -0.180000
     11 C18        -6.0000   -4.7710    6.8590 ca        1 EFP      0.182100
     12 O19        -7.0610   -4.4790    7.6700 os        1 EFP     -0.301900
     13 C20        -8.2880   -4.1200    7.0320 c3        1 EFP      0.104700
     14 C24        -5.9900   -4.6100    5.4640 ca        1 EFP     -0.180000
     15 C26        -4.8430   -4.9350    4.7480 ca        1 EFP     -0.081000
     16 O28        -0.2170   -4.9310    4.5010 o         1 EFP     -0.421100
     17 N29        -1.8780   -2.7170    2.1810 nd        1 EFP     -0.613000
     18 C30        -1.1650   -1.8560    1.4400 cc        1 EFP      0.447400
     19 C32         1.1570   -0.1290    0.3160 cy        1 EFP     -0.106900
     20 C35         2.6040    0.0710    0.8540 cy        1 EFP      0.087500
     21 N37         3.6010   -0.9510    0.4470 n4        1 EFP     -0.685800
     22 C39         4.9370   -0.7620    1.1780 c         1 EFP      0.565100
     23 C40         5.9580    0.0400    0.4540 c3        1 EFP     -0.189100
     24 O44         4.9990   -1.3170    2.2600 o         1 EFP     -0.391100
     25 C45         2.0740   -0.0090    2.3160 cy        1 EFP     -0.106900
     26 H1          0.0600    0.8990    1.9710 h1        1 EFP      0.119700
     27 H4          0.2310   -1.1930    4.3620 h4        1 EFP      0.212000
     28 HN7        -2.9440   -3.3200    4.5860 hn        1 EFP      0.478300
     29 H10        -2.0410   -6.7480    5.0780 hc        1 EFP      0.129200
     30 H10A       -2.7820   -6.0660    3.5600 hc        1 EFP      0.129200
     31 H14        -2.8430   -5.9910    7.3180 ha        1 EFP      0.143500
     32 H16        -4.8880   -5.3940    8.6230 ha        1 EFP      0.171500
     33 H20        -8.9940   -4.0030    7.8950 h1        1 EFP      0.063367
     34 H20A       -8.6280   -4.9350    6.3480 h1        1 EFP      0.063367
     35 H20B       -8.1710   -3.1570    6.4810 h1        1 EFP      0.063367
     36 H24        -6.8850   -4.2540    4.9330 ha        1 EFP      0.171500
     37 H26        -4.8530   -4.8440    3.6490 ha        1 EFP      0.143500
     38 H30        -1.2960   -1.6960    0.3590 h5        1 EFP      0.099100
     39 H32         0.8070    0.7210   -0.3160 hc        1 EFP      0.107450
     40 H32A        0.9760   -1.0880   -0.2170 hc        1 EFP      0.107450
     41 H35         3.0280    1.0810    0.5990 hx        1 EFP      0.130700
     42 HN37        3.7520   -0.8840   -0.5660 hn        1 EFP      0.461800
     43 H40         6.7900    0.2870    1.1700 hc        1 EFP      0.125700
     44 H40A        6.3910   -0.5600   -0.3900 hc        1 EFP      0.125700
     45 H40B        5.5340    0.9940    0.0500 hc        1 EFP      0.125700
     46 H45         2.4090   -0.9010    2.8900 hc        1 EFP      0.107450
     47 H45A        2.2860    0.9140    2.9030 hc        1 EFP      0.107450
     48 H72        -1.5960   -2.8840    5.4850 hn        1 EFP      0.478300
     49 H372        3.2340   -1.8870    0.6630 hn        1 EFP      0.461800
@<TRIPOS>BOND
     1    1    2 1   
     2    1   19 1   
     3    1   25 1   
     4    1   26 1   
     5    2    3 1   
     6    2   18 1   
     7    3    4 2   
     8    3   27 1   
     9    4    5 1   
    10    4   17 1   
    11    5    6 1   
    12    5   28 1   
    13    5   48 1   
    14    6    7 1   
    15    6   16 2   
    16    7    8 1   
    17    7   29 1   
    18    7   30 1   
    19    8    9 ar  
    20    8   15 ar  
    21    9   10 ar  
    22    9   31 1   
    23   10   11 ar  
    24   10   32 1   
    25   11   12 1   
    26   11   14 ar  
    27   12   13 1   
    28   13   33 1   
    29   13   34 1   
    30   13   35 1   
    31   14   15 ar  
    32   14   36 1   
    33   15   37 1   
    34   17   18 2   
    35   18   38 1   
    36   19   20 1   
    37   19   39 1   
    38   19   40 1   
    39   20   21 1   
    40   20   25 1   
    41   20   41 1   
    42   21   22 1   
    43   21   42 1   
    44   21   49 1   
    45   22   23 1   
    46   22   24 2   
    47   23   43 1   
    48   23   44 1   
    49   23   45 1   
    50   25   46 1   
    51   25   47 1   
@<TRIPOS>SUBSTRUCTURE
     1 EFP         1 TEMP              0 ****  ****    0 ROOT
