@<TRIPOS>MOLECULE
EFP
   47    49     1     0     0
SMALL
bcc


@<TRIPOS>ATOM
      1 C1          3.8340    0.2740   -1.1050 cy        1 EFP      0.034000
      2 N3          2.5600   -0.3670   -1.1090 na        1 EFP     -0.194900
      3 C4          1.5240   -0.1540   -0.1950 cc        1 EFP     -0.255600
      4 C6          0.4610   -0.9980   -0.6030 cd        1 EFP      0.400200
      5 N7         -0.7850   -1.1460    0.0120 n         1 EFP     -0.514400
      6 C9         -1.2080   -0.3790    1.0820 c         1 EFP      0.666100
      7 C10        -2.6040   -0.6570    1.6240 c3        1 EFP     -0.101100
      8 C13        -3.6290   -0.8770    0.5730 ca        1 EFP     -0.137300
      9 C14        -4.3390    0.2110    0.0430 ca        1 EFP     -0.090500
     10 C16        -5.3130    0.0180   -0.9270 ca        1 EFP     -0.177000
     11 C18        -5.5870   -1.2870   -1.3780 ca        1 EFP      0.133100
     12 O19        -6.5730   -1.3730   -2.3400 os        1 EFP     -0.324900
     13 C20        -6.8540   -2.6770   -2.8380 c3        1 EFP      0.112700
     14 C24        -4.8890   -2.3830   -0.8560 ca        1 EFP     -0.177000
     15 C26        -3.9150   -2.1670    0.1180 ca        1 EFP     -0.090500
     16 O28        -0.4770    0.4700    1.6300 o         1 EFP     -0.618100
     17 N29         0.8460   -1.7230   -1.7630 nd        1 EFP     -0.690000
     18 C30         2.1020   -1.3190   -2.0310 cc        1 EFP      0.409400
     19 C32         4.6350    0.2540    0.2340 cy        1 EFP     -0.121400
     20 C35         4.6970    1.8150    0.2300 cy        1 EFP      0.093700
     21 N37         4.1430    2.4790    1.3620 n         1 EFP     -0.568900
     22 C39         4.8350    3.4290    2.0930 c         1 EFP      0.663100
     23 C40         4.1170    4.0490    3.2660 c3        1 EFP     -0.175100
     24 O44         6.0010    3.7530    1.7920 o         1 EFP     -0.608100
     25 C45         3.8430    1.8350   -1.0790 cy        1 EFP     -0.121400
     26 H1          4.4340   -0.1360   -1.9610 h1        1 EFP      0.074700
     27 H4          1.5890    0.5420    0.6400 h4        1 EFP      0.203000
     28 HN7        -1.4420   -1.7460   -0.4380 hn        1 EFP      0.338500
     29 H10        -2.5300   -1.5560    2.2950 hc        1 EFP      0.082700
     30 H10A       -2.8860    0.2230    2.2640 hc        1 EFP      0.082700
     31 H14        -4.1210    1.2300    0.4000 ha        1 EFP      0.138000
     32 H16        -5.8730    0.8650   -1.3490 ha        1 EFP      0.147000
     33 H20        -5.9480   -3.1210   -3.3170 h1        1 EFP      0.046367
     34 H20A       -7.2300   -3.3380   -2.0200 h1        1 EFP      0.046367
     35 H20B       -7.6550   -2.4960   -3.5990 h1        1 EFP      0.046367
     36 H24        -5.0970   -3.4050   -1.2000 ha        1 EFP      0.147000
     37 H26        -3.3700   -3.0290    0.5340 ha        1 EFP      0.138000
     38 H30         2.7120   -1.6780   -2.8660 h5        1 EFP      0.061100
     39 H32         4.0890   -0.1920    1.0930 hc        1 EFP      0.070450
     40 H32A        5.6320   -0.2230    0.1360 hc        1 EFP      0.070450
     41 H35         5.7410    2.1930    0.0560 h1        1 EFP      0.102700
     42 HN37        3.2150    2.2440    1.6250 hn        1 EFP      0.314500
     43 H40         3.8370    3.2670    4.0120 hc        1 EFP      0.068033
     44 H40A        4.7980    4.7900    3.7520 hc        1 EFP      0.068033
     45 H40B        3.1920    4.5750    2.9250 hc        1 EFP      0.068033
     46 H45         4.3790    2.2800   -1.9430 hc        1 EFP      0.070450
     47 H45A        2.8400    2.3020   -0.9780 hc        1 EFP      0.070450
@<TRIPOS>BOND
     1    1    2 1   
     2    1   19 1   
     3    1   25 1   
     4    1   26 1   
     5    2    3 1   
     6    2   18 1   
     7    3    4 2   
     8    3   27 1   
     9    4    5 1   
    10    4   17 1   
    11    5    6 1   
    12    5   28 1   
    13    6    7 1   
    14    6   16 2   
    15    7    8 1   
    16    7   29 1   
    17    7   30 1   
    18    8    9 ar  
    19    8   15 ar  
    20    9   10 ar  
    21    9   31 1   
    22   10   11 ar  
    23   10   32 1   
    24   11   12 1   
    25   11   14 ar  
    26   12   13 1   
    27   13   33 1   
    28   13   34 1   
    29   13   35 1   
    30   14   15 ar  
    31   14   36 1   
    32   15   37 1   
    33   17   18 2   
    34   18   38 1   
    35   19   20 1   
    36   19   39 1   
    37   19   40 1   
    38   20   21 1   
    39   20   25 1   
    40   20   41 1   
    41   21   22 1   
    42   21   42 1   
    43   22   23 1   
    44   22   24 2   
    45   23   43 1   
    46   23   44 1   
    47   23   45 1   
    48   25   46 1   
    49   25   47 1   
@<TRIPOS>SUBSTRUCTURE
     1 EFP         1 TEMP              0 ****  ****    0 ROOT
