@<TRIPOS>MOLECULE
EFP
   47    44     1     0     0
SMALL
bcc


@<TRIPOS>ATOM
      1 C1          1.3430    3.2080    1.9450 cy        1 EFP      0.016000
      2 N3          0.6840    1.9460    1.3270 n3        1 EFP     -0.152000
      3 C4          0.1010    0.9320    2.0390 c1        1 EFP     -0.162000
      4 C6         -0.4550    0.0190    1.1180 c1        1 EFP     -0.009000
      5 N7         -1.2320   -1.2010    1.4640 n2        1 EFP     -0.282000
      6 C9         -1.8360   -2.0370    0.3950 c2        1 EFP      0.308000
      7 C10        -2.6120   -3.3400    0.7740 c3        1 EFP     -0.138000
      8 C13        -2.3510   -4.4130   -0.2730 c2        1 EFP     -0.128000
      9 C14        -1.1980   -5.1390   -0.2460 c2        1 EFP     -0.097000
     10 C16        -0.9520   -6.0920   -1.2310 c1        1 EFP     -0.201000
     11 C18        -1.8960   -6.3000   -2.2500 c1        1 EFP      0.087000
     12 O19        -1.6460   -7.2420   -3.2690 os        1 EFP     -0.208000
     13 C20        -0.8260   -6.7710   -4.2820 c3        1 EFP     -0.077000
     14 C24        -3.0680   -5.5550   -2.2650 c1        1 EFP     -0.153000
     15 C26        -3.2970   -4.6240   -1.2950 c1        1 EFP     -0.084000
     16 O28        -1.7010   -1.7350   -0.7370 o         1 EFP     -0.372000
     17 N29        -0.2060    0.4790   -0.1340 n2        1 EFP     -0.164000
     18 C30         0.5040    1.6830   -0.0200 c1        1 EFP     -0.081000
     19 C32         0.7750    4.4820    1.4240 cy        1 EFP     -0.201000
     20 C35         2.0820    4.8730    0.9480 cy        1 EFP      0.014000
     21 N37         2.0830    4.8750    0.9500 n         1 EFP     -0.379000
     22 C39         2.2110    6.6070    0.1720 c2        1 EFP      0.306000
     23 C40         3.1820    7.9780    1.0380 c3        1 EFP     -0.243000
     24 O44         1.8190    6.7840   -0.9710 o         1 EFP     -0.363000
     25 C45         2.6130    3.5220    1.3660 cy        1 EFP     -0.201000
     26 H1          1.3760    3.1890    2.9140 h1        1 EFP      0.119000
     27 H4          0.1430    0.8170    2.9510 DU        1 EFP      0.204000
     28 HN7        -1.3890   -1.3860    2.2870 hn        1 EFP      0.251000
     29 H10        -2.3300   -3.6340    1.6000 hc        1 EFP      0.122000
     30 H10A       -3.5430   -3.1580    0.8050 hc        1 EFP      0.122000
     31 H14        -0.5240   -4.9850    0.4790 ha        1 EFP      0.134000
     32 H16        -0.1400   -6.6060   -1.2110 ha        1 EFP      0.141000
     33 H20        -0.7280   -7.4850   -4.9960 h1        1 EFP      0.085667
     34 H20A       -1.2350   -5.9410   -4.6890 h1        1 EFP      0.085667
     35 H20B        0.0470   -6.5570   -3.9180 h1        1 EFP      0.085667
     36 H24        -3.7000   -5.6890   -2.9420 ha        1 EFP      0.153000
     37 H26        -4.1200   -4.1010   -1.3080 ha        1 EFP      0.141000
     38 H30         0.8200    2.2420   -0.7750 DU        1 EFP      0.204000
     39 H32         0.0860    4.3300    0.6500 hc        1 EFP      0.108000
     40 H32A        0.4350    5.0760    2.1560 hc        1 EFP      0.108000
     41 H35         2.1010    5.0130   -0.0850 h1        1 EFP      0.142000
     42 HN37        2.3830    4.7270    1.9510 hn        1 EFP      0.221000
     43 H40         3.0980    8.8460    0.4940 hc        1 EFP      0.106667
     44 H40A        2.8350    8.1240    1.9220 hc        1 EFP      0.106667
     45 H40B        4.1220    7.7200    1.0950 hc        1 EFP      0.106667
     46 H45         3.3050    3.5750    2.0240 hc        1 EFP      0.108000
     47 H45A        2.8370    2.9440    0.6070 hc        1 EFP      0.108000
@<TRIPOS>BOND
     1    1    2 1   
     2    1   19 1   
     3    1   25 1   
     4    1   26 1   
     5    2    3 1   
     6    2   18 1   
     7    3    4 1   
     8    4   17 1   
     9    5    6 1   
    10    5   28 1   
    11    6    7 1   
    12    6   16 1   
    13    7    8 1   
    14    7   29 1   
    15    7   30 1   
    16    8    9 1   
    17    8   15 1   
    18    9   10 1   
    19    9   31 1   
    20   10   32 1   
    21   11   12 1   
    22   11   14 1   
    23   12   13 1   
    24   13   33 1   
    25   13   34 1   
    26   13   35 1   
    27   14   36 1   
    28   15   37 1   
    29   17   18 1   
    30   19   20 1   
    31   19   39 1   
    32   19   40 1   
    33   20   21 1   
    34   20   25 1   
    35   20   41 1   
    36   21   22 1   
    37   21   42 1   
    38   22   23 1   
    39   22   24 1   
    40   23   43 1   
    41   23   44 1   
    42   23   45 1   
    43   25   46 1   
    44   25   47 1   
@<TRIPOS>SUBSTRUCTURE
     1 EFP         1 TEMP              0 ****  ****    0 ROOT
