@<TRIPOS>MOLECULE
EFP
   48    50     1     0     0
SMALL
bcc


@<TRIPOS>ATOM
      1 C1         -0.0720    0.2400    0.1900 cy        1 EFP      0.038000
      2 N3         -1.1090   -0.0980    1.1230 na        1 EFP     -0.200900
      3 C4         -0.8080   -0.8250    2.2970 cc        1 EFP     -0.326600
      4 C6         -1.8920   -1.6940    2.5330 cd        1 EFP      0.433200
      5 N7         -1.9460   -2.6550    3.5460 ns        1 EFP     -0.503400
      6 C9         -0.8190   -3.3560    3.9230 c         1 EFP      0.701100
      7 C10        -0.9520   -4.4420    4.9740 c3        1 EFP     -0.085100
      8 C13        -2.1270   -4.2980    5.8700 ca        1 EFP     -0.173300
      9 C14        -2.0010   -3.6230    7.0930 ca        1 EFP     -0.085000
     10 C16        -3.0840   -3.5040    7.9520 ca        1 EFP     -0.177000
     11 C18        -4.3210   -4.0750    7.5860 ca        1 EFP      0.153100
     12 O19        -5.3300   -3.9000    8.5020 os        1 EFP     -0.315900
     13 C20        -6.5850   -4.5030    8.1920 c3        1 EFP      0.108700
     14 C24        -4.4570   -4.7570    6.3690 ca        1 EFP     -0.177000
     15 C26        -3.3570   -4.8640    5.5220 ca        1 EFP     -0.085000
     16 O28         0.3020   -3.1150    3.3980 o         1 EFP     -0.736100
     17 N29        -2.8910   -1.4980    1.5360 nd        1 EFP     -0.651000
     18 C30        -2.3800   -0.5810    0.7040 cc        1 EFP      0.443400
     19 C32         0.5030   -0.9740   -0.6280 cy        1 EFP     -0.113400
     20 C35         1.8140   -0.9100    0.2060 cy        1 EFP      0.091500
     21 N37         1.9520   -2.0290    1.1800 ny        1 EFP     -0.680800
     22 C39         3.2760   -2.0670    1.9130 c         1 EFP      0.558100
     23 C40         3.4360   -3.2130    2.8540 c3        1 EFP     -0.197100
     24 O44         4.0760   -1.1770    1.6690 o         1 EFP     -0.418100
     25 C45         1.3470    0.4480    0.8120 cy        1 EFP     -0.113400
     26 H1         -0.4190    1.0900   -0.4510 h1        1 EFP      0.114700
     27 H4          0.0370   -0.6000    2.9460 h4        1 EFP      0.187000
     28 HN7        -2.8390   -2.9030    3.9200 hn        1 EFP      0.365500
     29 H10        -1.0000   -5.4210    4.4210 hc        1 EFP      0.090200
     30 H10A       -0.0010   -4.4370    5.5740 hc        1 EFP      0.090200
     31 H14        -1.0320   -3.1860    7.3810 ha        1 EFP      0.135500
     32 H16        -2.9960   -2.9790    8.9140 ha        1 EFP      0.157000
     33 H20        -6.4760   -5.6100    8.0940 h1        1 EFP      0.053700
     34 H20A       -7.0110   -4.0620    7.2590 h1        1 EFP      0.053700
     35 H20B       -7.2180   -4.2430    9.0790 h1        1 EFP      0.053700
     36 H24        -5.4150   -5.2120    6.0800 ha        1 EFP      0.157000
     37 H26        -3.4620   -5.4130    4.5730 ha        1 EFP      0.135500
     38 H30        -2.8930   -0.1770   -0.1800 h5        1 EFP      0.084100
     39 H32         0.6830   -0.7170   -1.6960 hc        1 EFP      0.098450
     40 H32A       -0.0810   -1.9170   -0.5660 hc        1 EFP      0.098450
     41 H35         2.7580   -0.8410   -0.3940 hx        1 EFP      0.127700
     42 HN37        1.1870   -1.9830    1.8870 hn        1 EFP      0.479300
     43 H40         3.6200   -4.1550    2.2760 hc        1 EFP      0.119033
     44 H40A        4.3240   -3.0130    3.5100 hc        1 EFP      0.119033
     45 H40B        2.5260   -3.3520    3.4980 hc        1 EFP      0.119033
     46 H45         1.4070    0.5510    1.9140 hc        1 EFP      0.098450
     47 H45A        1.8830    1.3040    0.3400 hc        1 EFP      0.098450
     48 H372        1.8400   -2.9170    0.6780 hn        1 EFP      0.479300
@<TRIPOS>BOND
     1    1    2 1   
     2    1   19 1   
     3    1   25 1   
     4    1   26 1   
     5    2    3 1   
     6    2   18 1   
     7    3    4 2   
     8    3   27 1   
     9    4    5 1   
    10    4   17 1   
    11    5    6 1   
    12    5   28 1   
    13    6    7 1   
    14    6   16 2   
    15    7    8 1   
    16    7   29 1   
    17    7   30 1   
    18    8    9 ar  
    19    8   15 ar  
    20    9   10 ar  
    21    9   31 1   
    22   10   11 ar  
    23   10   32 1   
    24   11   12 1   
    25   11   14 ar  
    26   12   13 1   
    27   13   33 1   
    28   13   34 1   
    29   13   35 1   
    30   14   15 ar  
    31   14   36 1   
    32   15   37 1   
    33   17   18 2   
    34   18   38 1   
    35   19   20 1   
    36   19   39 1   
    37   19   40 1   
    38   20   21 1   
    39   20   25 1   
    40   20   41 1   
    41   21   22 1   
    42   21   42 1   
    43   21   48 1   
    44   22   23 1   
    45   22   24 2   
    46   23   43 1   
    47   23   44 1   
    48   23   45 1   
    49   25   46 1   
    50   25   47 1   
@<TRIPOS>SUBSTRUCTURE
     1 EFP         1 TEMP              0 ****  ****    0 ROOT
