@<TRIPOS>MOLECULE
EFQ
   41    43     1     0     0
SMALL
bcc


@<TRIPOS>ATOM
      1 C1          4.3930    0.6170   -0.7250 cy        1 EFQ      0.042000
      2 N1          3.1060    0.2570   -0.2320 na        1 EFQ     -0.198900
      3 O1          6.3280    1.4110    1.7050 oh        1 EFQ     -0.587800
      4 C2          2.0340   -0.2050   -1.0020 cc        1 EFQ     -0.252600
      5 N2          1.4020   -0.1380    1.2310 nd        1 EFQ     -0.692000
      6 O2         -0.0560   -0.9730   -2.6780 o         1 EFQ     -0.612100
      7 C3          2.6750    0.2760    1.1030 cc        1 EFQ      0.411400
      8 O3         -5.9340    0.7540    1.6800 os        1 EFQ     -0.324900
      9 C4          4.9920    1.9760   -0.2330 cy        1 EFQ     -0.120900
     10 C5          5.6280   -0.1290   -0.1160 cy        1 EFQ     -0.120900
     11 C6          0.9770   -0.4490   -0.0900 cd        1 EFQ      0.398200
     12 C7          6.2360    1.2310    0.3120 cy        1 EFQ      0.120100
     13 C8         -0.7670   -1.1420   -1.6670 c         1 EFQ      0.663100
     14 C9         -2.1930   -1.6580   -1.8090 c3        1 EFQ     -0.102100
     15 C10        -3.1670   -0.9940   -0.9060 ca        1 EFQ     -0.135300
     16 C11        -3.8120    0.1810   -1.3040 ca        1 EFQ     -0.090500
     17 C12        -3.4680   -1.5520    0.3450 ca        1 EFQ     -0.090500
     18 C13        -4.7420    0.8020   -0.4730 ca        1 EFQ     -0.176500
     19 C14        -4.3920   -0.9500    1.1880 ca        1 EFQ     -0.176500
     20 C15        -5.0310    0.2350    0.7740 ca        1 EFQ      0.131100
     21 C16        -6.5710    1.9700    1.3070 c3        1 EFQ      0.112700
     22 H1          4.3740    0.5470   -1.8450 h1        1 EFQ      0.080700
     23 HO1         7.0540    0.8530    2.0100 ho        1 EFQ      0.406000
     24 H2          2.0690   -0.3240   -2.0850 h4        1 EFQ      0.209000
     25 H3          3.3240    0.6020    1.9250 h5        1 EFQ      0.070100
     26 HN3        -0.9410   -1.0030    0.3780 hn        1 EFQ      0.337500
     27 H4          5.2160    2.6790   -1.0600 hc        1 EFQ      0.072700
     28 H4A         4.4070    2.4870    0.5610 hc        1 EFQ      0.072700
     29 H5          5.3900   -0.7940    0.7400 hc        1 EFQ      0.072700
     30 H5A         6.2200   -0.6770   -0.8770 hc        1 EFQ      0.072700
     31 H7          7.1960    1.4880   -0.1930 h1        1 EFQ      0.050700
     32 H9         -2.4910   -1.5030   -2.8820 hc        1 EFQ      0.082200
     33 H9A        -2.1720   -2.7650   -1.6180 hc        1 EFQ      0.082200
     34 H11        -3.5830    0.6240   -2.2860 ha        1 EFQ      0.138000
     35 H12        -2.9700   -2.4810    0.6630 ha        1 EFQ      0.138000
     36 H13        -5.2350    1.7260   -0.8040 ha        1 EFQ      0.147000
     37 H14        -4.6330   -1.3790    2.1710 ha        1 EFQ      0.147000
     38 H16        -5.8180    2.7810    1.1550 h1        1 EFQ      0.046033
     39 H16A       -7.1840    1.8260    0.3840 h1        1 EFQ      0.046033
     40 H16B       -7.2270    2.1990    2.1850 h1        1 EFQ      0.046033
     41 N3         -0.3000   -0.9360   -0.3830 n         1 EFQ     -0.514400
@<TRIPOS>BOND
     1    1    2 1   
     2    1    9 1   
     3    1   10 1   
     4    1   22 1   
     5    2    4 1   
     6    2    7 1   
     7    3   12 1   
     8    3   23 1   
     9    4   11 2   
    10    4   24 1   
    11    5    7 2   
    12    5   11 1   
    13    6   13 2   
    14    7   25 1   
    15    8   20 1   
    16    8   21 1   
    17    9   12 1   
    18    9   27 1   
    19    9   28 1   
    20   10   12 1   
    21   10   29 1   
    22   10   30 1   
    23   11   41 1   
    24   12   31 1   
    25   13   14 1   
    26   13   41 1   
    27   14   15 1   
    28   14   32 1   
    29   14   33 1   
    30   15   16 ar  
    31   15   17 ar  
    32   16   18 ar  
    33   16   34 1   
    34   17   19 ar  
    35   17   35 1   
    36   18   20 ar  
    37   18   36 1   
    38   19   20 ar  
    39   19   37 1   
    40   21   38 1   
    41   21   39 1   
    42   21   40 1   
    43   26   41 1   
@<TRIPOS>SUBSTRUCTURE
     1 EFQ         1 TEMP              0 ****  ****    0 ROOT
