@<TRIPOS>MOLECULE
EFQ
   42    40     1     0     0
SMALL
bcc


@<TRIPOS>ATOM
      1 C1         -0.4320   -0.0580    1.5700 c3        1 EFQ      0.018000
      2 N1         -1.8280   -0.1900    1.1430 n3        1 EFQ     -0.217000
      3 O1          2.7920   -1.7130    1.2560 oh        1 EFQ     -0.136000
      4 C2         -2.3580    1.7260   -4.6010 c2        1 EFQ     -0.082000
      5 N2         -2.3250   -0.5530   -1.3110 n1        1 EFQ     -0.165000
      6 O2         -3.5900    1.3510   -5.1680 os        1 EFQ     -0.233000
      7 C3         -2.0690   -0.3310   -0.1900 c1        1 EFQ     -0.023000
      8 O3         -5.3300   -4.5120   -6.3430 os        1 EFQ     -0.135000
      9 C4          0.4360   -1.2260    1.0870 c3        1 EFQ     -0.286000
     10 C5          0.2270    1.2630    1.1790 c3        1 EFQ     -0.254000
     11 C6         -1.7520    2.6830   -5.3520 c2        1 EFQ     -0.166000
     12 C7          1.7570   -1.1570    1.7770 c1        1 EFQ      0.041000
     13 C8         -3.7610    2.1750   -6.3630 c3        1 EFQ      0.083000
     14 C9         -4.0500    1.3150   -7.5630 c2        1 EFQ      0.070000
     15 C10        -4.3460    0.0340   -7.4970 c1        1 EFQ     -0.148000
     16 C11        -4.2550   -2.2190   -3.9080 c1        1 EFQ      0.091000
     17 C12        -4.6320   -1.1820   -7.4280 c1        1 EFQ      0.114000
     18 C13        -4.5870   -2.7180   -4.9530 c1        1 EFQ     -0.339000
     19 C14        -4.9480   -2.4780   -7.4000 c2        1 EFQ     -0.195000
     20 C15        -4.9530   -3.2370   -6.1980 c2        1 EFQ      0.435000
     21 C16        -5.3610   -5.3580   -5.1740 c3        1 EFQ     -0.088000
     22 H1         -0.4810   -0.1120    2.7020 h1        1 EFQ      0.141000
     23 HO1         2.6720   -2.1630    0.3890 ho        1 EFQ      0.157000
     24 H2         -2.1260    1.2090   -3.6720 h4        1 EFQ      0.212000
     25 H3         -2.4190    0.5120    1.5550 hn        1 EFQ      0.220000
     26 HN3        -0.8040    3.2050   -5.1940 h4        1 EFQ      0.200000
     27 H4          0.5270   -1.2090   -0.0330 hc        1 EFQ      0.110000
     28 H4A        -0.0450   -2.2030    1.3760 hc        1 EFQ      0.110000
     29 H5          0.3100    1.3600    0.0710 hc        1 EFQ      0.094667
     30 H5A        -0.3530    2.1310    1.5740 hc        1 EFQ      0.094667
     31 H7          1.2540    1.2950    1.6230 hc        1 EFQ      0.094667
     32 H9         -4.6750    2.8210   -6.1740 h2        1 EFQ      0.168000
     33 H9A        -4.0510    1.8410   -8.5410 ha        1 EFQ      0.185000
     34 H11        -3.9550   -1.7740   -2.9790 ha        1 EFQ      0.283000
     35 H12        -4.5000    0.8550   -2.9950 ha        1 EFQ      0.001000
     36 H13        -4.7780    0.2830   -3.2280 ha        1 EFQ      0.001000
     37 H14        -5.2230   -3.0050   -8.3360 ha        1 EFQ      0.205000
     38 H16        -4.3350   -5.4360   -4.7410 h1        1 EFQ      0.127667
     39 H16A       -6.0900   -4.9490   -4.4340 h1        1 EFQ      0.127667
     40 H16B       -5.7060   -6.3380   -5.5960 h1        1 EFQ      0.127667
     41 N3         -2.5790    3.0590   -6.4580 n3        1 EFQ     -0.234000
     42 H32        -2.1030    3.0080   -7.3380 hn        1 EFQ      0.187000
@<TRIPOS>BOND
     1    1    2 1   
     2    1    9 1   
     3    1   10 1   
     4    1   22 1   
     5    2    7 1   
     6    2   25 1   
     7    3   12 1   
     8    3   23 1   
     9    4    6 1   
    10    4   11 1   
    11    4   24 1   
    12    5    7 1   
    13    6   13 1   
    14    8   20 1   
    15    8   21 1   
    16    9   12 1   
    17    9   27 1   
    18    9   28 1   
    19   10   29 1   
    20   10   30 1   
    21   10   31 1   
    22   11   26 1   
    23   11   41 1   
    24   13   14 1   
    25   13   32 1   
    26   13   41 1   
    27   14   15 1   
    28   14   33 1   
    29   15   17 1   
    30   16   18 1   
    31   16   34 1   
    32   17   19 1   
    33   18   20 1   
    34   19   20 1   
    35   19   37 1   
    36   21   38 1   
    37   21   39 1   
    38   21   40 1   
    39   35   36 1   
    40   41   42 1   
@<TRIPOS>SUBSTRUCTURE
     1 EFQ         1 TEMP              0 ****  ****    0 ROOT
