@<TRIPOS>MOLECULE
EFS
   12    11     1     0     0
SMALL
bcc


@<TRIPOS>ATOM
      1 C12        -0.1920    0.1780    3.0880 c3        1 EFS     -0.092100
      2 C11         0.2540   -0.2140    1.6860 c3        1 EFS      0.191400
      3 O2         -0.5130    0.4200    0.7340 os        1 EFS     -0.569200
      4 P           0.0230   -0.0510   -0.8520 p5        1 EFS      1.313900
      5 O4         -0.9110    0.7250   -1.7410 o         1 EFS     -0.939500
      6 O1          1.4620    0.4010   -0.8380 o         1 EFS     -0.939500
      7 O3         -0.1750   -1.5450   -0.8140 o         1 EFS     -0.939500
      8 H121        0.4320   -0.3380    3.8580 hc        1 EFS     -0.010633
      9 H122       -0.0970    1.2810    3.2310 hc        1 EFS     -0.010633
     10 H123       -1.2600   -0.1010    3.2470 hc        1 EFS     -0.010633
     11 H111        1.3390    0.0620    1.5450 h1        1 EFS      0.003700
     12 H112        0.1660   -1.3320    1.5610 h1        1 EFS      0.003700
@<TRIPOS>BOND
     1    1    2 1   
     2    1    8 1   
     3    1    9 1   
     4    1   10 1   
     5    2    3 1   
     6    2   11 1   
     7    2   12 1   
     8    3    4 1   
     9    4    5 1   
    10    4    6 1   
    11    4    7 1   
@<TRIPOS>SUBSTRUCTURE
     1 EFS         1 TEMP              0 ****  ****    0 ROOT
