@<TRIPOS>MOLECULE
EFS
   12    11     1     0     0
SMALL
bcc


@<TRIPOS>ATOM
      1 C12        -1.8140    0.0730   -0.5540 c3        1 EFS     -0.122100
      2 C11        -0.3430   -0.1130   -0.5900 c3        1 EFS      0.238400
      3 O2          0.1660   -0.2110    0.7490 os        1 EFS     -0.566200
      4 P           1.7420   -0.0010    0.9830 p5        1 EFS      1.314900
      5 O4          2.5150   -1.0900    0.2530 o         1 EFS     -0.937500
      6 O1          2.1520    1.3520    0.4500 o         1 EFS     -0.937500
      7 O3          2.0490   -0.0750    2.4710 o         1 EFS     -0.937500
      8 H121       -2.1490    0.1700   -1.4600 hc        1 EFS     -0.000300
      9 H122       -2.2330   -0.7060   -0.1320 hc        1 EFS     -0.000300
     10 H123       -2.0280    0.8730   -0.0420 hc        1 EFS     -0.000300
     11 H111        0.0760    0.6630   -1.0480 h1        1 EFS     -0.026300
     12 H112       -0.1310   -0.9360   -1.0800 h1        1 EFS     -0.026300
@<TRIPOS>BOND
     1    1    2 1   
     2    1    8 1   
     3    1    9 1   
     4    1   10 1   
     5    2    3 1   
     6    2   11 1   
     7    2   12 1   
     8    3    4 1   
     9    4    5 1   
    10    4    6 1   
    11    4    7 1   
@<TRIPOS>SUBSTRUCTURE
     1 EFS         1 TEMP              0 ****  ****    0 ROOT
