@<TRIPOS>MOLECULE
EFS
   12    11     1     0     0
SMALL
bcc


@<TRIPOS>ATOM
      1 C12         0.0150   -0.0010    0.0150 c3        1 EFS     -0.092100
      2 C11         1.5380   -0.0060    0.0190 c3        1 EFS      0.191400
      3 O2          2.0220   -0.0120    1.3080 os        1 EFS     -0.569200
      4 P           3.7610   -0.0180    1.2760 p5        1 EFS      1.313900
      5 O4          4.1010   -0.0230    2.7420 o         1 EFS     -0.939500
      6 O1          4.0510   -1.2890    0.5170 o         1 EFS     -0.939500
      7 O3          4.0600    1.2550    0.5240 o         1 EFS     -0.939500
      8 H121       -0.3710    0.9020    0.5430 hc        1 EFS     -0.010633
      9 H122       -0.3750    0.0030   -1.0320 hc        1 EFS     -0.010633
     10 H123       -0.3770   -0.9040    0.5390 hc        1 EFS     -0.010633
     11 H111        1.9130   -0.9180   -0.5310 h1        1 EFS      0.003700
     12 H112        1.9190    0.9050   -0.5260 h1        1 EFS      0.003700
@<TRIPOS>BOND
     1    1    2 1   
     2    1    8 1   
     3    1    9 1   
     4    1   10 1   
     5    2    3 1   
     6    2   11 1   
     7    2   12 1   
     8    3    4 1   
     9    4    5 1   
    10    4    6 1   
    11    4    7 1   
@<TRIPOS>SUBSTRUCTURE
     1 EFS         1 TEMP              0 ****  ****    0 ROOT
