@<TRIPOS>MOLECULE
EFT
   39    36     1     0     0
SMALL
bcc


@<TRIPOS>ATOM
      1 C1          2.7390    4.2990    0.4590 c1        1 EFT     -0.071000
      2 C2          3.6380    4.1880   -0.5870 c1        1 EFT      0.138600
      3 C3          3.5390    3.1310   -1.4760 c1        1 EFT     -0.119500
      4 C4          1.7390    3.3530    0.6160 c1        1 EFT     -0.071000
      5 N5          2.2010    1.0480   -2.0320 ne        1 EFT     -0.328400
      6 N6          1.1080    0.4620   -1.4380 ne        1 EFT     -0.328400
      7 C7          0.7590    1.2140   -0.3670 c1        1 EFT      0.182400
      8 C8          1.6380    2.2790   -0.2880 c1        1 EFT     -0.153000
      9 C9          2.5230    2.1700   -1.3170 c1        1 EFT      0.182400
     10 C10        -0.5600    0.7530    0.2120 c2        1 EFT     -0.001300
     11 C11        -0.6920   -0.7440    0.0390 c3        1 EFT     -0.067200
     12 C12        -0.6110    1.0980    1.6850 c1        1 EFT     -0.067900
     13 N13        -0.6500    1.3570    2.7950 n1        1 EFT     -0.045000
     14 O14         4.7640    5.0260   -0.6760 oh        1 EFT     -0.478600
     15 C15        -1.9500   -1.2300    0.7550 c3        1 EFT     -0.062700
     16 C16        -1.5640   -2.3210    1.7390 c3        1 EFT     -0.074400
     17 C17        -1.1140   -3.5900    1.0490 c3        1 EFT     -0.076900
     18 C18        -2.1120   -4.0700    0.0130 c3        1 EFT     -0.076400
     19 C19        -2.4990   -2.9810   -0.9710 c3        1 EFT     -0.076900
     20 C20        -2.9480   -1.7120   -0.2800 c3        1 EFT     -0.074400
     21 H1          2.8090    5.0440    1.0860 ha        1 EFT      0.081500
     22 H2          4.1730    3.0530   -2.2140 ha        1 EFT      0.102500
     23 H3          1.1050    3.4320    1.3540 ha        1 EFT      0.081500
     24 H4          2.6360    0.7430   -2.7740 DU        1 EFT      0.277000
     25 H5         -1.2930    1.2000   -0.2520 ha        1 EFT      0.122000
     26 H6         -0.7550   -0.9570   -0.9130 hc        1 EFT      0.064200
     27 H7          0.0930   -1.1860    0.4210 hc        1 EFT      0.064200
     28 H8          4.5120    5.8330   -0.9500 ho        1 EFT      0.423000
     29 H9         -2.3420   -0.4840    1.2480 hc        1 EFT      0.042700
     30 H10        -2.3350   -2.5250    2.3040 hc        1 EFT      0.042450
     31 H11        -0.8350   -1.9930    2.3040 hc        1 EFT      0.042450
     32 H12        -0.9940   -4.2900    1.7210 hc        1 EFT      0.040950
     33 H13        -0.2570   -3.4230    0.6080 hc        1 EFT      0.040950
     34 H14        -1.7200   -4.8180   -0.4810 hc        1 EFT      0.039200
     35 H15        -2.9180   -4.3830    0.4710 hc        1 EFT      0.039200
     36 H16        -1.7270   -2.7770   -1.5360 hc        1 EFT      0.040950
     37 H17        -3.2270   -3.3090   -1.5350 hc        1 EFT      0.040950
     38 H18        -3.0690   -1.0120   -0.9530 hc        1 EFT      0.042450
     39 H19        -3.8060   -1.8780    0.1600 hc        1 EFT      0.042450
@<TRIPOS>BOND
     1    1    4 3   
     2    1   21 1   
     3    2    3 3   
     4    2   14 1   
     5    3   22 1   
     6    4   23 1   
     7    5    6 1   
     8    5    9 2   
     9    6    7 2   
    10    7    8 2   
    11    8    9 2   
    12   10   11 1   
    13   10   12 2   
    14   10   25 1   
    15   11   15 1   
    16   11   26 1   
    17   11   27 1   
    18   12   13 2   
    19   14   28 1   
    20   15   16 1   
    21   15   20 1   
    22   15   29 1   
    23   16   17 1   
    24   16   30 1   
    25   16   31 1   
    26   17   18 1   
    27   17   32 1   
    28   17   33 1   
    29   18   19 1   
    30   18   34 1   
    31   18   35 1   
    32   19   20 1   
    33   19   36 1   
    34   19   37 1   
    35   20   38 1   
    36   20   39 1   
@<TRIPOS>SUBSTRUCTURE
     1 EFT         1 TEMP              0 ****  ****    0 ROOT
