@<TRIPOS>MOLECULE
EFT
   39    41     1     0     0
SMALL
bcc


@<TRIPOS>ATOM
      1 C1         -0.0690    0.1880   -0.0320 ca        1 EFT     -0.177000
      2 C2          1.3410    0.0260   -0.0500 ca        1 EFT      0.162100
      3 C3          2.0950   -0.1550    1.1100 ca        1 EFT     -0.237000
      4 C4         -0.7600    0.1700    1.1660 ca        1 EFT     -0.033000
      5 N5          1.7860   -0.3670    3.6480 na        1 EFT     -0.015100
      6 N6          0.7540   -0.2710    4.4970 nc        1 EFT     -0.497100
      7 C7         -0.3770   -0.0840    3.7760 cd        1 EFT      0.345900
      8 C8         -0.0500   -0.0050    2.3540 ca        1 EFT     -0.236900
      9 C9          1.3850   -0.1690    2.3170 ca        1 EFT     -0.014200
     10 C10        -1.7520    0.0180    4.3430 c3        1 EFT      0.002100
     11 C11        -2.1200   -1.2530    5.1090 c3        1 EFT     -0.071400
     12 C12        -1.8660    1.1930    5.1940 c1        1 EFT      0.220700
     13 N13        -1.9600    2.1350    5.8690 n1        1 EFT     -0.369800
     14 O14         1.9180    0.0640   -1.2970 oh        1 EFT     -0.493100
     15 C15        -3.5980   -1.3100    5.4640 c3        1 EFT     -0.069700
     16 C16        -4.4440   -1.7100    4.2630 c3        1 EFT     -0.072900
     17 C17        -5.9100   -1.8020    4.6300 c3        1 EFT     -0.076400
     18 C18        -6.1310   -2.7660    5.7770 c3        1 EFT     -0.077400
     19 C19        -5.2830   -2.3920    6.9750 c3        1 EFT     -0.076400
     20 C20        -3.8170   -2.2940    6.6070 c3        1 EFT     -0.072900
     21 H1         -0.5920    0.3270   -0.9890 ha        1 EFT      0.156000
     22 H2          3.1840   -0.2810    1.0780 ha        1 EFT      0.144000
     23 H3         -1.8530    0.2930    1.1840 ha        1 EFT      0.142000
     24 H4          2.7140   -0.3050    3.9960 hn        1 EFT      0.324700
     25 H5         -2.4710    0.1480    3.4780 hc        1 EFT      0.085700
     26 H6         -1.8490   -2.1390    4.4770 hc        1 EFT      0.063200
     27 H7         -1.5050   -1.3070    6.0460 hc        1 EFT      0.063200
     28 H8          2.8730   -0.0600   -1.1930 ho        1 EFT      0.422000
     29 H9         -3.9290   -0.2900    5.8100 hc        1 EFT      0.056700
     30 H10        -4.3130   -0.9600    3.4400 hc        1 EFT      0.039700
     31 H11        -4.0920   -2.7020    3.8740 hc        1 EFT      0.039700
     32 H12        -6.2880   -0.7850    4.9180 hc        1 EFT      0.041200
     33 H13        -6.4980   -2.1390    3.7370 hc        1 EFT      0.041200
     34 H14        -7.2140   -2.7630    6.0680 hc        1 EFT      0.039700
     35 H15        -5.8730   -3.8060    5.4460 hc        1 EFT      0.039700
     36 H16        -5.4130   -3.1590    7.7820 hc        1 EFT      0.041200
     37 H17        -5.6300   -1.4080    7.3870 hc        1 EFT      0.041200
     38 H18        -3.2280   -1.9640    7.5020 hc        1 EFT      0.039700
     39 H19        -3.4350   -3.3040    6.3040 hc        1 EFT      0.039700
@<TRIPOS>BOND
     1    1    2 ar  
     2    1    4 ar  
     3    1   21 1   
     4    2    3 ar  
     5    2   14 1   
     6    3    9 ar  
     7    3   22 1   
     8    4    8 ar  
     9    4   23 1   
    10    5    6 1   
    11    5    9 1   
    12    5   24 1   
    13    6    7 2   
    14    7    8 1   
    15    7   10 1   
    16    8    9 ar  
    17   10   11 1   
    18   10   12 1   
    19   10   25 1   
    20   11   15 1   
    21   11   26 1   
    22   11   27 1   
    23   12   13 3   
    24   14   28 1   
    25   15   16 1   
    26   15   20 1   
    27   15   29 1   
    28   16   17 1   
    29   16   30 1   
    30   16   31 1   
    31   17   18 1   
    32   17   32 1   
    33   17   33 1   
    34   18   19 1   
    35   18   34 1   
    36   18   35 1   
    37   19   20 1   
    38   19   36 1   
    39   19   37 1   
    40   20   38 1   
    41   20   39 1   
@<TRIPOS>SUBSTRUCTURE
     1 EFT         1 TEMP              0 ****  ****    0 ROOT
