@<TRIPOS>MOLECULE
EFT
   39    41     1     0     0
SMALL
bcc


@<TRIPOS>ATOM
      1 C1          3.5110   -1.6170   -0.8520 ca        1 EFT     -0.231000
      2 C2          4.5380   -0.9950   -0.0990 ca        1 EFT      0.155100
      3 C3          4.3260    0.1640    0.6530 ca        1 EFT     -0.177000
      4 C4          2.2310   -1.0890   -0.8720 ca        1 EFT     -0.026000
      5 N5          2.4450    1.7910    1.2690 na        1 EFT     -0.015100
      6 N6          1.1590    1.9420    0.9250 nc        1 EFT     -0.493100
      7 C7          0.8110    0.9220    0.1050 cd        1 EFT      0.343900
      8 C8          1.9710    0.0680   -0.1410 ca        1 EFT     -0.236900
      9 C9          3.0300    0.6900    0.6230 ca        1 EFT     -0.017200
     10 C10        -0.5510    0.6980   -0.4590 c3        1 EFT      0.002100
     11 C11        -1.5860    0.5540    0.6570 c3        1 EFT     -0.071400
     12 C12        -0.9090    1.7750   -1.3700 c1        1 EFT      0.219700
     13 N13        -1.1930    2.6310   -2.1020 n1        1 EFT     -0.369800
     14 O14         5.8150   -1.5060   -0.0680 oh        1 EFT     -0.495100
     15 C15        -2.9260    0.0490    0.1450 c3        1 EFT     -0.069700
     16 C16        -2.8940   -1.4530   -0.1080 c3        1 EFT     -0.072900
     17 C17        -4.2410   -1.9580   -0.5830 c3        1 EFT     -0.076400
     18 C18        -5.3370   -1.6100    0.4030 c3        1 EFT     -0.077400
     19 C19        -5.3710   -0.1210    0.6800 c3        1 EFT     -0.076400
     20 C20        -4.0220    0.3850    1.1480 c3        1 EFT     -0.072900
     21 H1          3.7420   -2.5280   -1.4230 ha        1 EFT      0.138000
     22 H2          5.1400    0.6210    1.2270 ha        1 EFT      0.160000
     23 H3          1.4330   -1.5730   -1.4540 ha        1 EFT      0.140000
     24 H4          2.9280    2.5400    1.7070 hn        1 EFT      0.326700
     25 H5         -0.5190   -0.2630   -1.0570 hc        1 EFT      0.085700
     26 H6         -1.1830   -0.1570    1.4260 hc        1 EFT      0.063200
     27 H7         -1.7240    1.5480    1.1580 hc        1 EFT      0.063200
     28 H8          5.8380   -2.2930   -0.6310 ho        1 EFT      0.423000
     29 H9         -3.1650    0.5690   -0.8260 hc        1 EFT      0.056700
     30 H10        -2.1150   -1.6910   -0.8780 hc        1 EFT      0.039700
     31 H11        -2.6070   -1.9840    0.8370 hc        1 EFT      0.039700
     32 H12        -4.4790   -1.5060   -1.5810 hc        1 EFT      0.040700
     33 H13        -4.1960   -3.0700   -0.7180 hc        1 EFT      0.040700
     34 H14        -6.3280   -1.9390   -0.0050 hc        1 EFT      0.039700
     35 H15        -5.1670   -2.1650    1.3630 hc        1 EFT      0.039700
     36 H16        -5.6710    0.4250   -0.2530 hc        1 EFT      0.040700
     37 H17        -6.1430    0.0980    1.4620 hc        1 EFT      0.040700
     38 H18        -3.7700   -0.0730    2.1400 hc        1 EFT      0.039700
     39 H19        -4.0700    1.4960    1.2900 hc        1 EFT      0.039700
@<TRIPOS>BOND
     1    1    2 ar  
     2    1    4 ar  
     3    1   21 1   
     4    2    3 ar  
     5    2   14 1   
     6    3    9 ar  
     7    3   22 1   
     8    4    8 ar  
     9    4   23 1   
    10    5    6 1   
    11    5    9 1   
    12    5   24 1   
    13    6    7 2   
    14    7    8 1   
    15    7   10 1   
    16    8    9 ar  
    17   10   11 1   
    18   10   12 1   
    19   10   25 1   
    20   11   15 1   
    21   11   26 1   
    22   11   27 1   
    23   12   13 3   
    24   14   28 1   
    25   15   16 1   
    26   15   20 1   
    27   15   29 1   
    28   16   17 1   
    29   16   30 1   
    30   16   31 1   
    31   17   18 1   
    32   17   32 1   
    33   17   33 1   
    34   18   19 1   
    35   18   34 1   
    36   18   35 1   
    37   19   20 1   
    38   19   36 1   
    39   19   37 1   
    40   20   38 1   
    41   20   39 1   
@<TRIPOS>SUBSTRUCTURE
     1 EFT         1 TEMP              0 ****  ****    0 ROOT
