@<TRIPOS>MOLECULE
EFT
   39    41     1     0     0
SMALL
bcc


@<TRIPOS>ATOM
      1 C1         -0.0740    0.1830   -0.0320 ca        1 EFT     -0.177000
      2 C2          1.3360    0.0220   -0.0520 ca        1 EFT      0.162100
      3 C3          2.0910   -0.1570    1.1070 ca        1 EFT     -0.237000
      4 C4         -0.7640    0.1670    1.1670 ca        1 EFT     -0.033000
      5 N5          1.7870   -0.3640    3.6460 na        1 EFT     -0.015100
      6 N6          0.7550   -0.2670    4.4960 nc        1 EFT     -0.497100
      7 C7         -0.3770   -0.0820    3.7760 cd        1 EFT      0.345900
      8 C8         -0.0520   -0.0060    2.3540 ca        1 EFT     -0.236900
      9 C9          1.3830   -0.1680    2.3160 ca        1 EFT     -0.014200
     10 C10        -1.7510    0.0200    4.3460 c3        1 EFT      0.002100
     11 C11        -2.1200   -1.2530    5.1080 c3        1 EFT     -0.071400
     12 C12        -1.8630    1.1930    5.2000 c1        1 EFT      0.220700
     13 N13        -1.9550    2.1330    5.8770 n1        1 EFT     -0.369800
     14 O14         1.9110    0.0580   -1.3000 oh        1 EFT     -0.493100
     15 C15        -3.5970   -1.3090    5.4650 c3        1 EFT     -0.069700
     16 C16        -4.4450   -1.7040    4.2640 c3        1 EFT     -0.072900
     17 C17        -5.9110   -1.7950    4.6330 c3        1 EFT     -0.076400
     18 C18        -6.1310   -2.7640    5.7770 c3        1 EFT     -0.077400
     19 C19        -5.2800   -2.3950    6.9750 c3        1 EFT     -0.076400
     20 C20        -3.8150   -2.2980    6.6050 c3        1 EFT     -0.072900
     21 H1         -0.5980    0.3200   -0.9890 ha        1 EFT      0.156000
     22 H2          3.1800   -0.2820    1.0740 ha        1 EFT      0.144000
     23 H3         -1.8570    0.2890    1.1860 ha        1 EFT      0.142000
     24 H4          2.7150   -0.3010    3.9930 hn        1 EFT      0.324700
     25 H5         -2.4710    0.1530    3.4810 hc        1 EFT      0.086700
     26 H6         -1.5030   -1.3100    6.0440 hc        1 EFT      0.063200
     27 H7         -1.8500   -2.1380    4.4740 hc        1 EFT      0.063200
     28 H8          2.8670   -0.0660   -1.1970 ho        1 EFT      0.422000
     29 H9         -3.9270   -0.2900    5.8150 hc        1 EFT      0.056700
     30 H10        -4.0950   -2.6950    3.8700 hc        1 EFT      0.039700
     31 H11        -4.3140   -0.9510    3.4440 hc        1 EFT      0.039700
     32 H12        -6.2870   -0.7800    4.9250 hc        1 EFT      0.041200
     33 H13        -6.5010   -2.1290    3.7400 hc        1 EFT      0.041200
     34 H14        -5.8750   -3.8030    5.4410 hc        1 EFT      0.039700
     35 H15        -7.2130   -2.7610    6.0690 hc        1 EFT      0.039700
     36 H16        -5.4110   -3.1650    7.7790 hc        1 EFT      0.041200
     37 H17        -5.6270   -1.4120    7.3900 hc        1 EFT      0.041200
     38 H18        -3.2250   -1.9710    7.5000 hc        1 EFT      0.039700
     39 H19        -3.4350   -3.3070    6.2970 hc        1 EFT      0.039700
@<TRIPOS>BOND
     1    1    2 ar  
     2    1    4 ar  
     3    1   21 1   
     4    2    3 ar  
     5    2   14 1   
     6    3    9 ar  
     7    3   22 1   
     8    4    8 ar  
     9    4   23 1   
    10    5    6 1   
    11    5    9 1   
    12    5   24 1   
    13    6    7 2   
    14    7    8 1   
    15    7   10 1   
    16    8    9 ar  
    17   10   11 1   
    18   10   12 1   
    19   10   25 1   
    20   11   15 1   
    21   11   26 1   
    22   11   27 1   
    23   12   13 3   
    24   14   28 1   
    25   15   16 1   
    26   15   20 1   
    27   15   29 1   
    28   16   17 1   
    29   16   30 1   
    30   16   31 1   
    31   17   18 1   
    32   17   32 1   
    33   17   33 1   
    34   18   19 1   
    35   18   34 1   
    36   18   35 1   
    37   19   20 1   
    38   19   36 1   
    39   19   37 1   
    40   20   38 1   
    41   20   39 1   
@<TRIPOS>SUBSTRUCTURE
     1 EFT         1 TEMP              0 ****  ****    0 ROOT
