@<TRIPOS>MOLECULE
EFT
   39    41     1     0     0
SMALL
bcc


@<TRIPOS>ATOM
      1 C1         -0.0700    0.1680   -0.0360 ca        1 EFT     -0.177000
      2 C2          1.3410    0.0150   -0.0510 ca        1 EFT      0.162100
      3 C3          2.0940   -0.1520    1.1120 ca        1 EFT     -0.237000
      4 C4         -0.7630    0.1560    1.1610 ca        1 EFT     -0.033000
      5 N5          1.7830   -0.3430    3.6510 na        1 EFT     -0.015100
      6 N6          0.7490   -0.2470    4.4970 nc        1 EFT     -0.497100
      7 C7         -0.3820   -0.0730    3.7730 cd        1 EFT      0.345900
      8 C8         -0.0540   -0.0050    2.3510 ca        1 EFT     -0.236900
      9 C9          1.3820   -0.1590    2.3180 ca        1 EFT     -0.014200
     10 C10        -1.7590    0.0250    4.3380 c3        1 EFT      0.002100
     11 C11        -2.1210   -1.2440    5.1110 c3        1 EFT     -0.071400
     12 C12        -1.8800    1.2050    5.1820 c1        1 EFT      0.220700
     13 N13        -1.9800    2.1500    5.8510 n1        1 EFT     -0.369800
     14 O14         1.9190    0.0450   -1.2980 oh        1 EFT     -0.493100
     15 C15        -3.5990   -1.3060    5.4640 c3        1 EFT     -0.069700
     16 C16        -4.4410   -1.7170    4.2630 c3        1 EFT     -0.072900
     17 C17        -5.9080   -1.8140    4.6300 c3        1 EFT     -0.076400
     18 C18        -6.1250   -2.7730    5.7820 c3        1 EFT     -0.077400
     19 C19        -5.2800   -2.3890    6.9790 c3        1 EFT     -0.076400
     20 C20        -3.8140   -2.2850    6.6120 c3        1 EFT     -0.072900
     21 H1         -0.5930    0.2940   -0.9950 ha        1 EFT      0.156000
     22 H2          3.1830   -0.2710    1.0820 ha        1 EFT      0.144000
     23 H3         -1.8570    0.2720    1.1760 ha        1 EFT      0.142000
     24 H4          2.7100   -0.2720    4.0000 hn        1 EFT      0.324700
     25 H5         -2.4770    0.1460    3.4710 hc        1 EFT      0.085700
     26 H6         -1.5070   -1.2880    6.0480 hc        1 EFT      0.063200
     27 H7         -1.8450   -2.1320    4.4840 hc        1 EFT      0.063200
     28 H8          2.8750   -0.0720   -1.1910 ho        1 EFT      0.422000
     29 H9         -3.9360   -0.2860    5.8040 hc        1 EFT      0.056700
     30 H10        -4.0840   -2.7090    3.8800 hc        1 EFT      0.039700
     31 H11        -4.3130   -0.9700    3.4380 hc        1 EFT      0.039700
     32 H12        -6.2910   -0.7980    4.9120 hc        1 EFT      0.041200
     33 H13        -6.4930   -2.1590    3.7380 hc        1 EFT      0.041200
     34 H14        -5.8610   -3.8140    5.4560 hc        1 EFT      0.039700
     35 H15        -7.2080   -2.7750    6.0710 hc        1 EFT      0.039700
     36 H16        -5.6340   -1.4050    7.3840 hc        1 EFT      0.041200
     37 H17        -5.4080   -3.1530    7.7900 hc        1 EFT      0.041200
     38 H18        -3.2290   -1.9480    7.5060 hc        1 EFT      0.039700
     39 H19        -3.4270   -3.2950    6.3140 hc        1 EFT      0.039700
@<TRIPOS>BOND
     1    1    2 ar  
     2    1    4 ar  
     3    1   21 1   
     4    2    3 ar  
     5    2   14 1   
     6    3    9 ar  
     7    3   22 1   
     8    4    8 ar  
     9    4   23 1   
    10    5    6 1   
    11    5    9 1   
    12    5   24 1   
    13    6    7 2   
    14    7    8 1   
    15    7   10 1   
    16    8    9 ar  
    17   10   11 1   
    18   10   12 1   
    19   10   25 1   
    20   11   15 1   
    21   11   26 1   
    22   11   27 1   
    23   12   13 3   
    24   14   28 1   
    25   15   16 1   
    26   15   20 1   
    27   15   29 1   
    28   16   17 1   
    29   16   30 1   
    30   16   31 1   
    31   17   18 1   
    32   17   32 1   
    33   17   33 1   
    34   18   19 1   
    35   18   34 1   
    36   18   35 1   
    37   19   20 1   
    38   19   36 1   
    39   19   37 1   
    40   20   38 1   
    41   20   39 1   
@<TRIPOS>SUBSTRUCTURE
     1 EFT         1 TEMP              0 ****  ****    0 ROOT
