@<TRIPOS>MOLECULE
EFU
   53    56     1     0     0
SMALL
bcc


@<TRIPOS>ATOM
      1 C1         -0.7240   -0.6000    0.6560 ca        1 EFU     -0.277600
      2 C2          0.6430   -0.4410    0.2820 ca        1 EFU      0.201100
      3 C3          1.6330   -0.0730    1.1890 ca        1 EFU     -0.233000
      4 C4         -1.1100   -0.3470    1.9890 ca        1 EFU      0.072000
      5 O5          0.9550   -0.6500   -1.0430 oh        1 EFU     -0.548100
      6 C6         -1.8070   -0.9510   -0.2520 c         1 EFU      0.589700
      7 N7         -1.4920   -1.8500   -1.4380 n4        1 EFU     -0.585200
      8 O8         -2.9880   -0.6340   -0.1400 o         1 EFU     -0.457100
      9 C9         -0.1540    0.0060    2.9160 ca        1 EFU     -0.256900
     10 C10         1.2390    0.1470    2.5180 ca        1 EFU      0.039800
     11 N11         1.9290    0.5120    3.6630 na        1 EFU      0.002900
     12 N12         1.1150    0.6220    4.7310 nc        1 EFU     -0.484100
     13 C13        -0.1470    0.3290    4.3480 cd        1 EFU      0.408900
     14 C14        -1.3420    0.3340    5.2310 c3        1 EFU     -0.051400
     15 C15        -2.0910    1.6210    5.1370 ca        1 EFU     -0.097300
     16 C16        -3.3240    1.6720    4.4790 ca        1 EFU     -0.135000
     17 C17        -3.5180    4.0210    5.0160 ca        1 EFU     -0.119000
     18 C18        -2.2850    3.9800    5.6800 ca        1 EFU     -0.065300
     19 C19        -4.0330    2.8710    4.4210 ca        1 EFU     -0.121000
     20 C20        -1.5770    2.7750    5.7370 ca        1 EFU     -0.117000
     21 C21        -2.3760   -3.0400   -1.4320 c3        1 EFU      0.084100
     22 C22        -1.6330   -1.0580   -2.7130 c3        1 EFU      0.179100
     23 C23        -1.1290   -1.8060   -3.8990 ca        1 EFU     -0.172300
     24 C24         0.2510   -1.9730   -4.0770 ca        1 EFU     -0.105500
     25 C25        -0.1590   -3.1150   -6.1650 ca        1 EFU     -0.085000
     26 C26        -1.5330   -2.9460   -5.9920 ca        1 EFU     -0.119500
     27 C27         0.7330   -2.6280   -5.2070 ca        1 EFU     -0.119500
     28 C28        -2.0210   -2.2950   -4.8580 ca        1 EFU     -0.105500
     29 C29        -1.7480    5.1960    6.3320 c3        1 EFU     -0.059800
     30 H1          2.6780    0.0520    0.8730 ha        1 EFU      0.166000
     31 H2         -2.1740   -0.4270    2.2790 ha        1 EFU      0.175000
     32 H3          1.8910   -0.4320   -1.1850 ho        1 EFU      0.461000
     33 H4          2.9010    0.7090    3.7540 hn        1 EFU      0.347700
     34 H5         -2.0020   -0.5240    4.9280 hc        1 EFU      0.076700
     35 H6         -1.0350    0.1620    6.3010 hc        1 EFU      0.076700
     36 H7         -3.7420    0.7660    4.0160 ha        1 EFU      0.121000
     37 H8         -4.0810    4.9650    4.9700 ha        1 EFU      0.142000
     38 H9         -5.0060    2.9080    3.9080 ha        1 EFU      0.137000
     39 H10        -0.6090    2.7330    6.2600 ha        1 EFU      0.142000
     40 H11        -2.2100   -3.6240   -2.3780 hx        1 EFU      0.103700
     41 H12        -3.4490   -2.7090   -1.3790 hx        1 EFU      0.103700
     42 H13        -2.1340   -3.6760   -0.5410 hx        1 EFU      0.103700
     43 H14        -1.0280   -0.1140   -2.5700 hx        1 EFU      0.109700
     44 H15        -2.7220   -0.7890   -2.8250 hx        1 EFU      0.109700
     45 H16         0.9520   -1.5710   -3.3280 ha        1 EFU      0.138000
     46 H17         0.2240   -3.6270   -7.0630 ha        1 EFU      0.158000
     47 H18        -2.2360   -3.3230   -6.7520 ha        1 EFU      0.155500
     48 H19         1.8170   -2.7560   -5.3490 ha        1 EFU      0.155500
     49 H20        -3.1060   -2.1560   -4.7310 ha        1 EFU      0.138000
     50 H21        -2.1940    5.3080    7.3540 hc        1 EFU      0.051367
     51 H22        -0.6370    5.1410    6.4400 hc        1 EFU      0.051367
     52 H23        -2.0020    6.1100    5.7400 hc        1 EFU      0.051367
     53 H71        -0.5130   -2.1650   -1.3720 hn        1 EFU      0.464800
@<TRIPOS>BOND
     1    1    2 ar  
     2    1    4 ar  
     3    1    6 1   
     4    2    3 ar  
     5    2    5 1   
     6    3   10 ar  
     7    3   30 1   
     8    4    9 ar  
     9    4   31 1   
    10    5   32 1   
    11    6    7 1   
    12    6    8 2   
    13    7   21 1   
    14    7   22 1   
    15    7   53 1   
    16    9   10 ar  
    17    9   13 1   
    18   10   11 1   
    19   11   12 1   
    20   11   33 1   
    21   12   13 2   
    22   13   14 1   
    23   14   15 1   
    24   14   34 1   
    25   14   35 1   
    26   15   16 ar  
    27   15   20 ar  
    28   16   19 ar  
    29   16   36 1   
    30   17   18 ar  
    31   17   19 ar  
    32   17   37 1   
    33   18   20 ar  
    34   18   29 1   
    35   19   38 1   
    36   20   39 1   
    37   21   40 1   
    38   21   41 1   
    39   21   42 1   
    40   22   23 1   
    41   22   43 1   
    42   22   44 1   
    43   23   24 ar  
    44   23   28 ar  
    45   24   27 ar  
    46   24   45 1   
    47   25   26 ar  
    48   25   27 ar  
    49   25   46 1   
    50   26   28 ar  
    51   26   47 1   
    52   27   48 1   
    53   28   49 1   
    54   29   50 1   
    55   29   51 1   
    56   29   52 1   
@<TRIPOS>SUBSTRUCTURE
     1 EFU         1 TEMP              0 ****  ****    0 ROOT
