@<TRIPOS>MOLECULE
EFU
   52    42     1     0     0
SMALL
bcc


@<TRIPOS>ATOM
      1 C1          0.8940   -0.3450   -1.3620 c1        1 EFU     -0.167000
      2 C2          2.2750   -0.2400   -1.3250 c1        1 EFU      0.139000
      3 C3          2.9380   -0.2050   -0.1020 c1        1 EFU     -0.244000
      4 C4          0.1710   -0.4150   -0.1770 c1        1 EFU      0.014000
      5 O5          3.1180   -0.1900   -2.4600 o         1 EFU     -0.245000
      6 C6          0.4680   -0.0390   -2.8020 c2        1 EFU      0.361000
      7 N7         -0.9230   -0.0690   -3.1610 n         1 EFU     -0.310000
      8 O8          1.3070    0.2490   -3.6370 o         1 EFU     -0.367000
      9 C9          0.8450   -0.3790    1.0660 c1        1 EFU     -0.061500
     10 C10         2.2050   -0.2760    1.1010 c1        1 EFU     -0.061500
     11 N11         2.5900   -0.2300    2.4130 n1        1 EFU     -0.191000
     12 N12         1.4560   -0.3070    3.1950 n2        1 EFU     -0.048000
     13 C13         0.3840   -0.3980    2.3730 c1        1 EFU     -0.067000
     14 C14        -0.8680   -0.2940    3.2500 c2        1 EFU     -0.054000
     15 C15        -0.4540   -0.0030    4.7020 c2        1 EFU     -0.074000
     16 C16        -0.3430    1.3090    5.1420 c2        1 EFU     -0.125000
     17 C17         0.1140    0.5240    7.3660 c1        1 EFU     -0.128000
     18 C18         0.0040   -0.7860    6.9290 c1        1 EFU     -0.071000
     19 C19        -0.0600    1.5730    6.4710 c1        1 EFU     -0.127000
     20 C20        -0.2810   -1.0500    5.5960 c1        1 EFU     -0.114000
     21 C21        -1.7320   -1.1790   -2.7810 c3        1 EFU     -0.076000
     22 C22        -1.5190    1.0610   -3.8430 c3        1 EFU      0.008000
     23 C23        -1.2150    0.9740   -5.3350 c1        1 EFU     -0.109000
     24 C24        -0.3740    1.9040   -5.9240 c1        1 EFU     -0.126250
     25 C25        -0.8060    0.9340   -8.0770 c1        1 EFU     -0.126250
     26 C26        -1.6480    0.0040   -7.4880 c1        1 EFU     -0.126250
     27 C27        -0.1690    1.8840   -7.2950 c1        1 EFU     -0.126250
     28 C28        -1.8520    0.0240   -6.1160 c1        1 EFU     -0.122000
     29 C29         0.1110   -1.9250    7.9200 c3        1 EFU     -0.179000
     30 H1          3.9130   -0.1300   -0.0760 ha        1 EFU      0.146000
     31 H2         -0.8000   -0.4890   -0.2020 ha        1 EFU      0.156000
     32 H3          3.7700   -0.7840   -2.3710 ho        1 EFU      0.225000
     33 H4          3.4470   -0.1620    2.7170 DU        1 EFU      0.268000
     34 H5         -1.3600   -1.1350    3.2140 ha        1 EFU      0.104000
     35 H6         -1.4370    0.4330    2.9210 ha        1 EFU      0.104000
     36 H7         -0.4660    2.0490    4.5110 ha        1 EFU      0.133000
     37 H8          0.3150    0.7100    8.3050 ha        1 EFU      0.130000
     38 H9          0.0180    2.4930    6.7790 ha        1 EFU      0.132000
     39 H10        -0.3590   -1.9730    5.2870 ha        1 EFU      0.140000
     40 H11        -1.2090   -2.0040   -2.8550 h1        1 EFU      0.082000
     41 H12        -2.5090   -1.2320   -3.3680 h1        1 EFU      0.082000
     42 H13        -2.0290   -1.0630   -1.8560 h1        1 EFU      0.082000
     43 H14        -1.1450    1.8970   -3.4810 h1        1 EFU      0.107000
     44 H15        -2.4880    1.0510   -3.7070 h1        1 EFU      0.107000
     45 H16         0.0760    2.5750   -5.3730 ha        1 EFU      0.136750
     46 H17        -0.6620    0.9200   -9.0380 ha        1 EFU      0.136750
     47 H18        -2.0940   -0.6620   -8.0360 ha        1 EFU      0.136750
     48 H19         0.4240    2.5400   -7.7100 ha        1 EFU      0.136750
     49 H20        -2.4460   -0.6320   -5.7010 ha        1 EFU      0.127000
     50 H21         0.7910   -2.5660    7.6100 hc        1 EFU      0.083000
     51 H22         0.3700   -1.5710    8.7990 hc        1 EFU      0.083000
     52 H23        -0.7580   -2.3770    7.9930 hc        1 EFU      0.083000
@<TRIPOS>BOND
     1    1    4 1   
     2    1    6 1   
     3    2    3 1   
     4    3   30 1   
     5    4   31 1   
     6    5   32 1   
     7    6    7 1   
     8    6    8 1   
     9    7   21 1   
    10    7   22 1   
    11    9   10 1   
    12   11   12 1   
    13   12   13 1   
    14   14   15 1   
    15   14   34 1   
    16   14   35 1   
    17   15   16 1   
    18   15   20 1   
    19   16   19 1   
    20   16   36 1   
    21   17   18 1   
    22   17   37 1   
    23   18   29 1   
    24   19   38 1   
    25   20   39 1   
    26   21   40 1   
    27   21   41 1   
    28   21   42 1   
    29   22   23 1   
    30   22   43 1   
    31   22   44 1   
    32   23   28 1   
    33   24   27 1   
    34   24   45 1   
    35   25   26 1   
    36   25   46 1   
    37   26   47 1   
    38   27   48 1   
    39   28   49 1   
    40   29   50 1   
    41   29   51 1   
    42   29   52 1   
@<TRIPOS>SUBSTRUCTURE
     1 EFU         1 TEMP              0 ****  ****    0 ROOT
