@<TRIPOS>MOLECULE
EFU
   53    56     1     0     0
SMALL
bcc


@<TRIPOS>ATOM
      1 C1         -0.7390   -0.6130    0.6790 ca        1 EFU     -0.277600
      2 C2          0.6440   -0.5250    0.3450 ca        1 EFU      0.201100
      3 C3          1.6270   -0.2150    1.2800 ca        1 EFU     -0.233000
      4 C4         -1.1480   -0.3480    2.0030 ca        1 EFU      0.072000
      5 O5          0.9810   -0.7430   -0.9730 oh        1 EFU     -0.548100
      6 C6         -1.8140   -0.9020   -0.2600 c         1 EFU      0.589700
      7 N7         -1.5140   -1.8100   -1.4420 nx        1 EFU     -0.585200
      8 O8         -2.9790   -0.5230   -0.1780 o         1 EFU     -0.457100
      9 C9         -0.2000   -0.0520    2.9590 ca        1 EFU     -0.256900
     10 C10         1.2090    0.0180    2.5990 ca        1 EFU      0.039800
     11 N11         1.8850    0.3400    3.7650 na        1 EFU      0.002900
     12 N12         1.0500    0.4870    4.8110 nc        1 EFU     -0.484100
     13 C13        -0.2150    0.2630    4.3930 cd        1 EFU      0.408900
     14 C14        -1.4320    0.3250    5.2440 c3        1 EFU     -0.051400
     15 C15        -2.1300    1.6360    5.1130 ca        1 EFU     -0.097300
     16 C16        -3.3450    1.7220    4.4260 ca        1 EFU     -0.135000
     17 C17        -3.4640    4.0850    4.9220 ca        1 EFU     -0.119000
     18 C18        -2.2490    4.0090    5.6150 ca        1 EFU     -0.065300
     19 C19        -4.0080    2.9460    4.3330 ca        1 EFU     -0.121000
     20 C20        -1.5870    2.7800    5.7060 ca        1 EFU     -0.118000
     21 C21        -2.4590   -2.9510   -1.4690 c3        1 EFU      0.084100
     22 C22        -1.5770   -1.0050   -2.7160 c3        1 EFU      0.179100
     23 C23        -1.0800   -1.7730   -3.8930 ca        1 EFU     -0.172300
     24 C24         0.2930   -2.0120   -4.0330 ca        1 EFU     -0.105500
     25 C25        -0.1190   -3.1190   -6.1400 ca        1 EFU     -0.085000
     26 C26        -1.4870   -2.8790   -6.0030 ca        1 EFU     -0.119500
     27 C27         0.7700   -2.6860   -5.1540 ca        1 EFU     -0.119500
     28 C28        -1.9710   -2.2090   -4.8790 ca        1 EFU     -0.105500
     29 C29        -1.6820    5.2160    6.2600 c3        1 EFU     -0.060800
     30 H1          2.6860   -0.1440    0.9940 ha        1 EFU      0.166000
     31 H2         -2.2220   -0.3730    2.2640 ha        1 EFU      0.175000
     32 H3          1.9300   -0.5740   -1.0880 ho        1 EFU      0.461000
     33 H4          2.8630    0.4840    3.8850 hn        1 EFU      0.347700
     34 H5         -1.1600    0.1570    6.3240 hc        1 EFU      0.076700
     35 H6         -2.1150   -0.5130    4.9340 hc        1 EFU      0.076700
     36 H7         -3.7860    0.8250    3.9670 ha        1 EFU      0.121000
     37 H8         -3.9910    5.0480    4.8480 ha        1 EFU      0.142000
     38 H9         -4.9670    3.0100    3.7980 ha        1 EFU      0.137000
     39 H10        -0.6330    2.7110    6.2520 ha        1 EFU      0.142000
     40 H11        -2.2990   -3.5380   -2.4140 hx        1 EFU      0.103700
     41 H12        -2.2770   -3.6040   -0.5760 hx        1 EFU      0.103700
     42 H13        -3.5140   -2.5630   -1.4430 hx        1 EFU      0.103700
     43 H14        -0.9270   -0.0950   -2.5500 hx        1 EFU      0.109700
     44 H15        -2.6470   -0.6780   -2.8560 hx        1 EFU      0.109700
     45 H16         0.9930   -1.6520   -3.2620 ha        1 EFU      0.138000
     46 H17         0.2610   -3.6470   -7.0300 ha        1 EFU      0.158000
     47 H18        -2.1870   -3.2140   -6.7850 ha        1 EFU      0.155500
     48 H19         1.8500   -2.8720   -5.2670 ha        1 EFU      0.155500
     49 H20        -3.0500   -2.0120   -4.7810 ha        1 EFU      0.138000
     50 H21        -2.1420    5.3560    7.2720 hc        1 EFU      0.051367
     51 H22        -1.8930    6.1290    5.6510 hc        1 EFU      0.051367
     52 H23        -0.5750    5.1230    6.3890 hc        1 EFU      0.051367
     53 H71        -0.5550   -2.1770   -1.3520 hn        1 EFU      0.464800
@<TRIPOS>BOND
     1    1    2 ar  
     2    1    4 ar  
     3    1    6 1   
     4    2    3 ar  
     5    2    5 1   
     6    3   10 ar  
     7    3   30 1   
     8    4    9 ar  
     9    4   31 1   
    10    5   32 1   
    11    6    7 1   
    12    6    8 2   
    13    7   21 1   
    14    7   22 1   
    15    7   53 1   
    16    9   10 ar  
    17    9   13 1   
    18   10   11 1   
    19   11   12 1   
    20   11   33 1   
    21   12   13 2   
    22   13   14 1   
    23   14   15 1   
    24   14   34 1   
    25   14   35 1   
    26   15   16 ar  
    27   15   20 ar  
    28   16   19 ar  
    29   16   36 1   
    30   17   18 ar  
    31   17   19 ar  
    32   17   37 1   
    33   18   20 ar  
    34   18   29 1   
    35   19   38 1   
    36   20   39 1   
    37   21   40 1   
    38   21   41 1   
    39   21   42 1   
    40   22   23 1   
    41   22   43 1   
    42   22   44 1   
    43   23   24 ar  
    44   23   28 ar  
    45   24   27 ar  
    46   24   45 1   
    47   25   26 ar  
    48   25   27 ar  
    49   25   46 1   
    50   26   28 ar  
    51   26   47 1   
    52   27   48 1   
    53   28   49 1   
    54   29   50 1   
    55   29   51 1   
    56   29   52 1   
@<TRIPOS>SUBSTRUCTURE
     1 EFU         1 TEMP              0 ****  ****    0 ROOT
