@<TRIPOS>MOLECULE
EFU
   53    56     1     0     0
SMALL
bcc


@<TRIPOS>ATOM
      1 C1         -0.5820   -0.5060    0.9220 ca        1 EFU     -0.278600
      2 C2          0.7960   -0.6440    0.5820 ca        1 EFU      0.200100
      3 C3          1.8170   -0.5500    1.5220 ca        1 EFU     -0.233000
      4 C4         -0.9400   -0.2320    2.2590 ca        1 EFU      0.073000
      5 O5          1.0900   -0.8600   -0.7470 oh        1 EFU     -0.548100
      6 C6         -1.6880   -0.5600   -0.0230 c         1 EFU      0.590700
      7 N7         -1.5510   -1.4700   -1.2360 n4        1 EFU     -0.585200
      8 O8         -2.7650    0.0210    0.0700 o         1 EFU     -0.454100
      9 C9          0.0440   -0.1530    3.2210 ca        1 EFU     -0.255900
     10 C10         1.4440   -0.3090    2.8540 ca        1 EFU      0.037800
     11 N11         2.1670   -0.1580    4.0270 na        1 EFU      0.002900
     12 N12         1.3690    0.0790    5.0850 nc        1 EFU     -0.487100
     13 C13         0.0820    0.0920    4.6690 cd        1 EFU      0.406900
     14 C14        -1.0980    0.2870    5.5490 c3        1 EFU     -0.055400
     15 C15        -1.9900    1.3820    5.0710 ca        1 EFU     -0.096300
     16 C16        -3.2540    1.0850    4.5510 ca        1 EFU     -0.146000
     17 C17        -3.6890    3.4430    4.2480 ca        1 EFU     -0.121000
     18 C18        -2.4270    3.7520    4.7710 ca        1 EFU     -0.063300
     19 C19        -4.0990    2.1160    4.1420 ca        1 EFU     -0.122000
     20 C20        -1.5830    2.7150    5.1810 ca        1 EFU     -0.120000
     21 C21        -2.6820   -2.4270   -1.2920 c3        1 EFU      0.084100
     22 C22        -1.4730   -0.6280   -2.4830 c3        1 EFU      0.179100
     23 C23        -1.1170   -1.4340   -3.6860 ca        1 EFU     -0.172300
     24 C24         0.1940   -1.9040   -3.8390 ca        1 EFU     -0.106000
     25 C25        -0.4030   -2.8570   -5.9770 ca        1 EFU     -0.086000
     26 C26        -1.7080   -2.3860   -5.8270 ca        1 EFU     -0.119500
     27 C27         0.5480   -2.6160   -4.9830 ca        1 EFU     -0.119500
     28 C28        -2.0680   -1.6770   -4.6810 ca        1 EFU     -0.106000
     29 C29        -2.0010    5.1640    4.9090 c3        1 EFU     -0.060800
     30 H1          2.8720   -0.6490    1.2320 ha        1 EFU      0.166000
     31 H2         -2.0010   -0.0730    2.5300 ha        1 EFU      0.182000
     32 H3          2.0540   -0.8510   -0.8620 ho        1 EFU      0.461000
     33 H4          3.1540   -0.1940    4.1460 hn        1 EFU      0.347700
     34 H5         -0.7680    0.5170    6.6010 hc        1 EFU      0.083200
     35 H6         -1.6620   -0.6880    5.5850 hc        1 EFU      0.083200
     36 H7         -3.5930    0.0410    4.4840 ha        1 EFU      0.126000
     37 H8         -4.3610    4.2550    3.9270 ha        1 EFU      0.142000
     38 H9         -5.0970    1.8810    3.7430 ha        1 EFU      0.138000
     39 H10        -0.5930    2.9510    5.6020 ha        1 EFU      0.140000
     40 H11        -2.6270   -3.0040   -2.2540 hx        1 EFU      0.103700
     41 H12        -2.6160   -3.1290   -0.4190 hx        1 EFU      0.103700
     42 H13        -3.6520   -1.8620   -1.2470 hx        1 EFU      0.103700
     43 H14        -0.6750    0.1500   -2.2930 hx        1 EFU      0.109700
     44 H15        -2.4700   -0.1160   -2.6090 hx        1 EFU      0.109700
     45 H16         0.9450   -1.6950   -3.0610 ha        1 EFU      0.137500
     46 H17        -0.1200   -3.4150   -6.8850 ha        1 EFU      0.158000
     47 H18        -2.4550   -2.5700   -6.6150 ha        1 EFU      0.155500
     48 H19         1.5790   -2.9830   -5.1060 ha        1 EFU      0.155500
     49 H20        -3.0970   -1.2990   -4.5720 ha        1 EFU      0.137500
     50 H21        -2.3670    5.5760    5.8840 hc        1 EFU      0.052033
     51 H22        -2.4230    5.7910    4.0860 hc        1 EFU      0.052033
     52 H23        -0.8870    5.2540    4.8880 hc        1 EFU      0.052033
     53 H71        -0.6720   -2.0020   -1.1620 hn        1 EFU      0.464800
@<TRIPOS>BOND
     1    1    2 ar  
     2    1    4 ar  
     3    1    6 1   
     4    2    3 ar  
     5    2    5 1   
     6    3   10 ar  
     7    3   30 1   
     8    4    9 ar  
     9    4   31 1   
    10    5   32 1   
    11    6    7 1   
    12    6    8 2   
    13    7   21 1   
    14    7   22 1   
    15    7   53 1   
    16    9   10 ar  
    17    9   13 1   
    18   10   11 1   
    19   11   12 1   
    20   11   33 1   
    21   12   13 2   
    22   13   14 1   
    23   14   15 1   
    24   14   34 1   
    25   14   35 1   
    26   15   16 ar  
    27   15   20 ar  
    28   16   19 ar  
    29   16   36 1   
    30   17   18 ar  
    31   17   19 ar  
    32   17   37 1   
    33   18   20 ar  
    34   18   29 1   
    35   19   38 1   
    36   20   39 1   
    37   21   40 1   
    38   21   41 1   
    39   21   42 1   
    40   22   23 1   
    41   22   43 1   
    42   22   44 1   
    43   23   24 ar  
    44   23   28 ar  
    45   24   27 ar  
    46   24   45 1   
    47   25   26 ar  
    48   25   27 ar  
    49   25   46 1   
    50   26   28 ar  
    51   26   47 1   
    52   27   48 1   
    53   28   49 1   
    54   29   50 1   
    55   29   51 1   
    56   29   52 1   
@<TRIPOS>SUBSTRUCTURE
     1 EFU         1 TEMP              0 ****  ****    0 ROOT
