@<TRIPOS>MOLECULE
EFU
   52    55     1     0     0
SMALL
bcc


@<TRIPOS>ATOM
      1 C1         -0.8860    0.8080    0.6030 ca        1 EFU     -0.245600
      2 C2         -0.8610    2.1740    0.9990 ca        1 EFU      0.213100
      3 C3          0.2560    2.9920    0.7770 ca        1 EFU     -0.196000
      4 C4          0.2410    0.2240    0.0240 ca        1 EFU      0.006000
      5 O5         -1.9200    2.8070    1.5940 oh        1 EFU     -0.503100
      6 C6         -2.0990   -0.0110    0.8750 c         1 EFU      0.682700
      7 N7         -2.5540   -0.9090   -0.0800 n         1 EFU     -0.458800
      8 O8         -2.6890    0.0820    1.9780 o         1 EFU     -0.636100
      9 C9          1.3700    0.9980   -0.1900 ca        1 EFU     -0.255900
     10 C10         1.3670    2.3980    0.1780 ca        1 EFU     -0.000200
     11 N11         2.6100    2.9100   -0.2320 na        1 EFU     -0.016100
     12 N12         3.4030    1.9390   -0.7210 nc        1 EFU     -0.514100
     13 C13         2.7060    0.7820   -0.7550 cd        1 EFU      0.375900
     14 C14         3.2030   -0.5090   -1.2920 c3        1 EFU     -0.042400
     15 C15         4.3170   -1.0760   -0.4790 ca        1 EFU     -0.080300
     16 C16         4.0840   -2.1500    0.3870 ca        1 EFU     -0.127000
     17 C17         6.4190   -2.1630    1.0120 ca        1 EFU     -0.128000
     18 C18         6.6640   -1.0880    0.1490 ca        1 EFU     -0.077300
     19 C19         5.1350   -2.6890    1.1280 ca        1 EFU     -0.127000
     20 C20         5.6080   -0.5490   -0.5930 ca        1 EFU     -0.114000
     21 C21        -2.1670   -0.8310   -1.4600 c3        1 EFU      0.072300
     22 C22        -3.6890   -1.7590    0.2220 c3        1 EFU      0.133300
     23 C23        -5.0250   -1.2070   -0.1890 ca        1 EFU     -0.120300
     24 C24        -5.6520   -0.2440    0.6080 ca        1 EFU     -0.115500
     25 C25        -7.5350   -0.2110   -0.9060 ca        1 EFU     -0.123000
     26 C26        -6.9100   -1.1690   -1.7040 ca        1 EFU     -0.133500
     27 C27        -6.9040    0.2520    0.2500 ca        1 EFU     -0.133500
     28 C28        -5.6560   -1.6660   -1.3490 ca        1 EFU     -0.115500
     29 C29         8.0310   -0.5340    0.0130 c3        1 EFU     -0.053800
     30 H1          0.2360    4.0470    1.0760 ha        1 EFU      0.163000
     31 H2          0.2390   -0.8420   -0.2570 ha        1 EFU      0.147000
     32 H3         -2.5480    2.1450    1.9300 ho        1 EFU      0.456000
     33 H4          3.0310    3.7360    0.1270 hn        1 EFU      0.319700
     34 H5          2.3420   -1.2320   -1.3190 hc        1 EFU      0.062700
     35 H6          3.5540   -0.3620   -2.3510 hc        1 EFU      0.062700
     36 H7          3.0720   -2.5680    0.4850 ha        1 EFU      0.129000
     37 H8          7.2450   -2.5900    1.6000 ha        1 EFU      0.131000
     38 H9          4.9470   -3.5320    1.8090 ha        1 EFU      0.131000
     39 H10         5.7900    0.3030   -1.2660 ha        1 EFU      0.142000
     40 H11        -1.4760   -1.6830   -1.7070 h1        1 EFU      0.045700
     41 H12        -3.0780   -0.9090   -2.1170 h1        1 EFU      0.045700
     42 H13        -1.6470    0.1370   -1.6860 h1        1 EFU      0.045700
     43 H14        -3.5160   -2.7440   -0.3000 h1        1 EFU      0.069700
     44 H15        -3.7040   -1.9450    1.3370 h1        1 EFU      0.069700
     45 H16        -5.1430    0.1170    1.5180 ha        1 EFU      0.141000
     46 H17        -8.5240    0.1790   -1.1870 ha        1 EFU      0.132000
     47 H18        -7.4060   -1.5350   -2.6150 ha        1 EFU      0.132500
     48 H19        -7.3950    1.0080    0.8800 ha        1 EFU      0.132500
     49 H20        -5.1670   -2.4220   -1.9800 ha        1 EFU      0.141000
     50 H21         8.5850   -1.0790   -0.7930 hc        1 EFU      0.044367
     51 H22         7.9990    0.5510   -0.2560 hc        1 EFU      0.044367
     52 H23         8.6040   -0.6450    0.9670 hc        1 EFU      0.044367
@<TRIPOS>BOND
     1    1    2 ar  
     2    1    4 ar  
     3    1    6 1   
     4    2    3 ar  
     5    2    5 1   
     6    3   10 ar  
     7    3   30 1   
     8    4    9 ar  
     9    4   31 1   
    10    5   32 1   
    11    6    7 1   
    12    6    8 2   
    13    7   21 1   
    14    7   22 1   
    15    9   10 ar  
    16    9   13 1   
    17   10   11 1   
    18   11   12 1   
    19   11   33 1   
    20   12   13 2   
    21   13   14 1   
    22   14   15 1   
    23   14   34 1   
    24   14   35 1   
    25   15   16 ar  
    26   15   20 ar  
    27   16   19 ar  
    28   16   36 1   
    29   17   18 ar  
    30   17   19 ar  
    31   17   37 1   
    32   18   20 ar  
    33   18   29 1   
    34   19   38 1   
    35   20   39 1   
    36   21   40 1   
    37   21   41 1   
    38   21   42 1   
    39   22   23 1   
    40   22   43 1   
    41   22   44 1   
    42   23   24 ar  
    43   23   28 ar  
    44   24   27 ar  
    45   24   45 1   
    46   25   26 ar  
    47   25   27 ar  
    48   25   46 1   
    49   26   28 ar  
    50   26   47 1   
    51   27   48 1   
    52   28   49 1   
    53   29   50 1   
    54   29   51 1   
    55   29   52 1   
@<TRIPOS>SUBSTRUCTURE
     1 EFU         1 TEMP              0 ****  ****    0 ROOT
