@<TRIPOS>MOLECULE
EFZ
   30    29     1     0     0
SMALL
bcc


@<TRIPOS>ATOM
      1 CL         -4.1910   -0.7200   -0.2910 cl        1 EFZ      0.004000
      2 F1          2.3810   -1.6790    1.9380 f         1 EFZ     -0.153000
      3 F2          0.8640   -2.9320    0.9680 f         1 EFZ     -0.153000
      4 F3          0.2550   -1.3530    2.3620 f         1 EFZ     -0.153000
      5 O1          3.5510   -1.8600   -1.9710 o         1 EFZ     -0.307000
      6 O2          2.2920   -0.6980   -0.4710 os        1 EFZ     -0.217000
      7 N           1.2990   -1.8940   -2.3630 n         1 EFZ     -0.328000
      8 C1         -0.0240   -1.6010   -1.8660 c2        1 EFZ      0.115000
      9 C2         -1.1560   -1.9320   -2.6360 c2        1 EFZ     -0.172000
     10 C3         -2.4320   -1.6630   -2.1490 c1        1 EFZ     -0.068000
     11 C4         -2.5900   -1.0660   -0.8970 c1        1 EFZ     -0.096000
     12 C5         -1.4710   -0.7380   -0.1340 c1        1 EFZ     -0.053000
     13 C6         -0.1810   -1.0090   -0.6260 c1        1 EFZ     -0.168000
     14 C7          1.0630   -0.6920    0.2440 c3        1 EFZ      0.262000
     15 C8          0.8800    0.6190    1.0090 c1        1 EFZ     -0.231000
     16 C9          0.7350    1.6530    1.6130 c1        1 EFZ     -0.013000
     17 C10         0.5610    2.9010    2.3420 cu        1 EFZ     -0.095000
     18 C11         0.3320    3.8640    1.1960 cx        1 EFZ     -0.186500
     19 C12        -0.8210    3.3070    1.8740 cx        1 EFZ     -0.186500
     20 C13         1.1430   -1.6970    1.4170 c3        1 EFZ      0.413000
     21 C14         2.4400   -1.5140   -1.6100 c2        1 EFZ      0.411000
     22 HN          1.4020   -2.3150   -3.1720 hn        1 EFZ      0.270000
     23 H2         -1.0460   -2.3520   -3.5170 ha        1 EFZ      0.149000
     24 H3         -3.2210   -1.8910   -2.6860 ha        1 EFZ      0.156000
     25 H5         -1.5830   -0.3430    0.7560 ha        1 EFZ      0.170000
     26 H101        1.1080    2.7420    3.1420 ha        1 EFZ      0.143000
     27 H111        0.5100    3.5070    0.3000 hc        1 EFZ      0.121250
     28 H112        0.5230    4.8090    1.3890 hc        1 EFZ      0.121250
     29 H121       -1.3170    2.6240    1.3750 hc        1 EFZ      0.121250
     30 H122       -1.3070    3.9240    2.4650 hc        1 EFZ      0.121250
@<TRIPOS>BOND
     1    1   11 1   
     2    2   20 1   
     3    3   20 1   
     4    4   20 1   
     5    5   21 1   
     6    6   14 1   
     7    6   21 1   
     8    7    8 1   
     9    7   21 1   
    10    7   22 1   
    11    8    9 1   
    12    8   13 1   
    13    9   10 1   
    14    9   23 1   
    15   10   24 1   
    16   11   12 1   
    17   12   25 1   
    18   13   14 1   
    19   14   15 1   
    20   14   20 1   
    21   15   16 1   
    22   17   18 1   
    23   17   19 1   
    24   17   26 1   
    25   18   19 1   
    26   18   27 1   
    27   18   28 1   
    28   19   29 1   
    29   19   30 1   
@<TRIPOS>SUBSTRUCTURE
     1 EFZ         1 TEMP              0 ****  ****    0 ROOT
