@<TRIPOS>MOLECULE
EFZ
   30    32     1     0     0
SMALL
bcc


@<TRIPOS>ATOM
      1 CL         -0.0820   -0.6590   -0.0340 cl        1 EFZ     -0.075400
      2 F1          3.7180   -0.8160    3.1980 f         1 EFZ     -0.223967
      3 F2          4.8340   -2.4340    2.2680 f         1 EFZ     -0.223967
      4 F3          5.8850   -0.8580    3.3290 f         1 EFZ     -0.223967
      5 O1          7.8120   -1.0540   -0.8050 o         1 EFZ     -0.581500
      6 O2          6.3120   -0.5340    0.6960 os        1 EFZ     -0.378900
      7 N           5.5920   -1.2750   -1.4810 n         1 EFZ     -0.475100
      8 C1          4.2470   -1.1530   -1.1400 ca        1 EFZ      0.107600
      9 C2          3.2300   -1.5160   -2.0530 ca        1 EFZ     -0.172000
     10 C3          1.8960   -1.3640   -1.7050 ca        1 EFZ     -0.068000
     11 C4          1.5520   -0.8500   -0.4490 ca        1 EFZ     -0.017600
     12 C5          2.5440   -0.4910    0.4640 ca        1 EFZ     -0.055000
     13 C6          3.8920   -0.6490    0.1330 ca        1 EFZ     -0.174300
     14 C7          4.9620   -0.2390    1.1050 c3        1 EFZ      0.313200
     15 C8          4.8820    1.1720    1.4010 c1        1 EFZ     -0.204100
     16 C9          4.8380    2.3460    1.6300 c1        1 EFZ      0.013900
     17 C10         4.8010    3.7320    1.9060 cx        1 EFZ     -0.078600
     18 C11         3.6270    4.5710    1.4500 cx        1 EFZ     -0.110900
     19 C12         3.8090    4.2840    2.9070 cx        1 EFZ     -0.110900
     20 C13         4.8470   -1.0800    2.4690 c3        1 EFZ      0.628900
     21 C14         6.6010   -0.9650   -0.5800 c         1 EFZ      0.843600
     22 HN          5.8510   -1.6220   -2.3770 hn        1 EFZ      0.356500
     23 H2          3.4920   -1.9180   -3.0440 ha        1 EFZ      0.149000
     24 H3          1.1080   -1.6490   -2.4210 ha        1 EFZ      0.157000
     25 H5          2.2730   -0.0870    1.4550 ha        1 EFZ      0.170000
     26 H101        5.8140    4.1930    1.8710 hc        1 EFZ      0.109700
     27 H111        3.8330    5.5870    1.0670 hc        1 EFZ      0.080700
     28 H112        2.7990    4.0840    0.9050 hc        1 EFZ      0.080700
     29 H121        3.1120    3.5890    3.4100 hc        1 EFZ      0.080700
     30 H122        4.1480    5.0900    3.5820 hc        1 EFZ      0.080700
@<TRIPOS>BOND
     1    1   11 1   
     2    2   20 1   
     3    3   20 1   
     4    4   20 1   
     5    5   21 2   
     6    6   14 1   
     7    6   21 1   
     8    7    8 1   
     9    7   21 1   
    10    7   22 1   
    11    8    9 ar  
    12    8   13 ar  
    13    9   10 ar  
    14    9   23 1   
    15   10   11 ar  
    16   10   24 1   
    17   11   12 ar  
    18   12   13 ar  
    19   12   25 1   
    20   13   14 1   
    21   14   15 1   
    22   14   20 1   
    23   15   16 3   
    24   16   17 1   
    25   17   18 1   
    26   17   19 1   
    27   17   26 1   
    28   18   19 1   
    29   18   27 1   
    30   18   28 1   
    31   19   29 1   
    32   19   30 1   
@<TRIPOS>SUBSTRUCTURE
     1 EFZ         1 TEMP              0 ****  ****    0 ROOT
