@<TRIPOS>MOLECULE
EFZ
   30    32     1     0     0
SMALL
bcc


@<TRIPOS>ATOM
      1 CL         -0.0150   -1.3020    0.9240 cl        1 EFZ     -0.074400
      2 F1          6.5220   -0.1410    2.6410 f         1 EFZ     -0.224300
      3 F2          5.6090   -1.9960    1.9780 f         1 EFZ     -0.224300
      4 F3          4.4270   -0.5270    3.0610 f         1 EFZ     -0.224300
      5 O1          7.3970   -0.5380   -1.8230 o         1 EFZ     -0.582500
      6 O2          6.2270   -0.0550   -0.0430 os        1 EFZ     -0.378900
      7 N           5.1720   -1.2320   -1.8620 n         1 EFZ     -0.474100
      8 C1          3.9460   -1.2720   -1.2020 ca        1 EFZ      0.107600
      9 C2          2.8270   -1.9100   -1.7840 ca        1 EFZ     -0.172000
     10 C3          1.6090   -1.9190   -1.1210 ca        1 EFZ     -0.068000
     11 C4          1.4820   -1.2940    0.1250 ca        1 EFZ     -0.017600
     12 C5          2.5780   -0.6640    0.7140 ca        1 EFZ     -0.053000
     13 C6          3.8150   -0.6570    0.0650 ca        1 EFZ     -0.175300
     14 C7          4.9900    0.0400    0.6900 c3        1 EFZ      0.314200
     15 C8          4.7100    1.4390    0.9080 c1        1 EFZ     -0.204100
     16 C9          4.4940    2.6060    1.0660 c1        1 EFZ      0.013900
     17 C10         4.2090    3.9780    1.2580 cx        1 EFZ     -0.082600
     18 C11         5.2790    5.0160    0.9920 cx        1 EFZ     -0.107900
     19 C12         4.8560    4.7340    2.3990 cx        1 EFZ     -0.107900
     20 C13         5.3810   -0.6510    2.0870 c3        1 EFZ      0.626900
     21 C14         6.2820   -0.6220   -1.2960 c         1 EFZ      0.843600
     22 HN          5.2730   -1.6580   -2.7560 hn        1 EFZ      0.356500
     23 H2          2.9170   -2.4010   -2.7660 ha        1 EFZ      0.149000
     24 H3          0.7410   -2.4190   -1.5810 ha        1 EFZ      0.156000
     25 H5          2.4800   -0.1730    1.6980 ha        1 EFZ      0.170000
     26 H101        3.1590    4.2340    0.9940 hc        1 EFZ      0.103700
     27 H111        4.9730    5.9630    0.5110 hc        1 EFZ      0.081950
     28 H112        6.2760    4.6820    0.6530 hc        1 EFZ      0.081950
     29 H121        4.2430    5.4760    2.9410 hc        1 EFZ      0.081950
     30 H122        5.5490    4.1980    3.0710 hc        1 EFZ      0.081950
@<TRIPOS>BOND
     1    1   11 1   
     2    2   20 1   
     3    3   20 1   
     4    4   20 1   
     5    5   21 2   
     6    6   14 1   
     7    6   21 1   
     8    7    8 1   
     9    7   21 1   
    10    7   22 1   
    11    8    9 ar  
    12    8   13 ar  
    13    9   10 ar  
    14    9   23 1   
    15   10   11 ar  
    16   10   24 1   
    17   11   12 ar  
    18   12   13 ar  
    19   12   25 1   
    20   13   14 1   
    21   14   15 1   
    22   14   20 1   
    23   15   16 3   
    24   16   17 1   
    25   17   18 1   
    26   17   19 1   
    27   17   26 1   
    28   18   19 1   
    29   18   27 1   
    30   18   28 1   
    31   19   29 1   
    32   19   30 1   
@<TRIPOS>SUBSTRUCTURE
     1 EFZ         1 TEMP              0 ****  ****    0 ROOT
