@<TRIPOS>MOLECULE
EFZ
   30    32     1     0     0
SMALL
bcc


@<TRIPOS>ATOM
      1 Cl         -0.0910   -0.9030   -0.0040 cl        1 EFZ     -0.074400
      2 F1          5.9130   -1.2080    3.2970 f         1 EFZ     -0.224300
      3 F2          5.0250   -2.6830    1.9740 f         1 EFZ     -0.224300
      4 F3          3.7520   -1.3640    3.1450 f         1 EFZ     -0.224300
      5 O1          7.8040   -0.6290   -0.8180 o         1 EFZ     -0.582500
      6 O2          6.2870   -0.4210    0.7390 os        1 EFZ     -0.378900
      7 N           5.6010   -0.9480   -1.5110 ns        1 EFZ     -0.474100
      8 C1          4.2530   -0.9610   -1.1600 ca        1 EFZ      0.107600
      9 C2          3.2560   -1.2590   -2.1160 ca        1 EFZ     -0.172000
     10 C3          1.9170   -1.2430   -1.7520 ca        1 EFZ     -0.068000
     11 C4          1.5500   -0.9290   -0.4380 ca        1 EFZ     -0.017600
     12 C5          2.5230   -0.6360    0.5170 ca        1 EFZ     -0.053000
     13 C6          3.8760   -0.6600    0.1700 ca        1 EFZ     -0.175300
     14 C7          4.9230   -0.3240    1.1940 c3        1 EFZ      0.314200
     15 C8          4.7270    1.0050    1.7230 c1        1 EFZ     -0.204100
     16 C9          4.5850    2.1160    2.1460 c1        1 EFZ      0.013900
     17 C10         4.3880    3.4260    2.6410 cx        1 EFZ     -0.082600
     18 C11         4.7590    3.7590    4.0700 cx        1 EFZ     -0.107900
     19 C12         5.5810    4.3060    2.9460 cx        1 EFZ     -0.107900
     20 C13         4.8990   -1.3880    2.3980 c3        1 EFZ      0.626900
     21 C14         6.5920   -0.6690   -0.5810 c         1 EFZ      0.843600
     22 HN          5.8770   -1.1540   -2.4450 hn        1 EFZ      0.356500
     23 H2          3.5350   -1.5030   -3.1520 ha        1 EFZ      0.149000
     24 H3          1.1440   -1.4780   -2.5020 ha        1 EFZ      0.156000
     25 H5          2.2350   -0.3910    1.5540 ha        1 EFZ      0.170000
     26 H101        3.4820    3.9090    2.2130 hc        1 EFZ      0.103700
     27 H111        4.0910    4.4350    4.6340 hc        1 EFZ      0.081950
     28 H112        5.1840    2.9670    4.7110 hc        1 EFZ      0.081950
     29 H121        6.5970    3.9050    2.7790 hc        1 EFZ      0.081950
     30 H122        5.5110    5.3780    2.6930 hc        1 EFZ      0.081950
@<TRIPOS>BOND
     1    1   11 1   
     2    2   20 1   
     3    3   20 1   
     4    4   20 1   
     5    5   21 2   
     6    6   14 1   
     7    6   21 1   
     8    7    8 1   
     9    7   21 1   
    10    7   22 1   
    11    8    9 ar  
    12    8   13 ar  
    13    9   10 ar  
    14    9   23 1   
    15   10   11 ar  
    16   10   24 1   
    17   11   12 ar  
    18   12   13 ar  
    19   12   25 1   
    20   13   14 1   
    21   14   15 1   
    22   14   20 1   
    23   15   16 3   
    24   16   17 1   
    25   17   18 1   
    26   17   19 1   
    27   17   26 1   
    28   18   19 1   
    29   18   27 1   
    30   18   28 1   
    31   19   29 1   
    32   19   30 1   
@<TRIPOS>SUBSTRUCTURE
     1 EFZ         1 TEMP              0 ****  ****    0 ROOT
