@<TRIPOS>MOLECULE
EFZ
   30    32     1     0     0
SMALL
bcc


@<TRIPOS>ATOM
      1 CL          1.8050   -4.1500    0.6700 cl        1 EFZ     -0.074400
      2 F1         -1.1730    1.7980    2.3380 f         1 EFZ     -0.224300
      3 F2          0.9160    1.2360    2.5250 f         1 EFZ     -0.224300
      4 F3         -0.6370   -0.2810    2.6610 f         1 EFZ     -0.224300
      5 O1          1.0030    3.5020   -1.2970 o         1 EFZ     -0.582500
      6 O2         -0.0000    1.9840   -0.0890 os        1 EFZ     -0.378900
      7 N           2.0380    1.4130   -1.2440 n         1 EFZ     -0.474100
      8 C1          2.0030    0.1010   -0.7790 ca        1 EFZ      0.107600
      9 C2          3.0260   -0.8160   -1.1120 ca        1 EFZ     -0.172000
     10 C3          2.9610   -2.1250   -0.6580 ca        1 EFZ     -0.068000
     11 C4          1.8810   -2.5440    0.1280 ca        1 EFZ     -0.017600
     12 C5          0.8660   -1.6500    0.4670 ca        1 EFZ     -0.053000
     13 C6          0.9220   -0.3250    0.0280 ca        1 EFZ     -0.175300
     14 C7         -0.1820    0.6320    0.3770 c3        1 EFZ      0.314200
     15 C8         -1.4540    0.1620   -0.1170 c1        1 EFZ     -0.204100
     16 C9         -2.5080   -0.2100   -0.5480 c1        1 EFZ      0.013900
     17 C10        -3.7430   -0.6780   -1.0520 cx        1 EFZ     -0.082600
     18 C11        -5.0300   -0.3590   -0.3220 cx        1 EFZ     -0.107900
     19 C12        -4.7420    0.3010   -1.6330 cx        1 EFZ     -0.107900
     20 C13        -0.2700    0.8410    1.9680 c3        1 EFZ      0.626900
     21 C14         1.0470    2.3280   -0.9160 c         1 EFZ      0.843600
     22 HN          2.7900    1.7210   -1.8170 hn        1 EFZ      0.356500
     23 H2          3.8770   -0.4960   -1.7330 ha        1 EFZ      0.149000
     24 H3          3.7630   -2.8340   -0.9200 ha        1 EFZ      0.156000
     25 H5          0.0140   -1.9790    1.0890 ha        1 EFZ      0.170000
     26 H101       -3.6540   -1.6770   -1.5350 hc        1 EFZ      0.103700
     27 H111       -5.8030   -1.1470   -0.2680 hc        1 EFZ      0.081950
     28 H112       -4.9850    0.2420    0.6040 hc        1 EFZ      0.081950
     29 H121       -4.4890    1.3760   -1.6490 hc        1 EFZ      0.081950
     30 H122       -5.3050   -0.0070   -2.5320 hc        1 EFZ      0.081950
@<TRIPOS>BOND
     1    1   11 1   
     2    2   20 1   
     3    3   20 1   
     4    4   20 1   
     5    5   21 2   
     6    6   14 1   
     7    6   21 1   
     8    7    8 1   
     9    7   21 1   
    10    7   22 1   
    11    8    9 ar  
    12    8   13 ar  
    13    9   10 ar  
    14    9   23 1   
    15   10   11 ar  
    16   10   24 1   
    17   11   12 ar  
    18   12   13 ar  
    19   12   25 1   
    20   13   14 1   
    21   14   15 1   
    22   14   20 1   
    23   15   16 3   
    24   16   17 1   
    25   17   18 1   
    26   17   19 1   
    27   17   26 1   
    28   18   19 1   
    29   18   27 1   
    30   18   28 1   
    31   19   29 1   
    32   19   30 1   
@<TRIPOS>SUBSTRUCTURE
     1 EFZ         1 TEMP              0 ****  ****    0 ROOT
