@<TRIPOS>MOLECULE
EG1
   50    50     1     0     0
SMALL
bcc


@<TRIPOS>ATOM
      1 S           1.2810   -1.3270   -6.7750 sy        1 EG1      1.525200
      2 O1          1.9690   -2.4690   -6.3140 o         1 EG1     -0.654300
      3 O2          0.5100   -1.4470   -7.9490 o         1 EG1     -0.654300
      4 N1          2.3190   -0.1200   -6.9480 n3        1 EG1     -1.027700
      5 C1         -1.4200    0.0910   -3.4630 ca        1 EG1     -0.077600
      6 C2         -1.7130    0.4150   -4.7920 ca        1 EG1     -0.121000
      7 C3         -0.8700   -0.0210   -5.8120 ca        1 EG1     -0.027500
      8 C4          0.2680   -0.7820   -5.5270 ca        1 EG1     -0.361500
      9 C5          0.5360   -1.1190   -4.1950 ca        1 EG1     -0.027500
     10 C6         -0.2970   -0.6880   -3.1650 ca        1 EG1     -0.121000
     11 O3         -3.5860    0.6010   -2.5880 o         1 EG1     -0.594100
     12 N2         -1.7890    1.0430   -1.2270 n         1 EG1     -0.548900
     13 C8         -2.5860    1.3920   -0.0850 c3        1 EG1      0.084000
     14 C9         -2.6430    0.3220    1.0140 c3        1 EG1      0.098400
     15 O4         -1.3130    0.1510    1.4980 os        1 EG1     -0.437600
     16 C10        -1.2430   -0.7890    2.5680 c3        1 EG1      0.127400
     17 C11         0.1810   -0.7260    3.1110 c3        1 EG1      0.127400
     18 O5          0.1140   -0.0210    4.3480 os        1 EG1     -0.435600
     19 C12         1.4050    0.2540    4.8860 c3        1 EG1      0.099400
     20 C13         1.1890    1.0400    6.1870 c3        1 EG1      0.085000
     21 N3          0.4910    0.3250    7.2160 n         1 EG1     -0.553900
     22 C14         1.1420   -0.2470    8.2910 c         1 EG1      0.602100
     23 O6          2.3540   -0.0400    8.5090 o         1 EG1     -0.622100
     24 C15         0.2940   -1.1050    9.2460 c3        1 EG1      0.089800
     25 N4          0.9820   -1.6100   10.3990 n3        1 EG1     -0.885800
     26 HN11        3.1780   -0.0620   -6.4610 hn        1 EG1      0.449300
     27 HN12        2.1850    0.6320   -7.5750 hn        1 EG1      0.449300
     28 H2         -2.6190    0.9990   -5.0200 ha        1 EG1      0.153500
     29 H3         -1.1150    0.2170   -6.8620 ha        1 EG1      0.158000
     30 H5          1.4110   -1.7520   -3.9630 ha        1 EG1      0.158000
     31 H6         -0.0720   -0.9830   -2.1290 ha        1 EG1      0.153500
     32 HN2        -0.8300    0.8560   -1.0480 hn        1 EG1      0.316500
     33 H81        -3.6440    1.5980   -0.4180 h1        1 EG1      0.076200
     34 H82        -2.1500    2.3320    0.3590 h1        1 EG1      0.076200
     35 H91        -3.0320   -0.6550    0.6240 h1        1 EG1      0.041200
     36 H92        -3.3080    0.6820    1.8440 h1        1 EG1      0.041200
     37 H101       -1.4650   -1.8150    2.1710 h1        1 EG1      0.045200
     38 H102       -1.9850   -0.5250    3.3670 h1        1 EG1      0.045200
     39 H111        0.8570   -0.1890    2.3940 h1        1 EG1      0.043700
     40 H112        0.5750   -1.7600    3.2970 h1        1 EG1      0.043700
     41 H121        1.9910    0.8850    4.1670 h1        1 EG1      0.039200
     42 H122        1.9520   -0.7080    5.0670 h1        1 EG1      0.039200
     43 H131        0.5910    1.9650    5.9440 h1        1 EG1      0.074200
     44 H132        2.2030    1.3490    6.5730 h1        1 EG1      0.074200
     45 HN3        -0.4170   -0.0020    6.9800 hn        1 EG1      0.314500
     46 H151       -0.1050   -1.9820    8.6610 h1        1 EG1      0.072700
     47 H152       -0.5800   -0.4860    9.5970 h1        1 EG1      0.072700
     48 HN41        1.7680   -2.1700   10.1280 hn        1 EG1      0.360300
     49 HN42        1.3160   -0.8570   10.9720 hn        1 EG1      0.360300
     50 C7         -2.3530    0.5690   -2.3970 c         1 EG1      0.655700
@<TRIPOS>BOND
     1    1    2 2   
     2    1    3 2   
     3    1    4 1   
     4    1    8 1   
     5    4   26 1   
     6    4   27 1   
     7    5    6 ar  
     8    5   10 ar  
     9    5   50 1   
    10    6    7 ar  
    11    6   28 1   
    12    7    8 ar  
    13    7   29 1   
    14    8    9 ar  
    15    9   10 ar  
    16    9   30 1   
    17   10   31 1   
    18   11   50 2   
    19   12   13 1   
    20   12   32 1   
    21   12   50 1   
    22   13   14 1   
    23   13   33 1   
    24   13   34 1   
    25   14   15 1   
    26   14   35 1   
    27   14   36 1   
    28   15   16 1   
    29   16   17 1   
    30   16   37 1   
    31   16   38 1   
    32   17   18 1   
    33   17   39 1   
    34   17   40 1   
    35   18   19 1   
    36   19   20 1   
    37   19   41 1   
    38   19   42 1   
    39   20   21 1   
    40   20   43 1   
    41   20   44 1   
    42   21   22 1   
    43   21   45 1   
    44   22   23 2   
    45   22   24 1   
    46   24   25 1   
    47   24   46 1   
    48   24   47 1   
    49   25   48 1   
    50   25   49 1   
@<TRIPOS>SUBSTRUCTURE
     1 EG1         1 TEMP              0 ****  ****    0 ROOT
