@<TRIPOS>MOLECULE
EG1
   50    46     1     0     0
SMALL
bcc


@<TRIPOS>ATOM
      1 S           2.0280   -9.3610    2.1640 ss        1 EG1      2.864000
      2 O1          3.3350   -9.0660    2.5820 o         1 EG1     -0.934000
      3 O2          1.5060  -10.0670    3.3330 o         1 EG1     -0.934000
      4 N1          2.0320  -10.3230    0.8450 n2        1 EG1     -0.953000
      5 C1         -0.2630   -5.4640    1.6610 c1        1 EG1     -0.062000
      6 C2         -0.9470   -6.6310    1.9740 c1        1 EG1     -0.110000
      7 C3         -0.2470   -7.8550    2.0630 c1        1 EG1     -0.027000
      8 C4          1.1150   -7.8880    1.8400 c1        1 EG1     -0.806000
      9 C5          1.8060   -6.6910    1.5210 c2        1 EG1     -0.027000
     10 C6          1.1230   -5.5000    1.4340 c1        1 EG1     -0.133000
     11 C7         -1.0350   -4.1430    1.4820 c2        1 EG1      0.333000
     12 O3         -2.2700   -4.1180    1.6170 o         1 EG1     -0.349000
     13 N2         -0.3240   -2.9350    1.1510 n         1 EG1     -0.371000
     14 C8         -0.9650   -1.9200    0.3800 c3        1 EG1     -0.033000
     15 C9         -0.3770   -0.5330    0.7530 c3        1 EG1     -0.046000
     16 O4         -0.7580    0.4190   -0.2310 os        1 EG1     -0.282000
     17 C10        -0.5890    1.7770    0.1760 c3        1 EG1     -0.023000
     18 C11        -0.6210    2.6940   -1.0630 c3        1 EG1     -0.023000
     19 O5         -0.7020    4.0350   -0.6460 os        1 EG1     -0.282000
     20 C12        -0.3550    4.9780   -1.6450 c3        1 EG1     -0.046000
     21 C13        -0.9590    6.3640   -1.2740 c3        1 EG1     -0.032000
     22 N3         -0.0870    7.4170   -1.7580 n         1 EG1     -0.377000
     23 C14        -0.6580    8.7550   -2.1200 c2        1 EG1      0.250000
     24 O6         -1.8420    8.8660   -2.3520 o         1 EG1     -0.375000
     25 C15         0.2740    9.9650   -2.3010 c3        1 EG1     -0.097000
     26 N4         -0.4010   10.9870   -3.0720 n3        1 EG1     -0.318000
     27 HN11        2.5440  -10.1040    0.1210 hn        1 EG1      0.245500
     28 HN12        1.5690  -11.0940    0.8520 hn        1 EG1      0.245500
     29 H2         -1.8970   -6.6050    2.1290 ha        1 EG1      0.162000
     30 H3         -0.7370   -8.6960    2.2890 ha        1 EG1      0.158000
     31 H5          2.8140   -6.7130    1.3560 ha        1 EG1      0.158000
     32 H6          1.6140   -4.6580    1.2090 ha        1 EG1      0.147000
     33 HN2         0.5570   -2.8210    1.4330 hn        1 EG1      0.225000
     34 H81        -1.9680   -1.9280    0.5760 h1        1 EG1      0.117000
     35 H82        -0.8130   -2.0960   -0.5980 h1        1 EG1      0.117000
     36 H91         0.6070   -0.5900    0.7900 h1        1 EG1      0.073000
     37 H92        -0.7200   -0.2590    1.6200 h1        1 EG1      0.073000
     38 H101       -1.3040    2.0280    0.7810 h1        1 EG1      0.085500
     39 H102        0.2650    1.8730    0.6280 h1        1 EG1      0.085500
     40 H111       -1.4080    2.4730   -1.6180 h1        1 EG1      0.085000
     41 H112        0.1890    2.5650   -1.5830 h1        1 EG1      0.085000
     42 H121        0.6570    5.0530   -1.7030 h1        1 EG1      0.072000
     43 H122       -0.7230    4.6780   -2.5350 h1        1 EG1      0.072000
     44 H131       -1.8460    6.4560   -1.6890 h1        1 EG1      0.115000
     45 H132       -1.0460    6.4330   -0.2790 h1        1 EG1      0.115000
     46 HN3         0.7760    7.2370   -1.9370 hn        1 EG1      0.221000
     47 H151        1.0690    9.6910   -2.7620 h1        1 EG1      0.111000
     48 H152        0.5120   10.3250   -1.4240 h1        1 EG1      0.111000
     49 HN41       -0.7180   11.6300   -2.5120 hn        1 EG1      0.156000
     50 HN42        0.1850   11.3600   -3.6580 hn        1 EG1      0.156000
@<TRIPOS>BOND
     1    1    2 1   
     2    1    3 1   
     3    4   27 1   
     4    4   28 1   
     5    5    6 1   
     6    5   11 1   
     7    6   29 1   
     8    7    8 1   
     9    7   30 1   
    10    8    9 1   
    11    9   10 1   
    12    9   31 1   
    13   10   32 1   
    14   11   12 1   
    15   11   13 1   
    16   13   14 1   
    17   13   33 1   
    18   14   15 1   
    19   14   34 1   
    20   14   35 1   
    21   15   16 1   
    22   15   36 1   
    23   15   37 1   
    24   16   17 1   
    25   17   18 1   
    26   17   38 1   
    27   17   39 1   
    28   18   19 1   
    29   18   40 1   
    30   18   41 1   
    31   19   20 1   
    32   20   21 1   
    33   20   42 1   
    34   20   43 1   
    35   21   22 1   
    36   21   44 1   
    37   21   45 1   
    38   22   23 1   
    39   22   46 1   
    40   23   24 1   
    41   23   25 1   
    42   25   26 1   
    43   25   47 1   
    44   25   48 1   
    45   26   49 1   
    46   26   50 1   
@<TRIPOS>SUBSTRUCTURE
     1 EG1         1 TEMP              0 ****  ****    0 ROOT
