@<TRIPOS>MOLECULE
EG1
   54    54     1     0     0
SMALL
bcc


@<TRIPOS>ATOM
      1 S           0.7610    0.0020    2.0900 s6        1 EG1      1.812100
      2 O1          0.1070    0.8670    2.9310 o         1 EG1     -0.446700
      3 O2          0.5530   -1.3410    1.9330 o         1 EG1     -0.490300
      4 N1          2.5070    0.0840    2.6610 n4        1 EG1     -0.822500
      5 C1         -0.8600    3.2020   -1.6170 cc        1 EG1     -0.241100
      6 C2         -1.8550    3.8810   -0.7730 cc        1 EG1     -0.177300
      7 C3         -2.5970    4.7120   -1.5730 cd        1 EG1      0.374600
      8 C4          0.8710    0.7310    0.5450 cf        1 EG1     -0.784000
      9 C5          0.1490    1.8010    0.1670 cf        1 EG1     -0.028000
     10 C6          0.0700    2.2750   -1.2060 ce        1 EG1      0.223800
     11 O3         -2.1370    4.6120   -2.9130 os        1 EG1     -0.255800
     12 N2         -0.5370    3.4800   -4.2480 n4        1 EG1     -0.782700
     13 C8         -0.4480    4.7160   -5.1440 c3        1 EG1      0.097800
     14 C9         -0.0830    4.2980   -6.5800 c3        1 EG1      0.100400
     15 O4         -0.9490    3.2510   -6.9650 os        1 EG1     -0.479600
     16 C10        -1.7050    3.4740   -8.1670 c3        1 EG1      0.125400
     17 C11        -0.8240    3.4410   -9.4120 c3        1 EG1      0.096400
     18 O5         -0.7320    4.7800   -9.8980 os        1 EG1     -0.445600
     19 C12        -0.4640    4.8340  -11.3040 c3        1 EG1      0.108400
     20 C13        -0.6900    6.3020  -11.7100 c3        1 EG1      0.083000
     21 N3         -0.4060    6.5590  -13.1000 n         1 EG1     -0.535900
     22 C14        -1.3950    6.8110  -14.0090 c         1 EG1      0.648100
     23 O6         -2.6120    6.8070  -13.7350 o         1 EG1     -0.587100
     24 C15        -0.9580    7.1190  -15.4590 c3        1 EG1      0.012800
     25 N4         -2.0970    7.6330  -16.2650 n4        1 EG1     -0.827600
     26 HN11        3.1710    0.5090    2.0140 hn        1 EG1      0.494133
     27 HN12        2.5840    0.6110    3.5450 hn        1 EG1      0.494133
     28 H2         -3.4370    5.4210   -1.4650 h4        1 EG1      0.164100
     29 H3         -1.9790    3.7470    0.3090 ha        1 EG1      0.244000
     30 H5          1.4820    0.1870   -0.2090 h4        1 EG1      0.217000
     31 H6         -0.4570    2.3600    0.9200 ha        1 EG1      0.208000
     32 HN2        -1.1430    2.7980   -4.7740 hn        1 EG1      0.510800
     33 H81         0.4020    3.0670   -4.1460 hn        1 EG1      0.510800
     34 H82         0.3340    5.4080   -4.7230 hx        1 EG1      0.134700
     35 H91        -1.4620    5.2120   -5.1290 hx        1 EG1      0.134700
     36 H92         0.9700    3.9070   -6.6300 h1        1 EG1      0.116200
     37 H101       -0.1740    5.2090   -7.2390 h1        1 EG1      0.116200
     38 H102       -2.4160    2.6020   -8.1650 h1        1 EG1      0.091200
     39 H111       -2.2650    4.4430   -8.0940 h1        1 EG1      0.091200
     40 H112        0.2090    3.0760   -9.1670 h1        1 EG1      0.068200
     41 H121       -1.2850    2.7640  -10.1800 h1        1 EG1      0.068200
     42 H122        0.5950    4.5120  -11.4810 h1        1 EG1      0.053700
     43 H131       -1.1640    4.1540  -11.8570 h1        1 EG1      0.053700
     44 H132       -0.0160    6.9570  -11.0870 h1        1 EG1      0.088700
     45 HN3        -1.7610    6.5770  -11.4880 h1        1 EG1      0.088700
     46 H151       -0.5850    6.1630  -15.9330 hx        1 EG1      0.136700
     47 H152       -0.1310    7.8860  -15.4770 hx        1 EG1      0.136700
     48 HN41       -1.9130    7.5020  -17.2660 hn        1 EG1      0.480800
     49 HN42       -2.2470    8.6320  -16.0760 hn        1 EG1      0.480800
     50 H13         2.8690   -0.8630    2.8660 hn        1 EG1      0.494133
     51 H22         0.7900    1.8370   -1.9320 ha        1 EG1      0.181000
     52 H32         0.5440    6.5370  -13.3900 hn        1 EG1      0.336500
     53 H43        -2.9620    7.1300  -16.0000 hn        1 EG1      0.480800
     54 C7         -1.1120    3.7280   -2.9520 cd        1 EG1      0.542600
@<TRIPOS>BOND
     1    1    2 1   
     2    1    3 2   
     3    1    4 1   
     4    1    8 2   
     5    4   26 1   
     6    4   27 1   
     7    4   50 1   
     8    5    6 1   
     9    5   10 1   
    10    5   54 2   
    11    6    7 2   
    12    6   29 1   
    13    7   11 1   
    14    7   28 1   
    15    8    9 1   
    16    8   30 1   
    17    9   10 2   
    18    9   31 1   
    19   10   51 1   
    20   11   54 1   
    21   12   13 1   
    22   12   32 1   
    23   12   33 1   
    24   12   54 1   
    25   13   14 1   
    26   13   34 1   
    27   13   35 1   
    28   14   15 1   
    29   14   36 1   
    30   14   37 1   
    31   15   16 1   
    32   16   17 1   
    33   16   38 1   
    34   16   39 1   
    35   17   18 1   
    36   17   40 1   
    37   17   41 1   
    38   18   19 1   
    39   19   20 1   
    40   19   42 1   
    41   19   43 1   
    42   20   21 1   
    43   20   44 1   
    44   20   45 1   
    45   21   22 1   
    46   21   52 1   
    47   22   23 2   
    48   22   24 1   
    49   24   25 1   
    50   24   46 1   
    51   24   47 1   
    52   25   48 1   
    53   25   49 1   
    54   25   53 1   
@<TRIPOS>SUBSTRUCTURE
     1 EG1         1 TEMP              0 ****  ****    0 ROOT
