@<TRIPOS>MOLECULE
EG2
   46    43     1     0     0
SMALL
bcc


@<TRIPOS>ATOM
      1 S          -3.3200  -49.4060  232.3300 s6        1 EG2      2.873000
      2 O1         -2.1240  -48.7540  232.5810 o         1 EG2     -0.870500
      3 O2         -3.5010  -50.1740  231.1980 o         1 EG2     -0.870500
      4 N1         -4.4080  -47.8740  231.7990 n4        1 EG2     -0.502000
      5 C1         -4.6580  -50.9450  237.0270 c2        1 EG2     -0.078000
      6 C2         -5.7420  -50.4230  237.8560 c2        1 EG2     -0.104000
      7 C3         -6.4210  -49.3400  237.8230 c1        1 EG2      0.248000
      8 C4         -4.0800  -49.8680  233.5850 c2        1 EG2     -1.298000
      9 C5         -3.6830  -49.7060  234.9130 c2        1 EG2      0.198000
     10 C6         -4.1870  -50.3420  235.9640 c1        1 EG2     -0.224000
     11 O3         -4.5860  -52.8660  238.4830 o         1 EG2     -0.195000
     12 N2         -3.0210  -52.8650  236.7800 n4        1 EG2     -0.110000
     13 C8         -2.4770  -53.8550  233.2610 c2        1 EG2     -0.275000
     14 C9         -1.2490  -53.6610  233.7480 c2        1 EG2     -0.036000
     15 O4         -1.1040  -52.8110  234.8420 os        1 EG2     -0.318000
     16 C10         0.1930  -52.8230  235.4480 c3        1 EG2     -0.033000
     17 C11         0.3670  -54.0260  236.3640 c3        1 EG2     -0.059000
     18 O5         -0.5750  -53.8940  237.4330 os        1 EG2     -0.376000
     19 C12        -0.2500  -54.7120  238.5560 c3        1 EG2     -0.076000
     20 C13        16.4030  373.6180-1609.2710 c2        1 EG2      0.119000
     21 N3         16.3480  374.8750-1609.5640 n3        1 EG2     -0.136000
     22 HN11       -5.2010  -47.7290  232.4090 hn        1 EG2      0.241667
     23 HN12       -4.7570  -48.0150  230.8540 hn        1 EG2      0.241667
     24 H2         -7.0350  -48.4510  237.8650 ha        1 EG2      0.300000
     25 H3         -6.0430  -51.1310  238.7110 ha        1 EG2      0.323000
     26 H5         -4.9820  -50.5000  233.4440 h4        1 EG2      0.210000
     27 H6         -2.8240  -49.0170  235.1240 ha        1 EG2      0.193000
     28 HN2        -2.8190  -53.8140  237.1410 hn        1 EG2      0.289000
     29 H81        -3.2060  -52.9200  235.7670 hn        1 EG2      0.289000
     30 H82        -2.6400  -54.4930  232.3810 ha        1 EG2      0.131000
     31 H91        -3.3760  -53.3870  233.6770 ha        1 EG2      0.131000
     32 H92        -0.3250  -54.1040  233.3450 h4        1 EG2      0.171000
     33 H101        0.9980  -52.8210  234.6680 h1        1 EG2      0.123000
     34 H102        0.2180  -51.8630  236.0310 h1        1 EG2      0.123000
     35 H111        0.1550  -54.9850  235.8200 h1        1 EG2      0.111500
     36 H112        1.4140  -54.0420  236.7680 h1        1 EG2      0.111500
     37 H121        0.7310  -54.3970  238.9900 h1        1 EG2      0.096000
     38 H122       -0.2140  -55.7870  238.2530 h1        1 EG2      0.096000
     39 H131       -1.0790  -54.5300  239.2840 h1        1 EG2      0.096000
     40 H132       16.3790  372.8390-1610.0700 h4        1 EG2      0.215000
     41 HN31       16.4770  373.2760-1608.2120 h4        1 EG2      0.215000
     42 HN32       16.2810  375.2080-1610.5160 hn        1 EG2      0.293000
     43 H13        -3.8450  -47.0280  231.7980 hn        1 EG2      0.241667
     44 H22        -2.1480  -52.3200  236.8970 hn        1 EG2      0.289000
     45 H33        16.3690  375.5980-1608.8580 hn        1 EG2      0.293000
     46 C7         -4.1520  -52.2460  237.5160 c2        1 EG2      0.298000
@<TRIPOS>BOND
     1    1    2 1   
     2    1    3 1   
     3    1    4 1   
     4    1    8 1   
     5    4   22 1   
     6    4   23 1   
     7    4   43 1   
     8    5    6 1   
     9    5   10 1   
    10    5   46 1   
    11    6    7 1   
    12    6   25 1   
    13    7   24 1   
    14    8    9 1   
    15    8   26 1   
    16    9   10 1   
    17    9   27 1   
    18   11   46 1   
    19   12   28 1   
    20   12   29 1   
    21   12   44 1   
    22   12   46 1   
    23   13   14 1   
    24   13   30 1   
    25   13   31 1   
    26   14   15 1   
    27   14   32 1   
    28   15   16 1   
    29   16   17 1   
    30   16   33 1   
    31   16   34 1   
    32   17   18 1   
    33   17   35 1   
    34   17   36 1   
    35   18   19 1   
    36   19   37 1   
    37   19   38 1   
    38   19   39 1   
    39   20   21 1   
    40   20   40 1   
    41   20   41 1   
    42   21   42 1   
    43   21   45 1   
@<TRIPOS>SUBSTRUCTURE
     1 EG2         1 TEMP              0 ****  ****    0 ROOT
