@<TRIPOS>MOLECULE
EG2
   46    43     1     0     0
SMALL
bcc


@<TRIPOS>ATOM
      1 S           8.9690  -44.2720  185.4430 s6        1 EG2      2.808000
      2 O1          9.1970  -45.5150  184.9000 o         1 EG2     -0.816500
      3 O2          9.8610  -43.5840  186.2270 o         1 EG2     -0.816500
      4 N1          7.5980  -44.6130  186.6540 n4        1 EG2     -0.540000
      5 C1          5.9350  -42.1000  182.5840 c2        1 EG2     -0.052000
      6 C2          5.2330  -42.4750  183.7960 c2        1 EG2     -0.429000
      7 C3          5.7700  -43.0080  184.8800 c1        1 EG2      0.193000
      8 C4          8.1480  -43.2940  184.4120 c2        1 EG2     -1.014000
      9 C5          7.8550  -43.5400  183.1180 c2        1 EG2      0.134000
     10 C6          7.1510  -42.6000  182.2600 c2        1 EG2     -0.087000
     11 O3          4.4710  -40.1540  182.2180 oh        1 EG2     -0.191000
     12 N2          5.2670  -41.1590  180.3800 n3        1 EG2     -0.189000
     13 C8          5.2060  -39.5840  175.7770 c2        1 EG2     -0.253000
     14 C9          5.2910  -39.5320  177.1060 c2        1 EG2     -0.060000
     15 O4          6.1160  -40.3080  177.9100 os        1 EG2     -0.306000
     16 C10         7.1460  -41.0310  177.2270 c3        1 EG2     -0.059000
     17 C11         8.1100  -41.5410  178.2900 c3        1 EG2     -0.033000
     18 O5          7.5350  -42.5660  179.1030 os        1 EG2     -0.371000
     19 C12         7.5190  -43.8490  178.4830 c3        1 EG2     -0.081000
     20 C13       -46.4730  309.6330-1246.2150 c2        1 EG2      0.119000
     21 N3        -46.4790  310.5980-1247.0760 n3        1 EG2     -0.136000
     22 HN11        6.7200  -44.1330  186.4070 hn        1 EG2      0.274667
     23 HN12        7.8580  -44.3070  187.5960 hn        1 EG2      0.274667
     24 H2          4.1200  -42.3580  183.8050 ha        1 EG2      0.239000
     25 H3          4.5180  -40.1530  183.1950 ho        1 EG2      0.299000
     26 H5          7.9570  -42.2610  184.7950 h4        1 EG2      0.223000
     27 H6          8.1410  -44.5010  182.6270 ha        1 EG2      0.205000
     28 HN2         5.8300  -41.8190  179.8540 hn        1 EG2      0.320500
     29 H81         4.8040  -40.4450  179.8300 hn        1 EG2      0.320500
     30 H82         4.5080  -38.9310  175.2340 ha        1 EG2      0.147500
     31 H91         5.8070  -40.2510  175.1470 ha        1 EG2      0.147500
     32 H92         4.7100  -38.8620  177.7610 h4        1 EG2      0.156000
     33 H101        6.6800  -41.8740  176.6520 h1        1 EG2      0.112000
     34 H102        7.6900  -40.3460  176.5230 h1        1 EG2      0.112000
     35 H111        9.0440  -41.9160  177.7940 h1        1 EG2      0.116500
     36 H112        8.3600  -40.7250  179.0220 h1        1 EG2      0.116500
     37 H121        6.8970  -43.8300  177.5550 h1        1 EG2      0.093333
     38 H122        8.5620  -44.1730  178.2430 h1        1 EG2      0.093333
     39 H131        7.0610  -44.5260  179.2460 h1        1 EG2      0.093333
     40 H132      -46.7170  308.5880-1246.5210 h4        1 EG2      0.215000
     41 HN31      -46.2250  309.8190-1245.1440 h4        1 EG2      0.215000
     42 HN32      -46.7010  310.4530-1248.0510 hn        1 EG2      0.293000
     43 H13         7.3940  -45.6140  186.7110 hn        1 EG2      0.274667
     44 H22         7.6700  -42.3520  181.3040 ha        1 EG2      0.230000
     45 H33       -46.2620  311.5510-1246.8220 hn        1 EG2      0.293000
     46 C7          5.2360  -41.1410  181.6960 c2        1 EG2      0.318000
@<TRIPOS>BOND
     1    1    2 1   
     2    1    3 1   
     3    1    4 1   
     4    1    8 1   
     5    4   22 1   
     6    4   23 1   
     7    4   43 1   
     8    5    6 1   
     9    5   10 1   
    10    5   46 1   
    11    6    7 1   
    12    6   24 1   
    13    8    9 1   
    14    8   26 1   
    15    9   10 1   
    16    9   27 1   
    17   10   44 1   
    18   11   25 1   
    19   11   46 1   
    20   12   28 1   
    21   12   29 1   
    22   12   46 1   
    23   13   14 1   
    24   13   30 1   
    25   13   31 1   
    26   14   15 1   
    27   14   32 1   
    28   15   16 1   
    29   16   17 1   
    30   16   33 1   
    31   16   34 1   
    32   17   18 1   
    33   17   35 1   
    34   17   36 1   
    35   18   19 1   
    36   19   37 1   
    37   19   38 1   
    38   19   39 1   
    39   20   21 1   
    40   20   40 1   
    41   20   41 1   
    42   21   42 1   
    43   21   45 1   
@<TRIPOS>SUBSTRUCTURE
     1 EG2         1 TEMP              0 ****  ****    0 ROOT
