@<TRIPOS>MOLECULE
EG2
   46    44     1     0     0
SMALL
bcc


@<TRIPOS>ATOM
      1 S        -109.2340 -192.9010  464.0300 s6        1 EG2      2.863000
      2 O1       -110.5140 -192.7860  463.5150 o         1 EG2     -0.863500
      3 O2       -108.1600 -192.2350  463.4760 o         1 EG2     -0.863500
      4 N1       -108.8010 -194.6890  463.4470 nz        1 EG2     -0.506000
      5 C1       -110.2020 -192.9050  469.0740 c2        1 EG2     -0.073000
      6 C2       -110.1450 -194.0610  469.9660 c2        1 EG2     -0.109000
      7 C3       -110.1740 -195.3230  469.7610 c1        1 EG2      0.262000
      8 C4       -109.1840 -193.0730  465.5680 c2        1 EG2     -1.286000
      9 C5       -110.2670 -193.1030  466.4420 c2        1 EG2      0.197000
     10 C6       -110.2140 -192.9710  467.7650 c1        1 EG2     -0.244000
     11 O3       -110.1710 -191.4700  471.0250 o         1 EG2     -0.171000
     12 N2       -110.3260 -190.3720  468.9920 nz        1 EG2     -0.121000
     13 C8        108.6070  203.4220 -476.5760 c2        1 EG2     -0.297000
     14 C9        108.5230  202.2620 -475.9280 c2        1 EG2     -0.044000
     15 O4        109.1280  201.0570 -476.2760 os        1 EG2     -0.184000
     16 C10       110.0810  201.0700 -477.3110 c3        1 EG2      0.021000
     17 C11       111.0200  199.8550 -477.0930 c3        1 EG2     -0.035000
     18 O5        110.3760  198.6200 -477.3310 os        1 EG2     -0.212000
     19 C12       109.8410  198.5170 -478.6430 c3        1 EG2     -0.053000
     20 C13       108.7800  199.6020 -478.8540 c3        1 EG2     -0.171000
     21 N3        109.3440  200.9680 -478.6500 ny        1 EG2     -0.077000
     22 HN11     -108.6210 -195.3230  464.2140 hn        1 EG2      0.247333
     23 HN12     -107.9690 -194.6660  462.8580 hn        1 EG2      0.247333
     24 H2       -110.1940 -196.4020  469.6770 ha        1 EG2      0.304000
     25 H3       -110.0620 -193.7850  471.0790 ha        1 EG2      0.323000
     26 H5       -108.1880 -193.0630  466.0570 h4        1 EG2      0.210000
     27 H6       -111.2960 -193.1800  466.0020 ha        1 EG2      0.197000
     28 HN2      -110.0620 -189.5560  469.5670 hn        1 EG2      0.280333
     29 H81      -109.7070 -190.4330  468.1750 hn        1 EG2      0.280333
     30 H82       108.0710  204.3060 -476.1990 ha        1 EG2      0.143000
     31 H91       109.2060  203.6040 -477.4750 ha        1 EG2      0.143000
     32 H92       107.9400  202.0650 -475.0060 h4        1 EG2      0.211000
     33 H101      108.3370  198.8150 -475.8740 ha        1 EG2      0.002000
     34 H102      110.6770  202.0320 -477.3340 hx        1 EG2      0.155000
     35 H111      108.8030  198.8380 -475.3820 ha        1 EG2      0.002000
     36 H112      111.9210  199.9730 -477.7510 h1        1 EG2      0.146000
     37 H121      111.3120  199.8150 -476.0060 h1        1 EG2      0.146000
     38 H122      110.6550  198.5770 -479.4120 h1        1 EG2      0.139000
     39 H131      109.3550  197.5020 -478.6710 h1        1 EG2      0.139000
     40 H132      108.3500  199.5360 -479.8930 hx        1 EG2      0.162000
     41 HN31      107.9580  199.4600 -478.0900 hx        1 EG2      0.162000
     42 HN32      110.0070  201.1850 -479.4000 hn        1 EG2      0.249500
     43 H13      -109.5610 -195.0720  462.8880 hn        1 EG2      0.247333
     44 H22      -111.2930 -190.2460  468.6680 hn        1 EG2      0.280333
     45 H33       108.5820  201.6540 -478.6620 hn        1 EG2      0.249500
     46 C7       -110.2280 -191.6270  469.8130 c2        1 EG2      0.298000
@<TRIPOS>BOND
     1    1    2 1   
     2    1    3 1   
     3    1    4 1   
     4    1    8 1   
     5    4   22 1   
     6    4   23 1   
     7    4   43 1   
     8    5    6 1   
     9    5   10 1   
    10    5   46 1   
    11    6    7 1   
    12    6   25 1   
    13    7   24 1   
    14    8    9 1   
    15    8   26 1   
    16    9   10 1   
    17    9   27 1   
    18   11   46 1   
    19   12   28 1   
    20   12   29 1   
    21   12   44 1   
    22   12   46 1   
    23   13   14 1   
    24   13   30 1   
    25   13   31 1   
    26   14   15 1   
    27   14   32 1   
    28   15   16 1   
    29   16   17 1   
    30   16   21 1   
    31   16   34 1   
    32   17   18 1   
    33   17   36 1   
    34   17   37 1   
    35   18   19 1   
    36   19   20 1   
    37   19   38 1   
    38   19   39 1   
    39   20   21 1   
    40   20   40 1   
    41   20   41 1   
    42   21   42 1   
    43   21   45 1   
    44   33   35 1   
@<TRIPOS>SUBSTRUCTURE
     1 EG2         1 TEMP              0 ****  ****    0 ROOT
