@<TRIPOS>MOLECULE
EG2
   43    43     1     0     0
SMALL
bcc


@<TRIPOS>ATOM
      1 S           1.0460   -0.7120   -5.4620 sy        1 EG2      1.525200
      2 O1          1.9470   -1.7570   -5.1700 o         1 EG2     -0.654300
      3 O2          0.1650   -0.8830   -6.5490 o         1 EG2     -0.654300
      4 N1          1.8630    0.6500   -5.6560 n3        1 EG2     -1.027700
      5 C1         -1.4130    0.0670   -1.7720 ca        1 EG2     -0.077600
      6 C2         -1.9120    0.4150   -3.0320 ca        1 EG2     -0.121000
      7 C3         -1.1450    0.1770   -4.1690 ca        1 EG2     -0.027500
      8 C4          0.1220   -0.4090   -4.0710 ca        1 EG2     -0.362500
      9 C5          0.5980   -0.7740   -2.8070 ca        1 EG2     -0.027500
     10 C6         -0.1580   -0.5390   -1.6610 ca        1 EG2     -0.121000
     11 O3         -3.5080    0.1740   -0.6230 o         1 EG2     -0.595100
     12 N2         -1.6460    0.8250    0.5540 n         1 EG2     -0.547900
     13 C8         -2.3380    0.9760    1.8030 c3        1 EG2      0.084000
     14 C9         -2.0750   -0.1390    2.8260 c3        1 EG2      0.098400
     15 O4         -0.6840   -0.1040    3.1320 os        1 EG2     -0.438600
     16 C10        -0.3230   -1.0650    4.1220 c3        1 EG2      0.127400
     17 C11         1.1280   -0.7810    4.4960 c3        1 EG2      0.128400
     18 O5          1.1030   -0.1720    5.7850 os        1 EG2     -0.434600
     19 C12         2.3920    0.2790    6.1950 c3        1 EG2      0.123400
     20 C13         2.2340    0.8280    7.6170 c3        1 EG2      0.159800
     21 N3          1.9720   -0.1950    8.6000 n3        1 EG2     -0.913800
     22 HN11        2.7560    0.8140   -5.2640 hn        1 EG2      0.448800
     23 HN12        1.5420    1.4080   -6.2050 hn        1 EG2      0.448800
     24 H2         -2.9170    0.8610   -3.1130 ha        1 EG2      0.153500
     25 H3         -1.5480    0.4330   -5.1650 ha        1 EG2      0.158000
     26 H5          1.5800   -1.2730   -2.7230 ha        1 EG2      0.158000
     27 H6          0.2330   -0.8530   -0.6810 ha        1 EG2      0.153500
     28 HN2        -0.6540    0.7840    0.6090 hn        1 EG2      0.316500
     29 H81        -3.4490    1.0110    1.6110 h1        1 EG2      0.076200
     30 H82        -2.0100    1.9550    2.2560 h1        1 EG2      0.076200
     31 H91        -2.3480   -1.1480    2.4190 h1        1 EG2      0.041200
     32 H92        -2.6760    0.0640    3.7520 h1        1 EG2      0.041200
     33 H101       -0.4220   -2.0940    3.6860 h1        1 EG2      0.045200
     34 H102       -0.9910   -0.9690    5.0190 h1        1 EG2      0.045200
     35 H111        1.6050   -0.0910    3.7510 h1        1 EG2      0.042700
     36 H112        1.7120   -1.7380    4.5510 h1        1 EG2      0.042700
     37 H121        2.7370    1.1000    5.5120 h1        1 EG2      0.037200
     38 H122        3.1240   -0.5700    6.1580 h1        1 EG2      0.037200
     39 H131        1.4310    1.6230    7.5880 h1        1 EG2      0.036200
     40 H132        3.2030    1.3310    7.8970 h1        1 EG2      0.036200
     41 HN31        1.6590    0.2200    9.4550 hn        1 EG2      0.353800
     42 HN32        1.2740   -0.8320    8.2680 hn        1 EG2      0.353800
     43 C7         -2.2710    0.3300   -0.5750 c         1 EG2      0.654700
@<TRIPOS>BOND
     1    1    2 2   
     2    1    3 2   
     3    1    4 1   
     4    1    8 1   
     5    4   22 1   
     6    4   23 1   
     7    5    6 ar  
     8    5   10 ar  
     9    5   43 1   
    10    6    7 ar  
    11    6   24 1   
    12    7    8 ar  
    13    7   25 1   
    14    8    9 ar  
    15    9   10 ar  
    16    9   26 1   
    17   10   27 1   
    18   11   43 2   
    19   12   13 1   
    20   12   28 1   
    21   12   43 1   
    22   13   14 1   
    23   13   29 1   
    24   13   30 1   
    25   14   15 1   
    26   14   31 1   
    27   14   32 1   
    28   15   16 1   
    29   16   17 1   
    30   16   33 1   
    31   16   34 1   
    32   17   18 1   
    33   17   35 1   
    34   17   36 1   
    35   18   19 1   
    36   19   20 1   
    37   19   37 1   
    38   19   38 1   
    39   20   21 1   
    40   20   39 1   
    41   20   40 1   
    42   21   41 1   
    43   21   42 1   
@<TRIPOS>SUBSTRUCTURE
     1 EG2         1 TEMP              0 ****  ****    0 ROOT
