@<TRIPOS>MOLECULE
EG2
   43    39     1     0     0
SMALL
bcc


@<TRIPOS>ATOM
      1 S           4.1520    4.6050   -2.6970 ss        1 EG2      2.864000
      2 O1          3.0310    4.6830   -3.6350 o         1 EG2     -0.934000
      3 O2          4.2600    5.9490   -2.2870 o         1 EG2     -0.934000
      4 N1          5.5560    4.0850   -3.4660 n2        1 EG2     -0.954000
      5 C1          2.9670    1.9450    0.8230 c1        1 EG2     -0.059000
      6 C2          3.4840    3.2230    1.0520 c1        1 EG2     -0.109000
      7 C3          3.8820    4.0160   -0.0150 c1        1 EG2     -0.028000
      8 C4          3.7670    3.5380   -1.3220 c1        1 EG2     -0.808000
      9 C5          3.2590    2.2780   -1.5550 c2        1 EG2     -0.029000
     10 C6          2.8530    1.4710   -0.4740 c1        1 EG2     -0.131000
     11 C7          2.4470    1.1320    1.9780 c2        1 EG2      0.329000
     12 O3          2.4780    1.5860    3.0860 o         1 EG2     -0.356000
     13 N2          1.8450   -0.1470    1.7460 n         1 EG2     -0.359000
     14 C8          0.4800   -0.3470    2.0570 c3        1 EG2     -0.033000
     15 C9         -0.2460   -0.8750    0.8440 c3        1 EG2     -0.057000
     16 O4         -1.5820   -0.3620    0.8390 os        1 EG2     -0.293000
     17 C10        -2.4450   -0.9620   -0.1560 c3        1 EG2     -0.020000
     18 C11        -3.7020   -1.5320    0.5310 c3        1 EG2     -0.057000
     19 O5         -4.1790   -2.6420   -0.2090 os        1 EG2     -0.283000
     20 C12        -4.9220   -3.5360    0.5360 c3        1 EG2     -0.065000
     21 C13        -5.0380   -4.8720   -0.2310 c3        1 EG2     -0.086000
     22 N3         -5.8490   -5.7250    0.4540 n3        1 EG2     -0.337000
     23 HN11        6.3470    4.4180   -3.2210 hn        1 EG2      0.243500
     24 HN12        5.5000    3.5010   -4.1880 hn        1 EG2      0.243500
     25 H2          3.5650    3.5580    1.9670 ha        1 EG2      0.163000
     26 H3          4.2260    4.8650    0.1400 ha        1 EG2      0.157000
     27 H5          3.1790    1.9450   -2.4770 ha        1 EG2      0.157000
     28 H6          2.5090    0.6190   -0.6320 ha        1 EG2      0.148000
     29 HN2         2.3170   -0.7960    1.4080 hn        1 EG2      0.231000
     30 H81         0.0610    0.5500    2.3430 h1        1 EG2      0.113500
     31 H82         0.3990   -1.0110    2.8110 h1        1 EG2      0.113500
     32 H91        -0.2700   -1.8520    0.8750 h1        1 EG2      0.091000
     33 H92         0.2400   -0.5730   -0.0030 h1        1 EG2      0.091000
     34 H101       -2.7020   -0.3030   -0.7900 h1        1 EG2      0.101000
     35 H102       -1.9570   -1.7010   -0.6210 h1        1 EG2      0.101000
     36 H111       -3.4700   -1.8230    1.4560 h1        1 EG2      0.079500
     37 H112       -4.4080   -0.8290    0.5720 h1        1 EG2      0.079500
     38 H121       -4.5000   -3.6830    1.3600 h1        1 EG2      0.064000
     39 H122       -5.8190   -3.1690    0.6890 h1        1 EG2      0.064000
     40 H131       -5.4050   -4.7110   -1.0810 h1        1 EG2      0.105500
     41 H132       -4.1450   -5.2750   -0.3290 h1        1 EG2      0.105500
     42 HN31       -5.4860   -5.9080    1.2490 hn        1 EG2      0.144000
     43 HN32       -6.6760   -5.3320    0.5740 hn        1 EG2      0.144000
@<TRIPOS>BOND
     1    1    2 1   
     2    1    3 1   
     3    4   23 1   
     4    4   24 1   
     5    5    6 1   
     6    5   11 1   
     7    6   25 1   
     8    7    8 1   
     9    7   26 1   
    10    8    9 1   
    11    9   10 1   
    12    9   27 1   
    13   10   28 1   
    14   11   12 1   
    15   11   13 1   
    16   13   14 1   
    17   13   29 1   
    18   14   15 1   
    19   14   30 1   
    20   14   31 1   
    21   15   16 1   
    22   15   32 1   
    23   15   33 1   
    24   16   17 1   
    25   17   18 1   
    26   17   34 1   
    27   17   35 1   
    28   18   19 1   
    29   18   36 1   
    30   18   37 1   
    31   19   20 1   
    32   20   21 1   
    33   20   38 1   
    34   20   39 1   
    35   21   22 1   
    36   21   40 1   
    37   21   41 1   
    38   22   42 1   
    39   22   43 1   
@<TRIPOS>SUBSTRUCTURE
     1 EG2         1 TEMP              0 ****  ****    0 ROOT
