@<TRIPOS>MOLECULE
EG3
   63    64     1     0     0
SMALL
bcc


@<TRIPOS>ATOM
      1 S           1.7670   -1.9550   -8.9490 sy        1 EG3      1.525200
      2 O1          2.7040   -2.8220   -8.3500 o         1 EG3     -0.654300
      3 O2          1.0670   -2.4160  -10.0820 o         1 EG3     -0.654300
      4 N1          2.4830   -0.5670   -9.3000 n3        1 EG3     -1.027700
      5 C1         -1.2510   -0.8020   -5.8120 ca        1 EG3     -0.077600
      6 C2         -1.5950   -0.7480   -7.1680 ca        1 EG3     -0.121000
      7 C3         -0.6550   -1.1000   -8.1330 ca        1 EG3     -0.027500
      8 C4          0.6320   -1.5100   -7.7680 ca        1 EG3     -0.361500
      9 C5          0.9530   -1.5820   -6.4090 ca        1 EG3     -0.027500
     10 C6          0.0240   -1.2310   -5.4320 ca        1 EG3     -0.121000
     11 O3         -3.4880   -0.7290   -4.9710 o         1 EG3     -0.595100
     12 N2         -1.8780    0.3350   -3.7260 n         1 EG3     -0.547900
     13 C8         -2.7520    0.6330   -2.6270 c3        1 EG3      0.084000
     14 C9         -2.5410   -0.2370   -1.3800 c3        1 EG3      0.098400
     15 O4         -1.2170    0.0160   -0.9160 os        1 EG3     -0.438600
     16 C10        -0.9160   -0.7010    0.2810 c3        1 EG3      0.127400
     17 C11         0.4340   -0.1880    0.7680 c3        1 EG3      0.127400
     18 O5          0.1690    0.6620    1.8820 os        1 EG3     -0.435600
     19 C12         1.3390    1.3320    2.3430 c3        1 EG3      0.098400
     20 C13         0.9230    2.1640    3.5640 c3        1 EG3      0.080000
     21 N3          0.4730    1.3980    4.6930 n         1 EG3     -0.542900
     22 C14         1.3070    1.1180    5.7580 c         1 EG3      0.652100
     23 O6          2.4250    1.6560    5.8880 o         1 EG3     -0.613100
     24 C15         0.7740    0.1580    6.8450 c3        1 EG3      0.108500
     25 N4          1.5890   -1.0380    6.8670 n3        1 EG3     -0.901800
     26 C16         0.7180    0.9690    8.1550 c3        1 EG3     -0.076100
     27 C17         0.1990    0.1500    9.2820 ca        1 EG3     -0.087300
     28 C18         1.0780   -0.5910   10.0810 ca        1 EG3     -0.130000
     29 C19         0.5920   -1.3550   11.1400 ca        1 EG3     -0.126000
     30 C20        -0.7760   -1.3870   11.4110 ca        1 EG3     -0.128000
     31 C21        -1.6570   -0.6490   10.6190 ca        1 EG3     -0.126000
     32 C22        -1.1730    0.1160    9.5600 ca        1 EG3     -0.130000
     33 HN11        3.2940   -0.2370   -8.8410 hn        1 EG3      0.448800
     34 HN12        2.1790    0.0390  -10.0200 hn        1 EG3      0.448800
     35 H2         -2.6140   -0.4430   -7.4570 ha        1 EG3      0.153500
     36 H3         -0.9340   -1.0780   -9.2020 ha        1 EG3      0.158000
     37 H5          1.9540   -1.9420   -6.1080 ha        1 EG3      0.158000
     38 H6          0.2990   -1.3140   -4.3690 ha        1 EG3      0.153500
     39 HN2        -0.9050    0.4220   -3.5450 hn        1 EG3      0.316500
     40 H81        -3.8230    0.5060   -2.9570 h1        1 EG3      0.076200
     41 H82        -2.5810    1.7100   -2.3390 h1        1 EG3      0.076200
     42 H91        -2.6590   -1.3290   -1.6100 h1        1 EG3      0.041200
     43 H92        -3.2850    0.0600   -0.5940 h1        1 EG3      0.041200
     44 H101       -0.8580   -1.7960    0.0470 h1        1 EG3      0.045200
     45 H102       -1.7120   -0.5200    1.0520 h1        1 EG3      0.045200
     46 H111        0.9580    0.3880   -0.0410 h1        1 EG3      0.044200
     47 H112        1.0790   -1.0430    1.1020 h1        1 EG3      0.044200
     48 H121        1.7230    2.0170    1.5410 h1        1 EG3      0.040700
     49 H122        2.1320    0.5820    2.6030 h1        1 EG3      0.040700
     50 H131        0.0760    2.8430    3.2570 h1        1 EG3      0.074700
     51 H132        1.8080    2.7920    3.8690 h1        1 EG3      0.074700
     52 HN3        -0.2800    0.7720    4.5130 hn        1 EG3      0.316500
     53 H15        -0.2800   -0.1780    6.6060 h1        1 EG3      0.069700
     54 HN41        2.5620   -0.8000    6.9220 hn        1 EG3      0.362300
     55 HN42        1.3440   -1.5990    7.6620 hn        1 EG3      0.362300
     56 H161        1.7450    1.3560    8.3920 hc        1 EG3      0.068700
     57 H162        0.0550    1.8590    7.9890 hc        1 EG3      0.068700
     58 H18         2.1590   -0.5600    9.8780 ha        1 EG3      0.132000
     59 H19         1.2890   -1.9320   11.7650 ha        1 EG3      0.133000
     60 H20        -1.1590   -1.9890   12.2470 ha        1 EG3      0.133000
     61 H21        -2.7360   -0.6690   10.8320 ha        1 EG3      0.133000
     62 H22        -1.8700    0.6990    8.9400 ha        1 EG3      0.132000
     63 C7         -2.2900   -0.4260   -4.8040 c         1 EG3      0.655700
@<TRIPOS>BOND
     1    1    2 2   
     2    1    3 2   
     3    1    4 1   
     4    1    8 1   
     5    4   33 1   
     6    4   34 1   
     7    5    6 ar  
     8    5   10 ar  
     9    5   63 1   
    10    6    7 ar  
    11    6   35 1   
    12    7    8 ar  
    13    7   36 1   
    14    8    9 ar  
    15    9   10 ar  
    16    9   37 1   
    17   10   38 1   
    18   11   63 2   
    19   12   13 1   
    20   12   39 1   
    21   12   63 1   
    22   13   14 1   
    23   13   40 1   
    24   13   41 1   
    25   14   15 1   
    26   14   42 1   
    27   14   43 1   
    28   15   16 1   
    29   16   17 1   
    30   16   44 1   
    31   16   45 1   
    32   17   18 1   
    33   17   46 1   
    34   17   47 1   
    35   18   19 1   
    36   19   20 1   
    37   19   48 1   
    38   19   49 1   
    39   20   21 1   
    40   20   50 1   
    41   20   51 1   
    42   21   22 1   
    43   21   52 1   
    44   22   23 2   
    45   22   24 1   
    46   24   25 1   
    47   24   26 1   
    48   24   53 1   
    49   25   54 1   
    50   25   55 1   
    51   26   27 1   
    52   26   56 1   
    53   26   57 1   
    54   27   28 ar  
    55   27   32 ar  
    56   28   29 ar  
    57   28   58 1   
    58   29   30 ar  
    59   29   59 1   
    60   30   31 ar  
    61   30   60 1   
    62   31   32 ar  
    63   31   61 1   
    64   32   62 1   
@<TRIPOS>SUBSTRUCTURE
     1 EG3         1 TEMP              0 ****  ****    0 ROOT
