@<TRIPOS>MOLECULE
EG3
   67    68     1     0     0
SMALL
bcc


@<TRIPOS>ATOM
      1 S           1.1850    0.9060    2.6860 sy        1 EG3      1.452200
      2 O1          2.4830    0.4910    2.5040 o         1 EG3     -0.525800
      3 O2          0.7460    1.7420    3.6830 o         1 EG3     -0.525800
      4 N1          0.3490   -0.7000    3.1650 n4        1 EG3     -0.806500
      5 C1         -0.6880    1.9860   -1.2220 ca        1 EG3     -0.095600
      6 C2         -1.3170    2.3490   -0.0240 ca        1 EG3     -0.095000
      7 C3         -0.7510    1.9690    1.1950 ca        1 EG3      0.014000
      8 C4          0.4320    1.2140    1.2420 ca        1 EG3     -0.436500
      9 C5          1.0350    0.8450    0.0260 ca        1 EG3      0.014000
     10 C6          0.4890    1.2280   -1.1990 ca        1 EG3     -0.095000
     11 O3         -2.5470    2.2920   -2.7360 o         1 EG3     -0.358100
     12 N2         -0.4790    2.9270   -3.5920 n4        1 EG3     -0.673800
     13 C8         -0.9360    4.2860   -4.0250 c3        1 EG3      0.086800
     14 C9         -0.2480    4.7690   -5.3100 c3        1 EG3      0.099400
     15 O4         -0.5550    3.8570   -6.3550 os        1 EG3     -0.438600
     16 C10        -1.1280    4.4280   -7.5300 c3        1 EG3      0.130400
     17 C11        -0.0240    4.9890   -8.4270 c3        1 EG3      0.100400
     18 O5         -0.6280    5.2710   -9.7010 os        1 EG3     -0.452600
     19 C12         0.3230    5.7320  -10.6550 c3        1 EG3      0.105400
     20 C13        -0.2140    5.3920  -12.0490 c3        1 EG3      0.100800
     21 N3         -1.4590    6.1650  -12.3940 n4        1 EG3     -0.661800
     22 C14        -2.0400    5.7300  -13.7040 c         1 EG3      0.509100
     23 O6         -2.4380    4.5770  -13.7930 o         1 EG3     -0.372100
     24 C15        -2.1150    6.7740  -14.8220 c3        1 EG3      0.048500
     25 N4         -2.5670    6.1520  -16.1080 n4        1 EG3     -0.840600
     26 C16        -3.0620    7.9310  -14.4020 c3        1 EG3     -0.032100
     27 C17        -3.3340    8.8290  -15.5520 ca        1 EG3     -0.227300
     28 C18        -4.5310    8.6980  -16.2740 ca        1 EG3     -0.124000
     29 C19        -4.8270    9.5900  -17.3020 ca        1 EG3     -0.101000
     30 C20        -3.9350   10.6200  -17.6160 ca        1 EG3     -0.055000
     31 C21        -2.7440   10.7550  -16.8980 ca        1 EG3     -0.101000
     32 C22        -2.4440    9.8650  -15.8670 ca        1 EG3     -0.124000
     33 HN11       -0.3450   -1.0330    2.5000 hn        1 EG3      0.476800
     34 HN12        1.0430   -1.4480    3.2760 hn        1 EG3      0.476800
     35 H2         -2.2610    2.9270   -0.0330 ha        1 EG3      0.183500
     36 H3         -1.2440    2.2950    2.1360 ha        1 EG3      0.200500
     37 H5          1.9770    0.2570    0.0330 ha        1 EG3      0.200500
     38 H6          0.9860    0.9010   -2.1270 ha        1 EG3      0.183500
     39 HN2         0.4970    2.9700   -3.2840 hn        1 EG3      0.471300
     40 H81        -2.0530    4.2290   -4.1940 hx        1 EG3      0.127200
     41 H82        -0.7200    5.0170   -3.1940 hx        1 EG3      0.127200
     42 H91        -0.6120    5.8110   -5.5190 h1        1 EG3      0.090700
     43 H92         0.8710    4.7790   -5.1960 h1        1 EG3      0.090700
     44 H101       -1.6360    3.5560   -8.0280 h1        1 EG3      0.083700
     45 H102       -1.8810    5.2170   -7.2750 h1        1 EG3      0.083700
     46 H111        0.7950    4.2340   -8.5560 h1        1 EG3      0.063200
     47 H112        0.3970    5.9390   -8.0050 h1        1 EG3      0.063200
     48 H121        0.4720    6.8380  -10.5160 h1        1 EG3      0.093200
     49 H122        1.3120    5.2060  -10.5430 h1        1 EG3      0.093200
     50 H131       -0.4750    4.2930  -12.0970 hx        1 EG3      0.132200
     51 H132        0.5780    5.6330  -12.8140 hx        1 EG3      0.132200
     52 HN3        -2.1500    5.9800  -11.6430 hn        1 EG3      0.483800
     53 H15        -1.0800    7.2060  -15.0100 hx        1 EG3      0.154700
     54 HN41       -1.7990    5.6450  -16.5650 hn        1 EG3      0.494467
     55 HN42       -3.3490    5.5010  -15.9500 hn        1 EG3      0.494467
     56 H161       -4.0230    7.5090  -14.0000 hc        1 EG3      0.090200
     57 H162       -2.5540    8.5080  -13.5830 hc        1 EG3      0.090200
     58 H18        -5.2680    7.9280  -15.9980 ha        1 EG3      0.135500
     59 H19        -5.7770    9.4960  -17.8580 ha        1 EG3      0.181500
     60 H20        -4.1790   11.3360  -18.4220 ha        1 EG3      0.189000
     61 H21        -2.0470   11.5770  -17.1370 ha        1 EG3      0.181500
     62 H22        -1.5180   10.0000  -15.2890 ha        1 EG3      0.135500
     63 H13        -0.1240   -0.6020    4.0710 hn        1 EG3      0.476800
     64 H221       -0.5380    2.3030   -4.4130 hn        1 EG3      0.471300
     65 H32        -1.2540    7.1710  -12.4020 hn        1 EG3      0.483800
     66 H43        -2.8980    6.9180  -16.7370 hn        1 EG3      0.494467
     67 C7         -1.3560    2.3680   -2.4860 c         1 EG3      0.551700
@<TRIPOS>BOND
     1    1    2 2   
     2    1    3 2   
     3    1    4 1   
     4    1    8 1   
     5    4   33 1   
     6    4   34 1   
     7    4   63 1   
     8    5    6 ar  
     9    5   10 ar  
    10    5   67 1   
    11    6    7 ar  
    12    6   35 1   
    13    7    8 ar  
    14    7   36 1   
    15    8    9 ar  
    16    9   10 ar  
    17    9   37 1   
    18   10   38 1   
    19   11   67 2   
    20   12   13 1   
    21   12   39 1   
    22   12   64 1   
    23   12   67 1   
    24   13   14 1   
    25   13   40 1   
    26   13   41 1   
    27   14   15 1   
    28   14   42 1   
    29   14   43 1   
    30   15   16 1   
    31   16   17 1   
    32   16   44 1   
    33   16   45 1   
    34   17   18 1   
    35   17   46 1   
    36   17   47 1   
    37   18   19 1   
    38   19   20 1   
    39   19   48 1   
    40   19   49 1   
    41   20   21 1   
    42   20   50 1   
    43   20   51 1   
    44   21   22 1   
    45   21   52 1   
    46   21   65 1   
    47   22   23 2   
    48   22   24 1   
    49   24   25 1   
    50   24   26 1   
    51   24   53 1   
    52   25   54 1   
    53   25   55 1   
    54   25   66 1   
    55   26   27 1   
    56   26   56 1   
    57   26   57 1   
    58   27   28 ar  
    59   27   32 ar  
    60   28   29 ar  
    61   28   58 1   
    62   29   30 ar  
    63   29   59 1   
    64   30   31 ar  
    65   30   60 1   
    66   31   32 ar  
    67   31   61 1   
    68   32   62 1   
@<TRIPOS>SUBSTRUCTURE
     1 EG3         1 TEMP              0 ****  ****    0 ROOT
