@<TRIPOS>MOLECULE
EG6
   38    38     1     0     0
SMALL
bcc


@<TRIPOS>ATOM
      1 O01         0.9330   -0.4690   -0.6440 os        1 EG6     -0.388800
      2 C02         2.0880   -0.1390    0.1280 cc        1 EG6      0.438600
      3 N03         2.0050   -0.2070    1.5220 nh        1 EG6     -0.773900
      4 C04         1.1650    0.8260    2.1070 c3        1 EG6      0.081800
      5 C05        -0.3970   -1.2380    3.4580 c3        1 EG6      0.323200
      6 O06         0.5420   -2.2360    3.1750 oh        1 EG6     -0.627800
      7 C10         3.1230    0.1770   -0.7240 cd        1 EG6     -0.206700
      8 C11         2.5830    0.0280   -2.1070 cd        1 EG6      0.195300
      9 C12         1.2640   -0.3630   -1.9840 cc        1 EG6      0.256300
     10 N13         3.4870    0.3030   -3.1310 nd        1 EG6     -0.585000
     11 C14         4.6450    0.6420   -2.5850 cc        1 EG6      0.527200
     12 C15         5.8600    1.0070   -3.2890 ce        1 EG6     -0.249900
     13 C16         6.6960   -2.3650   -6.1000 c2        1 EG6     -0.198100
     14 C17         6.5950   -1.1210   -6.4450 c1        1 EG6      0.041200
     15 C18         6.4810    0.1400   -6.7830 ce        1 EG6     -0.164300
     16 C19         6.7670    0.5930   -8.2210 c3        1 EG6      0.685100
     17 F20         6.9650   -0.4190   -9.1260 f         1 EG6     -0.234633
     18 F21         5.7660    1.3520   -8.7760 f         1 EG6     -0.234633
     19 F22         7.8880    1.3780   -8.3410 f         1 EG6     -0.234633
     20 C23         6.0870    1.2100   -5.8820 ce        1 EG6     -0.123100
     21 C24         5.9690    1.0890   -4.5880 c1        1 EG6      0.045200
     22 S25         4.7190    0.6490   -0.8150 ss        1 EG6     -0.145300
     23 H1          1.6460    1.8240    1.8850 h1        1 EG6      0.077200
     24 H2         -1.2180   -1.5910    4.1410 h2        1 EG6      0.076200
     25 H3          0.1200    0.8430    1.6760 h1        1 EG6      0.077200
     26 H4          0.9120   -2.5540    4.0090 ho        1 EG6      0.432000
     27 H5         -1.3880   -0.1220    0.3350 ha        1 EG6      0.002500
     28 H6          0.4630   -0.5960   -2.6810 h4        1 EG6      0.070100
     29 H7         -1.3120   -0.7770    0.1790 ha        1 EG6      0.002500
     30 H8          7.6380   -2.7960   -5.7240 ha        1 EG6      0.153500
     31 H9          5.8450   -3.0610   -6.1650 ha        1 EG6      0.153500
     32 H10         5.8800    2.1860   -6.3660 ha        1 EG6      0.168000
     33 H11         6.7290    1.2270   -2.6390 ha        1 EG6      0.159000
     34 C1          1.0610    0.7030    3.6110 c         1 EG6      0.636100
     35 O2          0.2940   -0.2640    4.2170 os        1 EG6     -0.463900
     36 O1          1.5820    1.4580    4.4270 o         1 EG6     -0.462000
     37 H12        -0.7840   -0.8700    2.4720 h2        1 EG6      0.076200
     38 H032        1.7260   -1.1310    1.8170 hn        1 EG6      0.415800
@<TRIPOS>BOND
     1    1    2 1   
     2    1    9 1   
     3    2    3 1   
     4    2    7 2   
     5    3    4 1   
     6    3   38 1   
     7    4   23 1   
     8    4   25 1   
     9    4   34 1   
    10    5    6 1   
    11    5   24 1   
    12    5   35 1   
    13    5   37 1   
    14    6   26 1   
    15    7    8 1   
    16    7   22 1   
    17    8    9 2   
    18    8   10 1   
    19    9   28 1   
    20   10   11 2   
    21   11   12 1   
    22   11   22 1   
    23   12   21 2   
    24   12   33 1   
    25   13   14 2   
    26   13   30 1   
    27   13   31 1   
    28   14   15 2   
    29   15   16 1   
    30   15   20 1   
    31   16   17 1   
    32   16   18 1   
    33   16   19 1   
    34   20   21 2   
    35   20   32 1   
    36   27   29 1   
    37   34   35 1   
    38   34   36 2   
@<TRIPOS>SUBSTRUCTURE
     1 EG6         1 TEMP              0 ****  ****    0 ROOT
