@<TRIPOS>MOLECULE
EG6
   38    37     1     0     0
SMALL
bcc


@<TRIPOS>ATOM
      1 O01        -0.3240    0.3120   -0.4670 os        1 EG6     -0.104000
      2 C02         0.8950   -0.3390   -0.1730 c2        1 EG6      0.122000
      3 N03         0.9870   -1.0500    1.0170 nu        1 EG6     -0.243000
      4 C04         0.0980   -0.7140    2.0950 c3        1 EG6     -0.081000
      5 C05         2.3690   -0.9140    3.9300 c3        1 EG6      0.104000
      6 O06         3.2870   -0.8090    2.8790 oh        1 EG6     -0.360000
      7 C10         1.7600   -0.2150   -1.2450 c2        1 EG6     -0.445000
      8 C11         1.0170    0.5670   -2.2760 c2        1 EG6     -0.090000
      9 C12        -0.2240    0.8530   -1.7510 c2        1 EG6     -0.053000
     10 N13         1.7190    0.8070   -3.4560 n2        1 EG6     -0.079000
     11 C14         2.9170    0.2560   -3.3540 c2        1 EG6     -0.145000
     12 C15         3.9660    0.2700   -4.3560 c2        1 EG6     -0.147000
     13 C16         3.8710    0.8790   -5.5400 c2        1 EG6     -0.158000
     14 C17         6.8670    0.3180   -7.2040 c1        1 EG6      0.327000
     15 C18         7.9220   -0.3180   -6.6960 c2        1 EG6     -0.405000
     16 C19         9.3580   -0.1030   -7.1690 c3        1 EG6      0.501000
     17 F20         9.4600    0.5420   -8.3770 f         1 EG6     -0.154333
     18 F21        10.1190    0.6480   -6.3110 f         1 EG6     -0.154333
     19 F22        10.0660   -1.2650   -7.3380 f         1 EG6     -0.154333
     20 C23         7.7550   -1.3000   -5.6390 c2        1 EG6     -0.427000
     21 C24         7.0530   -1.2060   -4.5270 c1        1 EG6      0.248000
     22 S25         3.2750   -0.5890   -1.8390 ss        1 EG6      0.404000
     23 H1         -0.9090   -0.4120    1.6760 h1        1 EG6      0.137500
     24 H2          2.8590   -0.8940    4.9430 h2        1 EG6      0.115000
     25 H3         -0.0440   -1.6480    2.7130 h1        1 EG6      0.137500
     26 H4          3.8050   -0.0020    3.0030 ho        1 EG6      0.233000
     27 H5         -2.5930    0.5230    0.5390 ha        1 EG6      0.002000
     28 H6         -1.1110    1.3840   -2.0820 h4        1 EG6      0.208000
     29 H7         -2.5680    0.9080   -0.0170 ha        1 EG6      0.002000
     30 H8          2.9770    1.4310   -5.8620 ha        1 EG6      0.129000
     31 H9          4.6980    0.8620   -6.2670 ha        1 EG6      0.129000
     32 H10         8.3190   -2.2510   -5.8000 ha        1 EG6      0.219000
     33 H11         4.8810   -0.2790   -4.0600 ha        1 EG6      0.143000
     34 C1          0.5380    0.4030    3.0240 c2        1 EG6      0.265000
     35 O2          1.6010    0.2730    3.8880 os        1 EG6     -0.302000
     36 O1         -0.0130    1.4950    3.1400 o         1 EG6     -0.273000
     37 H12         1.9430   -1.1960    1.2920 hn        1 EG6      0.235000
     38 H032        1.7810   -1.8510    3.7540 h2        1 EG6      0.115000
@<TRIPOS>BOND
     1    1    2 1   
     2    1    9 1   
     3    2    3 1   
     4    2    7 1   
     5    3    4 1   
     6    3   37 1   
     7    4   23 1   
     8    4   25 1   
     9    4   34 1   
    10    5    6 1   
    11    5   24 1   
    12    5   35 1   
    13    5   38 1   
    14    6   26 1   
    15    7    8 1   
    16    7   22 1   
    17    8    9 1   
    18    8   10 1   
    19    9   28 1   
    20   10   11 1   
    21   11   12 1   
    22   11   22 1   
    23   12   13 1   
    24   12   33 1   
    25   13   30 1   
    26   13   31 1   
    27   14   15 1   
    28   15   16 1   
    29   15   20 1   
    30   16   17 1   
    31   16   18 1   
    32   16   19 1   
    33   20   21 1   
    34   20   32 1   
    35   27   29 1   
    36   34   35 1   
    37   34   36 1   
@<TRIPOS>SUBSTRUCTURE
     1 EG6         1 TEMP              0 ****  ****    0 ROOT
