@<TRIPOS>MOLECULE
EG8
   44    46     1     0     0
SMALL
bcc


@<TRIPOS>ATOM
      1 N01         0.1060   -0.8560   -0.0850 nc        1 EG8     -0.638000
      2 C02         1.4300   -0.7140    0.0130 cd        1 EG8      0.427400
      3 N03         1.8040   -0.3210    1.3300 na        1 EG8     -0.269700
      4 C04         0.6030   -0.2210    2.0720 cd        1 EG8     -0.200600
      5 C05        -0.4220   -0.5530    1.1840 cc        1 EG8      0.310200
      6 N1'        11.0990   -4.4510   -6.2550 nb        1 EG8     -0.648000
      7 N11         4.1510   -0.2610    0.9120 nb        1 EG8     -0.764000
      8 C12         3.1040   -0.0800    1.8010 ca        1 EG8      0.786500
      9 N13         3.2530    0.3230    3.1260 nb        1 EG8     -0.689000
     10 C14         4.5050    0.5430    3.5410 ca        1 EG8      0.481200
     11 C15         5.6370    0.3860    2.7120 ca        1 EG8     -0.384600
     12 C16         5.3960   -0.0230    1.3890 ca        1 EG8      0.451600
     13 C17         6.5820   -0.1730    0.4760 c3        1 EG8     -0.157700
     14 C18         6.2400   -0.9470   -0.7930 c3        1 EG8      0.111800
     15 N19         7.4340   -1.1580   -1.6670 n4        1 EG8     -0.766000
     16 C2'        10.0240   -4.1430   -5.5080 ca        1 EG8      0.400200
     17 C20         7.0870   -1.9240   -2.9040 c3        1 EG8      0.102800
     18 C21         8.2930   -2.1410   -3.8070 c3        1 EG8     -0.111400
     19 C22         7.8680   -2.9420   -5.0290 c3        1 EG8     -0.018100
     20 C3'         9.0330   -3.2200   -5.9060 ca        1 EG8     -0.233600
     21 C4'         9.1730   -2.6030   -7.1560 ca        1 EG8     -0.079000
     22 C5'        10.2800   -2.9170   -7.9450 ca        1 EG8     -0.234300
     23 C6'        11.2180   -3.8440   -7.4520 ca        1 EG8      0.413200
     24 H02         2.1610   -0.8650   -0.7860 h5        1 EG8      0.066100
     25 H04         0.5880    0.0680    3.1230 h4        1 EG8      0.208000
     26 H05        -1.4970   -0.5960    1.3680 h4        1 EG8      0.063100
     27 H14         4.6100    0.8640    4.5970 h4        1 EG8      0.056100
     28 H15         6.6470    0.5770    3.0900 ha        1 EG8      0.167000
     29 H17         6.9460    0.8600    0.2180 hc        1 EG8      0.081200
     30 H17A        7.3960   -0.6960    1.0490 hc        1 EG8      0.081200
     31 H18         5.8220   -1.9610   -0.5290 hx        1 EG8      0.122200
     32 H18A        5.4680   -0.3880   -1.3980 hx        1 EG8      0.122200
     33 HN19        8.1560   -1.6690   -1.1460 hn        1 EG8      0.448800
     34 H20         6.2880   -1.3470   -3.4540 hx        1 EG8      0.109700
     35 H20A        6.6550   -2.9160   -2.5850 hx        1 EG8      0.109700
     36 H21         9.1000   -2.7020   -3.2630 hc        1 EG8      0.071200
     37 H21A        8.7210   -1.1580   -4.1380 hc        1 EG8      0.071200
     38 H22         7.4080   -3.9140   -4.7010 hc        1 EG8      0.063200
     39 H22A        7.0830   -2.3730   -5.5970 hc        1 EG8      0.063200
     40 H4'         8.4180   -1.8880   -7.5150 ha        1 EG8      0.141000
     41 H5'        10.4190   -2.4570   -8.9330 ha        1 EG8      0.159000
     42 H6'        12.1100   -4.1220   -8.0450 h4        1 EG8      0.040100
     43 H192        7.8290   -0.2480   -1.9340 hn        1 EG8      0.448800
     44 H2'         9.9480   -4.6710   -4.5400 h4        1 EG8      0.015100
@<TRIPOS>BOND
     1    1    2 2   
     2    1    5 1   
     3    2    3 1   
     4    2   24 1   
     5    3    4 1   
     6    3    8 1   
     7    4    5 2   
     8    4   25 1   
     9    5   26 1   
    10    6   16 ar  
    11    6   23 ar  
    12    7    8 ar  
    13    7   12 ar  
    14    8    9 ar  
    15    9   10 ar  
    16   10   11 ar  
    17   10   27 1   
    18   11   12 ar  
    19   11   28 1   
    20   12   13 1   
    21   13   14 1   
    22   13   29 1   
    23   13   30 1   
    24   14   15 1   
    25   14   31 1   
    26   14   32 1   
    27   15   17 1   
    28   15   33 1   
    29   15   43 1   
    30   16   20 ar  
    31   16   44 1   
    32   17   18 1   
    33   17   34 1   
    34   17   35 1   
    35   18   19 1   
    36   18   36 1   
    37   18   37 1   
    38   19   20 1   
    39   19   38 1   
    40   19   39 1   
    41   20   21 ar  
    42   21   22 ar  
    43   21   40 1   
    44   22   23 ar  
    45   22   41 1   
    46   23   42 1   
@<TRIPOS>SUBSTRUCTURE
     1 EG8         1 TEMP              0 ****  ****    0 ROOT
