@<TRIPOS>MOLECULE
EG8
   44    46     1     0     0
SMALL
bcc


@<TRIPOS>ATOM
      1 N01         0.1100   -0.8920   -0.0770 nc        1 EG8     -0.638000
      2 C02         1.4330   -0.7460    0.0190 cd        1 EG8      0.427400
      3 N03         1.8060   -0.3300    1.3290 na        1 EG8     -0.269700
      4 C04         0.6040   -0.2190    2.0680 cd        1 EG8     -0.200600
      5 C05        -0.4200   -0.5700    1.1860 cc        1 EG8      0.310200
      6 N1'        11.0750   -4.4870   -6.2590 nb        1 EG8     -0.648000
      7 N11         4.1520   -0.2690    0.9100 nb        1 EG8     -0.764000
      8 C12         3.1050   -0.0780    1.7960 ca        1 EG8      0.786500
      9 N13         3.2530    0.3460    3.1150 nb        1 EG8     -0.689000
     10 C14         4.5040    0.5770    3.5260 ca        1 EG8      0.481200
     11 C15         5.6370    0.4090    2.6990 ca        1 EG8     -0.384600
     12 C16         5.3970   -0.0200    1.3820 ca        1 EG8      0.451600
     13 C17         6.5840   -0.1830    0.4730 c3        1 EG8     -0.157700
     14 C18         6.2380   -0.9520   -0.7970 c3        1 EG8      0.111800
     15 N19         7.4330   -1.1700   -1.6700 ny        1 EG8     -0.766000
     16 C2'        10.0010   -4.1700   -5.5140 ca        1 EG8      0.400200
     17 C20         7.0810   -1.9290   -2.9100 c3        1 EG8      0.102800
     18 C21         8.2870   -2.1550   -3.8110 c3        1 EG8     -0.111400
     19 C22         7.8570   -2.9460   -5.0380 c3        1 EG8     -0.018100
     20 C3'         9.0210   -3.2340   -5.9110 ca        1 EG8     -0.233600
     21 C4'         9.1730   -2.6150   -7.1580 ca        1 EG8     -0.079000
     22 C5'        10.2780   -2.9380   -7.9450 ca        1 EG8     -0.234300
     23 C6'        11.2040   -3.8770   -7.4540 ca        1 EG8      0.413200
     24 H02         2.1650   -0.9100   -0.7770 h5        1 EG8      0.065100
     25 H04         0.5880    0.0870    3.1150 h4        1 EG8      0.208000
     26 H05        -1.4950   -0.6110    1.3710 h4        1 EG8      0.063100
     27 H14         4.6080    0.9140    4.5770 h4        1 EG8      0.056100
     28 H15         6.6460    0.6090    3.0740 ha        1 EG8      0.167000
     29 H17         6.9610    0.8460    0.2190 hc        1 EG8      0.081200
     30 H17A        7.3890   -0.7170    1.0500 hc        1 EG8      0.081200
     31 H18         5.4720   -0.3840   -1.4030 hx        1 EG8      0.122200
     32 H18A        5.8110   -1.9630   -0.5370 hx        1 EG8      0.122200
     33 HN19        7.8360   -0.2630   -1.9330 hn        1 EG8      0.448800
     34 H20         6.6390   -2.9180   -2.5950 hx        1 EG8      0.109700
     35 H20A        6.2890   -1.3430   -3.4610 hx        1 EG8      0.109700
     36 H21         9.0870   -2.7260   -3.2670 hc        1 EG8      0.071200
     37 H21A        8.7260   -1.1750   -4.1370 hc        1 EG8      0.071200
     38 H22         7.0810   -2.3670   -5.6050 hc        1 EG8      0.063200
     39 H22A        7.3850   -3.9140   -4.7140 hc        1 EG8      0.063200
     40 H4'         8.4270   -1.8890   -7.5180 ha        1 EG8      0.141000
     41 H5'        10.4260   -2.4760   -8.9310 ha        1 EG8      0.159000
     42 H6'        12.0940   -4.1630   -8.0450 h4        1 EG8      0.040100
     43 H192        8.1490   -1.6900   -1.1490 hn        1 EG8      0.448800
     44 H2'         9.9160   -4.7010   -4.5490 h4        1 EG8      0.015100
@<TRIPOS>BOND
     1    1    2 2   
     2    1    5 1   
     3    2    3 1   
     4    2   24 1   
     5    3    4 1   
     6    3    8 1   
     7    4    5 2   
     8    4   25 1   
     9    5   26 1   
    10    6   16 ar  
    11    6   23 ar  
    12    7    8 ar  
    13    7   12 ar  
    14    8    9 ar  
    15    9   10 ar  
    16   10   11 ar  
    17   10   27 1   
    18   11   12 ar  
    19   11   28 1   
    20   12   13 1   
    21   13   14 1   
    22   13   29 1   
    23   13   30 1   
    24   14   15 1   
    25   14   31 1   
    26   14   32 1   
    27   15   17 1   
    28   15   33 1   
    29   15   43 1   
    30   16   20 ar  
    31   16   44 1   
    32   17   18 1   
    33   17   34 1   
    34   17   35 1   
    35   18   19 1   
    36   18   36 1   
    37   18   37 1   
    38   19   20 1   
    39   19   38 1   
    40   19   39 1   
    41   20   21 ar  
    42   21   22 ar  
    43   21   40 1   
    44   22   23 ar  
    45   22   41 1   
    46   23   42 1   
@<TRIPOS>SUBSTRUCTURE
     1 EG8         1 TEMP              0 ****  ****    0 ROOT
