@<TRIPOS>MOLECULE
EGB
   39    41     1     0     0
SMALL
bcc


@<TRIPOS>ATOM
      1 OAD         0.1260   -0.2710   -0.3470 oh        1 EGB     -0.498100
      2 CAR         1.4880   -0.1260   -0.2150 ca        1 EGB      0.124100
      3 CAI         2.1200   -0.0750    1.0340 ca        1 EGB     -0.195000
      4 CAG         2.2260   -0.0250   -1.4060 ca        1 EGB     -0.150000
      5 CAF         3.6070    0.1160   -1.3260 ca        1 EGB     -0.099000
      6 CAH         4.2510    0.1600   -0.0880 ca        1 EGB     -0.156000
      7 CAS         3.5100    0.0690    1.0930 ca        1 EGB     -0.084300
      8 CAT         4.1620    0.1190    2.4630 c3        1 EGB      0.199200
      9 CAQ         4.5610   -1.2700    2.8980 ce        1 EGB     -0.301400
     10 CAN         3.4960   -2.1840    3.3170 c         1 EGB      0.605300
     11 OAC         2.3320   -1.8110    3.5180 o         1 EGB     -0.553100
     12 CAJ         3.8900   -3.6250    3.4900 c3        1 EGB     -0.174400
     13 CAU         5.2750   -3.7890    4.1090 c3        1 EGB     -0.040000
     14 CAA         5.6430   -5.2680    4.1090 c3        1 EGB     -0.093600
     15 CAB         5.2730   -3.2790    5.5430 c3        1 EGB     -0.093600
     16 CAK         6.3120   -3.0310    3.2790 c3        1 EGB     -0.054200
     17 CAP         5.8780   -1.6330    2.9440 c2        1 EGB      0.113400
     18 NAL         6.8720   -0.7060    2.6440 n         1 EGB     -0.439100
     19 CAO         6.5920    0.6590    2.4720 c         1 EGB      0.556400
     20 SAE         7.8080    1.6990    2.2730 s         1 EGB     -0.538400
     21 NAM         5.2720    1.0570    2.5320 n         1 EGB     -0.490900
     22 HAD        -0.2520   -0.3650    0.5400 ho        1 EGB      0.424000
     23 HAI         1.5350   -0.1750    1.9620 ha        1 EGB      0.159000
     24 HAG         1.7060   -0.0600   -2.3740 ha        1 EGB      0.152000
     25 HAF         4.2000    0.1940   -2.2500 ha        1 EGB      0.137000
     26 HAH         5.3460    0.2620   -0.0580 ha        1 EGB      0.136000
     27 HAT         3.3830    0.5010    3.2000 h1        1 EGB      0.091700
     28 HAM         5.0840    1.9990    2.2610 hn        1 EGB      0.350500
     29 HAJ1        3.8720   -4.1070    2.4750 hc        1 EGB      0.077700
     30 HAJ2        3.1290   -4.1460    4.1290 hc        1 EGB      0.077700
     31 HAA1        5.6330   -5.6770    3.0700 hc        1 EGB      0.043367
     32 HAA2        4.9120   -5.8430    4.7250 hc        1 EGB      0.043367
     33 HAA3        6.6630   -5.4110    4.5400 hc        1 EGB      0.043367
     34 HAB1        5.0170   -2.1930    5.5670 hc        1 EGB      0.043367
     35 HAB2        6.2780   -3.4230    6.0070 hc        1 EGB      0.043367
     36 HAB3        4.5190   -3.8370    6.1480 hc        1 EGB      0.043367
     37 HAK1        6.4790   -3.5760    2.3080 hc        1 EGB      0.070200
     38 HAK2        7.2860   -3.0270    3.8380 hc        1 EGB      0.070200
     39 HAL         7.8360   -0.9600    2.7020 hn        1 EGB      0.358500
@<TRIPOS>BOND
     1    1    2 1   
     2    1   22 1   
     3    2    3 ar  
     4    2    4 ar  
     5    3    7 ar  
     6    3   23 1   
     7    4    5 ar  
     8    4   24 1   
     9    5    6 ar  
    10    5   25 1   
    11    6    7 ar  
    12    6   26 1   
    13    7    8 1   
    14    8    9 1   
    15    8   21 1   
    16    8   27 1   
    17    9   10 1   
    18    9   17 2   
    19   10   11 2   
    20   10   12 1   
    21   12   13 1   
    22   12   29 1   
    23   12   30 1   
    24   13   14 1   
    25   13   15 1   
    26   13   16 1   
    27   14   31 1   
    28   14   32 1   
    29   14   33 1   
    30   15   34 1   
    31   15   35 1   
    32   15   36 1   
    33   16   17 1   
    34   16   37 1   
    35   16   38 1   
    36   17   18 1   
    37   18   19 1   
    38   18   39 1   
    39   19   20 2   
    40   19   21 1   
    41   21   28 1   
@<TRIPOS>SUBSTRUCTURE
     1 EGB         1 TEMP              0 ****  ****    0 ROOT
