@<TRIPOS>MOLECULE
EGB
   39    41     1     0     0
SMALL
bcc


@<TRIPOS>ATOM
      1 OAD         0.0690   -0.0530   -0.0750 oh        1 EGB     -0.493100
      2 CAR         1.4440    0.0070   -0.1050 ca        1 EGB      0.123100
      3 CAI         2.0940    0.0190    1.1400 ca        1 EGB     -0.135000
      4 CAG         2.1720    0.0580   -1.3010 ca        1 EGB     -0.207000
      5 CAF         3.5630    0.1140   -1.2430 ca        1 EGB     -0.093000
      6 CAH         4.2210    0.1250   -0.0140 ca        1 EGB     -0.155000
      7 CAS         3.4880    0.0830    1.1770 ca        1 EGB     -0.090300
      8 CAT         4.1670    0.1060    2.5350 c3        1 EGB      0.199200
      9 CAQ         4.5670   -1.2920    2.9380 ce        1 EGB     -0.299400
     10 CAN         3.5060   -2.2030    3.3750 c         1 EGB      0.600300
     11 OAC         2.3570   -1.8180    3.6270 o         1 EGB     -0.542100
     12 CAJ         3.8920   -3.6510    3.5040 c3        1 EGB     -0.174400
     13 CAU         5.2900   -3.8390    4.0820 c3        1 EGB     -0.040000
     14 CAA         5.6450   -5.3210    4.0430 c3        1 EGB     -0.093600
     15 CAB         5.3300   -3.3580    5.5260 c3        1 EGB     -0.093600
     16 CAK         6.3130   -3.0730    3.2420 c3        1 EGB     -0.053200
     17 CAP         5.8820   -1.6670    2.9410 c2        1 EGB      0.109400
     18 NAL         6.8750   -0.7420    2.6260 n         1 EGB     -0.439100
     19 CAO         6.6010    0.6270    2.4910 c         1 EGB      0.557400
     20 SAE         7.8200    1.6640    2.2810 s         1 EGB     -0.542400
     21 NAM         5.2860    1.0340    2.5920 n         1 EGB     -0.490900
     22 HAD        -0.2480   -0.0590   -0.9890 ho        1 EGB      0.418000
     23 HAI         1.5020   -0.0480    2.0670 ha        1 EGB      0.172000
     24 HAG         1.6530    0.0520   -2.2700 ha        1 EGB      0.135000
     25 HAF         4.1460    0.1510   -2.1750 ha        1 EGB      0.136000
     26 HAH         5.3200    0.1640    0.0070 ha        1 EGB      0.136000
     27 HAT         3.4070    0.4800    3.2950 h1        1 EGB      0.094700
     28 HAM         5.0990    1.9850    2.3520 hn        1 EGB      0.350500
     29 HAJ1        3.1430   -4.1800    4.1510 hc        1 EGB      0.077200
     30 HAJ2        3.8420   -4.1090    2.4790 hc        1 EGB      0.077200
     31 HAA1        4.9250   -5.9020    4.6680 hc        1 EGB      0.043367
     32 HAA2        6.6750   -5.4810    4.4440 hc        1 EGB      0.043367
     33 HAA3        5.6030   -5.7080    2.9970 hc        1 EGB      0.043367
     34 HAB1        4.5870   -3.9220    6.1390 hc        1 EGB      0.043367
     35 HAB2        5.0850   -2.2700    5.5790 hc        1 EGB      0.043367
     36 HAB3        6.3460   -3.5200    5.9610 hc        1 EGB      0.043367
     37 HAK1        7.3000   -3.0850    3.7780 hc        1 EGB      0.069200
     38 HAK2        6.4540   -3.6020    2.2590 hc        1 EGB      0.069200
     39 HAL         7.8380   -1.0040    2.6590 hn        1 EGB      0.357500
@<TRIPOS>BOND
     1    1    2 1   
     2    1   22 1   
     3    2    3 ar  
     4    2    4 ar  
     5    3    7 ar  
     6    3   23 1   
     7    4    5 ar  
     8    4   24 1   
     9    5    6 ar  
    10    5   25 1   
    11    6    7 ar  
    12    6   26 1   
    13    7    8 1   
    14    8    9 1   
    15    8   21 1   
    16    8   27 1   
    17    9   10 1   
    18    9   17 2   
    19   10   11 2   
    20   10   12 1   
    21   12   13 1   
    22   12   29 1   
    23   12   30 1   
    24   13   14 1   
    25   13   15 1   
    26   13   16 1   
    27   14   31 1   
    28   14   32 1   
    29   14   33 1   
    30   15   34 1   
    31   15   35 1   
    32   15   36 1   
    33   16   17 1   
    34   16   37 1   
    35   16   38 1   
    36   17   18 1   
    37   18   19 1   
    38   18   39 1   
    39   19   20 2   
    40   19   21 1   
    41   21   28 1   
@<TRIPOS>SUBSTRUCTURE
     1 EGB         1 TEMP              0 ****  ****    0 ROOT
