@<TRIPOS>MOLECULE
EGB
   39    41     1     0     0
SMALL
bcc


@<TRIPOS>ATOM
      1 OAD         0.1240   -0.2540   -0.3370 oh        1 EGB     -0.498100
      2 CAR         1.4870   -0.1140   -0.2070 ca        1 EGB      0.124100
      3 CAI         2.1220   -0.0670    1.0400 ca        1 EGB     -0.195000
      4 CAG         2.2230   -0.0130   -1.3990 ca        1 EGB     -0.150000
      5 CAF         3.6040    0.1240   -1.3210 ca        1 EGB     -0.099000
      6 CAH         4.2510    0.1640   -0.0840 ca        1 EGB     -0.156000
      7 CAS         3.5120    0.0730    1.0980 ca        1 EGB     -0.084300
      8 CAT         4.1660    0.1200    2.4660 c3        1 EGB      0.199200
      9 CAQ         4.5620   -1.2710    2.8990 ce        1 EGB     -0.301400
     10 CAN         3.4970   -2.1840    3.3180 c         1 EGB      0.605300
     11 OAC         2.3340   -1.8070    3.5220 o         1 EGB     -0.553100
     12 CAJ         3.8880   -3.6260    3.4870 c3        1 EGB     -0.174400
     13 CAU         5.2730   -3.7950    4.1040 c3        1 EGB     -0.040000
     14 CAA         5.6370   -5.2740    4.1000 c3        1 EGB     -0.093600
     15 CAB         5.2740   -3.2870    5.5380 c3        1 EGB     -0.093600
     16 CAK         6.3100   -3.0370    3.2730 c3        1 EGB     -0.054200
     17 CAP         5.8790   -1.6380    2.9410 c2        1 EGB      0.113400
     18 NAL         6.8750   -0.7120    2.6410 ns        1 EGB     -0.439100
     19 CAO         6.5980    0.6530    2.4730 c         1 EGB      0.556400
     20 SAE         7.8160    1.6910    2.2730 s         1 EGB     -0.538400
     21 NAM         5.2790    1.0540    2.5350 ns        1 EGB     -0.490900
     22 HAD        -0.2520   -0.3490    0.5510 ho        1 EGB      0.424000
     23 HAI         1.5370   -0.1660    1.9700 ha        1 EGB      0.159000
     24 HAG         1.7020   -0.0450   -2.3660 ha        1 EGB      0.152000
     25 HAF         4.1960    0.2020   -2.2460 ha        1 EGB      0.137000
     26 HAH         5.3460    0.2630   -0.0560 ha        1 EGB      0.136000
     27 HAT         3.3900    0.5020    3.2060 h1        1 EGB      0.091700
     28 HAM         5.0930    1.9980    2.2660 hn        1 EGB      0.350500
     29 HAJ1        3.8660   -4.1060    2.4710 hc        1 EGB      0.077700
     30 HAJ2        3.1260   -4.1460    4.1270 hc        1 EGB      0.077700
     31 HAA1        6.6570   -5.4200    4.5290 hc        1 EGB      0.043367
     32 HAA2        5.6240   -5.6810    3.0610 hc        1 EGB      0.043367
     33 HAA3        4.9050   -5.8480    4.7170 hc        1 EGB      0.043367
     34 HAB1        4.5200   -3.8440    6.1440 hc        1 EGB      0.043367
     35 HAB2        6.2800   -3.4340    6.0010 hc        1 EGB      0.043367
     36 HAB3        5.0210   -2.2000    5.5650 hc        1 EGB      0.043367
     37 HAK1        6.4740   -3.5810    2.3010 hc        1 EGB      0.070200
     38 HAK2        7.2850   -3.0370    3.8310 hc        1 EGB      0.070200
     39 HAL         7.8380   -0.9690    2.6980 hn        1 EGB      0.358500
@<TRIPOS>BOND
     1    1    2 1   
     2    1   22 1   
     3    2    3 ar  
     4    2    4 ar  
     5    3    7 ar  
     6    3   23 1   
     7    4    5 ar  
     8    4   24 1   
     9    5    6 ar  
    10    5   25 1   
    11    6    7 ar  
    12    6   26 1   
    13    7    8 1   
    14    8    9 1   
    15    8   21 1   
    16    8   27 1   
    17    9   10 1   
    18    9   17 2   
    19   10   11 2   
    20   10   12 1   
    21   12   13 1   
    22   12   29 1   
    23   12   30 1   
    24   13   14 1   
    25   13   15 1   
    26   13   16 1   
    27   14   31 1   
    28   14   32 1   
    29   14   33 1   
    30   15   34 1   
    31   15   35 1   
    32   15   36 1   
    33   16   17 1   
    34   16   37 1   
    35   16   38 1   
    36   17   18 1   
    37   18   19 1   
    38   18   39 1   
    39   19   20 2   
    40   19   21 1   
    41   21   28 1   
@<TRIPOS>SUBSTRUCTURE
     1 EGB         1 TEMP              0 ****  ****    0 ROOT
