@<TRIPOS>MOLECULE
EGB
   39    41     1     0     0
SMALL
bcc


@<TRIPOS>ATOM
      1 OAD         4.7630   -1.8090   -0.2430 oh        1 EGB     -0.498100
      2 CAR         3.8400   -0.8680    0.1520 ca        1 EGB      0.124100
      3 CAI         2.6680   -0.6150   -0.5730 ca        1 EGB     -0.195000
      4 CAG         4.1310   -0.1590    1.3290 ca        1 EGB     -0.150000
      5 CAF         3.2270    0.7980    1.7740 ca        1 EGB     -0.099000
      6 CAH         2.0500    1.0550    1.0650 ca        1 EGB     -0.156000
      7 CAS         1.7720    0.3530   -0.1100 ca        1 EGB     -0.084300
      8 CAT         0.5120    0.6010   -0.9200 c3        1 EGB      0.199200
      9 CAQ        -0.6070   -0.2810   -0.4210 ce        1 EGB     -0.301400
     10 CAN        -0.5460   -1.7080   -0.7460 c         1 EGB      0.605300
     11 OAC         0.2580   -2.1750   -1.5650 o         1 EGB     -0.553100
     12 CAJ        -1.5210   -2.5950   -0.0220 c3        1 EGB     -0.174400
     13 CAU        -2.8900   -1.9470    0.1550 c3        1 EGB     -0.040000
     14 CAA        -3.7570   -2.8540    1.0200 c3        1 EGB     -0.093600
     15 CAB        -3.5630   -1.7630   -1.1970 c3        1 EGB     -0.093600
     16 CAK        -2.7440   -0.5980    0.8610 c3        1 EGB     -0.054200
     17 CAP        -1.6610    0.2540    0.2660 c2        1 EGB      0.113400
     18 NAL        -1.7430    1.6300    0.4640 n         1 EGB     -0.439100
     19 CAO        -0.8760    2.5280   -0.1770 c         1 EGB      0.556400
     20 SAE        -1.1210    4.1150   -0.0190 s         1 EGB     -0.538400
     21 NAM         0.1280    2.0030   -0.9640 n         1 EGB     -0.490900
     22 HAD         4.4240   -2.2450   -1.0390 ho        1 EGB      0.424000
     23 HAI         2.4390   -1.1900   -1.4840 ha        1 EGB      0.159000
     24 HAG         5.0610   -0.3710    1.8770 ha        1 EGB      0.152000
     25 HAF         3.4390    1.3610    2.6960 ha        1 EGB      0.137000
     26 HAH         1.3500    1.8110    1.4480 ha        1 EGB      0.136000
     27 HAT         0.7320    0.3030   -1.9970 h1        1 EGB      0.091700
     28 HAM         0.8180    2.6500   -1.2870 hn        1 EGB      0.350500
     29 HAJ1       -1.6310   -3.5620   -0.5800 hc        1 EGB      0.077700
     30 HAJ2       -1.0820   -2.8300    0.9860 hc        1 EGB      0.077700
     31 HAA1       -3.2780   -3.0250    2.0140 hc        1 EGB      0.043367
     32 HAA2       -4.7600   -2.3900    1.1810 hc        1 EGB      0.043367
     33 HAA3       -3.8960   -3.8410    0.5180 hc        1 EGB      0.043367
     34 HAB1       -3.6730   -2.7490   -1.7090 hc        1 EGB      0.043367
     35 HAB2       -4.5770   -1.3130   -1.0690 hc        1 EGB      0.043367
     36 HAB3       -2.9510   -1.0910   -1.8460 hc        1 EGB      0.043367
     37 HAK1       -3.7340   -0.0690    0.8330 hc        1 EGB      0.070200
     38 HAK2       -2.4820   -0.7730    1.9420 hc        1 EGB      0.070200
     39 HAL        -2.5250    2.0260    0.9420 hn        1 EGB      0.358500
@<TRIPOS>BOND
     1    1    2 1   
     2    1   22 1   
     3    2    3 ar  
     4    2    4 ar  
     5    3    7 ar  
     6    3   23 1   
     7    4    5 ar  
     8    4   24 1   
     9    5    6 ar  
    10    5   25 1   
    11    6    7 ar  
    12    6   26 1   
    13    7    8 1   
    14    8    9 1   
    15    8   21 1   
    16    8   27 1   
    17    9   10 1   
    18    9   17 2   
    19   10   11 2   
    20   10   12 1   
    21   12   13 1   
    22   12   29 1   
    23   12   30 1   
    24   13   14 1   
    25   13   15 1   
    26   13   16 1   
    27   14   31 1   
    28   14   32 1   
    29   14   33 1   
    30   15   34 1   
    31   15   35 1   
    32   15   36 1   
    33   16   17 1   
    34   16   37 1   
    35   16   38 1   
    36   17   18 1   
    37   18   19 1   
    38   18   39 1   
    39   19   20 2   
    40   19   21 1   
    41   21   28 1   
@<TRIPOS>SUBSTRUCTURE
     1 EGB         1 TEMP              0 ****  ****    0 ROOT
