@<TRIPOS>MOLECULE
EGB
   39    39     1     0     0
SMALL
bcc


@<TRIPOS>ATOM
      1 OAD        -1.6170    2.0850   -3.5810 oh        1 EGB     -0.247000
      2 CAR        -0.6820    1.0740   -3.2990 c2        1 EGB      0.077000
      3 CAI         0.0260    1.1000   -2.1070 c2        1 EGB     -0.133000
      4 CAG        -0.3930    0.1140   -4.2550 c1        1 EGB     -0.207000
      5 CAF         0.6030   -0.8200   -4.0200 c1        1 EGB     -0.124500
      6 CAH         1.3100   -0.7940   -2.8290 c1        1 EGB     -0.124500
      7 CAS         1.0220    0.1650   -1.8720 c1        1 EGB     -0.082000
      8 CAT         1.8620    0.2500   -0.6020 c3        1 EGB      0.111000
      9 CAQ         0.8950    0.2990    0.4640 c2        1 EGB     -0.275000
     10 CAN         0.6720    1.5360    1.3960 c2        1 EGB      0.292000
     11 OAC         1.3600    2.5270    1.2640 o         1 EGB     -0.307000
     12 CAJ        -0.1640    1.3600    2.6360 c3        1 EGB     -0.203000
     13 CAU        -1.1140    0.2440    2.5210 c3        1 EGB     -0.041000
     14 CAA        -1.8210    0.1060    3.8510 c3        1 EGB     -0.211500
     15 CAB        -2.1460    0.6250    1.4820 c3        1 EGB     -0.211500
     16 CAK        -0.5810   -1.0810    2.1580 c3        1 EGB     -0.137000
     17 CAP         0.2440   -1.0420    0.8690 c2        1 EGB      0.112000
     18 NAL         0.7870   -2.2840    0.2190 n         1 EGB     -0.283000
     19 CAO         2.0040   -2.1500   -0.6190 c2        1 EGB      0.139000
     20 SAE         2.8060   -3.5180   -1.1530 s         1 EGB     -0.258000
     21 NAM         2.6520   -0.9130   -0.6280 n         1 EGB     -0.300000
     22 HAD        -1.4910    2.3830   -4.4110 ho        1 EGB      0.217000
     23 HAI        -0.1780    1.7750   -1.4340 ha        1 EGB      0.173000
     24 HAG        -0.8910    0.0960   -5.0950 ha        1 EGB      0.135000
     25 HAF         0.8060   -1.4960   -4.6940 ha        1 EGB      0.136000
     26 HAH         2.0110   -1.4520   -2.6640 ha        1 EGB      0.136000
     27 HAT         2.3750    1.0740   -0.7040 h1        1 EGB      0.134000
     28 HAM         3.5330   -0.8610   -0.8590 hn        1 EGB      0.264000
     29 HAJ1       -0.4900    2.2410    2.9030 hc        1 EGB      0.118000
     30 HAJ2        0.3910    1.1370    3.4130 hc        1 EGB      0.118000
     31 HAA1       -2.5370   -0.5580    3.7720 hc        1 EGB      0.082667
     32 HAA2       -1.1810   -0.1840    4.5330 hc        1 EGB      0.082667
     33 HAA3       -2.2050    0.9710    4.1090 hc        1 EGB      0.082667
     34 HAB1       -2.5470   -0.1870    1.1080 hc        1 EGB      0.082667
     35 HAB2       -1.7160    1.1370    0.7660 hc        1 EGB      0.082667
     36 HAB3       -2.8450    1.1710    1.9010 hc        1 EGB      0.082667
     37 HAK1       -1.3550   -1.6800    2.1030 hc        1 EGB      0.108500
     38 HAK2        0.0670   -1.3450    2.8420 hc        1 EGB      0.108500
     39 HAL         0.5270   -3.1060    0.5180 hn        1 EGB      0.272000
@<TRIPOS>BOND
     1    1    2 1   
     2    1   22 1   
     3    2    3 1   
     4    2    4 1   
     5    3    7 1   
     6    3   23 1   
     7    4   24 1   
     8    5    6 1   
     9    5   25 1   
    10    6   26 1   
    11    7    8 1   
    12    8    9 1   
    13    8   21 1   
    14    8   27 1   
    15    9   10 1   
    16    9   17 1   
    17   10   11 1   
    18   10   12 1   
    19   12   13 1   
    20   12   29 1   
    21   12   30 1   
    22   13   14 1   
    23   13   15 1   
    24   13   16 1   
    25   14   31 1   
    26   14   32 1   
    27   14   33 1   
    28   15   34 1   
    29   15   35 1   
    30   15   36 1   
    31   16   17 1   
    32   16   37 1   
    33   16   38 1   
    34   17   18 1   
    35   18   19 1   
    36   18   39 1   
    37   19   20 1   
    38   19   21 1   
    39   21   28 1   
@<TRIPOS>SUBSTRUCTURE
     1 EGB         1 TEMP              0 ****  ****    0 ROOT
