@<TRIPOS>MOLECULE
EGC
  100   100     1     0     0
SMALL
bcc


@<TRIPOS>ATOM
      1 O1          1.1710    0.7710   -0.0810 oh        1 EGC     -0.599800
      2 C2          2.1710   -0.0720    0.4490 c3        1 EGC      0.131400
      3 C3          2.0530   -0.2030    1.9640 c3        1 EGC      0.086400
      4 O4          0.8340   -0.9020    2.2070 os        1 EGC     -0.440600
      5 C5          0.5700   -1.0690    3.5990 c3        1 EGC      0.096400
      6 C6         -0.7430   -1.8370    3.7160 c3        1 EGC      0.129400
      7 O7         -0.5250   -3.2350    3.8250 os        1 EGC     -0.432600
      8 C8         -0.2420   -3.8580    2.5690 c3        1 EGC      0.108400
      9 C9          0.2650   -5.2580    2.9040 c3        1 EGC      0.123400
     10 O10         0.8460   -5.7600    1.7010 os        1 EGC     -0.432600
     11 C11         1.0190   -7.1730    1.7310 c3        1 EGC      0.092400
     12 C12         1.5440   -7.5910    0.3610 c3        1 EGC      0.128400
     13 C14         0.2740   -6.3740   -1.2510 c3        1 EGC      0.085400
     14 C15        -1.0910   -6.4640   -1.9230 c3        1 EGC      0.125400
     15 C17        -2.3760   -6.4250    0.0800 c3        1 EGC      0.118400
     16 C18        -3.6810   -5.8210    0.5880 c3        1 EGC      0.125400
     17 C20        -4.5120   -4.4910    2.3610 c3        1 EGC      0.093400
     18 C21        -4.0440   -3.7570    3.6140 c3        1 EGC      0.126400
     19 C23        -2.9000   -5.4870    4.7640 c3        1 EGC      0.110400
     20 C24        -3.0880   -6.4300    5.9470 c3        1 EGC      0.126400
     21 C26        -3.2170   -8.7630    6.3590 c3        1 EGC      0.112400
     22 C27        -3.3890  -10.0800    5.6110 c3        1 EGC      0.128400
     23 C29        -2.0920  -10.6890    3.7130 ca        1 EGC      0.111100
     24 C30        -1.0460  -10.1080    2.9820 ca        1 EGC     -0.159500
     25 C31        -0.9310  -10.3820    1.6240 ca        1 EGC     -0.113500
     26 C32        -1.8390  -11.2330    0.9710 ca        1 EGC     -0.074300
     27 C33        -2.8800  -11.7960    1.7190 ca        1 EGC     -0.113500
     28 C34        -3.0140  -11.5320    3.0810 ca        1 EGC     -0.159500
     29 C35        -1.7000  -11.4640   -0.5110 c3        1 EGC      0.002300
     30 C36        -1.8880  -10.1060   -1.2060 c3        1 EGC     -0.093600
     31 C37        -2.7720  -12.3950   -1.0590 c3        1 EGC     -0.093600
     32 C38        -0.2950  -11.9580   -0.8920 c3        1 EGC     -0.058400
     33 C39         0.1790  -13.3600   -0.4970 c3        1 EGC     -0.049000
     34 C40         1.7100  -13.3480   -0.5490 c3        1 EGC     -0.087433
     35 C41        -0.3040  -14.4080   -1.4910 c3        1 EGC     -0.087433
     36 C42        -0.2440  -13.7530    0.9060 c3        1 EGC     -0.087433
     37 O13         0.5010   -7.6280   -0.6020 os        1 EGC     -0.434600
     38 O16        -2.1070   -5.8080   -1.1790 os        1 EGC     -0.425600
     39 O19        -3.3520   -5.0260    1.7260 os        1 EGC     -0.434600
     40 O22        -4.0270   -4.6100    4.7480 os        1 EGC     -0.425600
     41 O25        -3.3220   -7.7240    5.3920 os        1 EGC     -0.425600
     42 O28        -2.1130  -10.4610    5.0800 os        1 EGC     -0.342900
     43 H1          0.3200    0.3930    0.1750 ho        1 EGC      0.413000
     44 H21         2.1160   -1.0870   -0.0290 h1        1 EGC      0.054200
     45 H22         3.1430    0.4240    0.1860 h1        1 EGC      0.054200
     46 H31A        2.0110    0.8080    2.4480 h1        1 EGC      0.039200
     47 H32         2.9150   -0.7870    2.3780 h1        1 EGC      0.039200
     48 H51         0.4770   -0.0610    4.0840 h1        1 EGC      0.041200
     49 H52         1.4090   -1.6410    4.0780 h1        1 EGC      0.041200
     50 H61        -1.4130   -1.6030    2.8470 h1        1 EGC      0.061700
     51 H62        -1.2490   -1.5690    4.6820 h1        1 EGC      0.061700
     52 H81         0.5330   -3.2730    2.0080 h1        1 EGC      0.063200
     53 H82        -1.1890   -3.9170    1.9670 h1        1 EGC      0.063200
     54 H91        -0.5850   -5.9090    3.2390 h1        1 EGC      0.042700
     55 H92         1.0490   -5.2240    3.7050 h1        1 EGC      0.042700
     56 H111        1.7630   -7.4430    2.5270 h1        1 EGC      0.042200
     57 H112        0.0390   -7.6800    1.9450 h1        1 EGC      0.042200
     58 H121        2.3740   -6.9130    0.0330 h1        1 EGC      0.057200
     59 H122        1.9070   -8.6530    0.4160 h1        1 EGC      0.057200
     60 H141        1.0810   -6.2260   -2.0170 h1        1 EGC      0.054200
     61 H142        0.3000   -5.5340   -0.5070 h1        1 EGC      0.054200
     62 H151       -1.0760   -5.9020   -2.8960 h1        1 EGC      0.059200
     63 H152       -1.3700   -7.5380   -2.0990 h1        1 EGC      0.059200
     64 H171       -1.5250   -6.2110    0.7850 h1        1 EGC      0.053200
     65 H172       -2.4790   -7.5350   -0.0520 h1        1 EGC      0.053200
     66 H181       -4.3930   -6.6340    0.8910 h1        1 EGC      0.042700
     67 H182       -4.1580   -5.1750   -0.1960 h1        1 EGC      0.042700
     68 H201       -5.2180   -5.3210    2.6320 h1        1 EGC      0.040200
     69 H202       -5.0220   -3.7780    1.6600 h1        1 EGC      0.040200
     70 H211       -4.7930   -2.9650    3.8840 h1        1 EGC      0.060200
     71 H212       -3.0300   -3.3010    3.4470 h1        1 EGC      0.060200
     72 H231       -2.8510   -6.0600    3.7980 h1        1 EGC      0.061200
     73 H232       -1.9640   -4.8760    4.8830 h1        1 EGC      0.061200
     74 H241       -3.9710   -6.1300    6.5710 h1        1 EGC      0.041200
     75 H242       -2.1650   -6.4440    6.5840 h1        1 EGC      0.041200
     76 H261       -4.0320   -8.6490    7.1240 h1        1 EGC      0.039700
     77 H262       -2.2160   -8.7230    6.8640 h1        1 EGC      0.039700
     78 H271       -3.6760  -10.8890    6.3340 h1        1 EGC      0.059200
     79 H272       -4.1650   -9.9780    4.8100 h1        1 EGC      0.059200
     80 H30        -0.3310   -9.4450    3.4890 ha        1 EGC      0.138500
     81 H31        -0.1220   -9.8990    1.0510 ha        1 EGC      0.137000
     82 H33        -3.6180  -12.4610    1.2450 ha        1 EGC      0.137000
     83 H34        -3.8340  -11.9830    3.6570 ha        1 EGC      0.138500
     84 H361       -1.0770   -9.3960   -0.9090 hc        1 EGC      0.039533
     85 H362       -2.8730   -9.6640   -0.9210 hc        1 EGC      0.039533
     86 H363       -1.8630  -10.2360   -2.3140 hc        1 EGC      0.039533
     87 H371       -3.7790  -11.9190   -0.9740 hc        1 EGC      0.039533
     88 H372       -2.5710  -12.6050   -2.1380 hc        1 EGC      0.039533
     89 H373       -2.7910  -13.3650   -0.5070 hc        1 EGC      0.039533
     90 H381       -0.2140  -11.8840   -2.0120 hc        1 EGC      0.040200
     91 H382        0.4370  -11.2190   -0.4650 hc        1 EGC      0.040200
     92 H401        2.1210  -12.6490    0.2180 hc        1 EGC      0.034033
     93 H402        2.1090  -14.3710   -0.3450 hc        1 EGC      0.034033
     94 H403        2.0600  -13.0230   -1.5570 hc        1 EGC      0.034033
     95 H411       -1.4130  -14.5230   -1.4520 hc        1 EGC      0.034033
     96 H412        0.1560  -15.3980   -1.2530 hc        1 EGC      0.034033
     97 H413       -0.0130  -14.1230   -2.5300 hc        1 EGC      0.034033
     98 H421       -1.3550  -13.8410    0.9750 hc        1 EGC      0.034033
     99 H422        0.2100  -14.7350    1.1830 hc        1 EGC      0.034033
    100 H423        0.0930  -12.9810    1.6400 hc        1 EGC      0.034033
@<TRIPOS>BOND
     1    1    2 1   
     2    1   43 1   
     3    2    3 1   
     4    2   44 1   
     5    2   45 1   
     6    3    4 1   
     7    3   46 1   
     8    3   47 1   
     9    4    5 1   
    10    5    6 1   
    11    5   48 1   
    12    5   49 1   
    13    6    7 1   
    14    6   50 1   
    15    6   51 1   
    16    7    8 1   
    17    8    9 1   
    18    8   52 1   
    19    8   53 1   
    20    9   10 1   
    21    9   54 1   
    22    9   55 1   
    23   10   11 1   
    24   11   12 1   
    25   11   56 1   
    26   11   57 1   
    27   12   37 1   
    28   12   58 1   
    29   12   59 1   
    30   13   14 1   
    31   13   37 1   
    32   13   60 1   
    33   13   61 1   
    34   14   38 1   
    35   14   62 1   
    36   14   63 1   
    37   15   16 1   
    38   15   38 1   
    39   15   64 1   
    40   15   65 1   
    41   16   39 1   
    42   16   66 1   
    43   16   67 1   
    44   17   18 1   
    45   17   39 1   
    46   17   68 1   
    47   17   69 1   
    48   18   40 1   
    49   18   70 1   
    50   18   71 1   
    51   19   20 1   
    52   19   40 1   
    53   19   72 1   
    54   19   73 1   
    55   20   41 1   
    56   20   74 1   
    57   20   75 1   
    58   21   22 1   
    59   21   41 1   
    60   21   76 1   
    61   21   77 1   
    62   22   42 1   
    63   22   78 1   
    64   22   79 1   
    65   23   24 ar  
    66   23   28 ar  
    67   23   42 1   
    68   24   25 ar  
    69   24   80 1   
    70   25   26 ar  
    71   25   81 1   
    72   26   27 ar  
    73   26   29 1   
    74   27   28 ar  
    75   27   82 1   
    76   28   83 1   
    77   29   30 1   
    78   29   31 1   
    79   29   32 1   
    80   30   84 1   
    81   30   85 1   
    82   30   86 1   
    83   31   87 1   
    84   31   88 1   
    85   31   89 1   
    86   32   33 1   
    87   32   90 1   
    88   32   91 1   
    89   33   34 1   
    90   33   35 1   
    91   33   36 1   
    92   34   92 1   
    93   34   93 1   
    94   34   94 1   
    95   35   95 1   
    96   35   96 1   
    97   35   97 1   
    98   36   98 1   
    99   36   99 1   
   100   36  100 1   
@<TRIPOS>SUBSTRUCTURE
     1 EGC         1 TEMP              0 ****  ****    0 ROOT
