@<TRIPOS>MOLECULE
EGC
  100   100     1     0     0
SMALL
bcc


@<TRIPOS>ATOM
      1 O1         -5.5570    3.6740    3.1270 oh        1 EGC     -0.599800
      2 C2         -4.3060    3.4610    2.5090 c3        1 EGC      0.131400
      3 C3         -3.4950    2.3910    3.2340 c3        1 EGC      0.086400
      4 O4         -4.1980    1.1650    3.0440 os        1 EGC     -0.440600
      5 C5         -3.5670    0.0680    3.7030 c3        1 EGC      0.096400
      6 C6         -4.4060   -1.1720    3.4080 c3        1 EGC      0.129400
      7 O7         -3.9220   -1.8740    2.2730 os        1 EGC     -0.432600
      8 C8         -4.3190   -1.2800    1.0340 c3        1 EGC      0.108400
      9 C9         -3.4740   -1.9560   -0.0410 c3        1 EGC      0.123400
     10 O10        -3.6240   -1.1590   -1.2140 os        1 EGC     -0.432600
     11 C11        -3.2190   -1.8460   -2.3940 c3        1 EGC      0.092400
     12 C12        -3.5260   -0.9310   -3.5750 c3        1 EGC      0.128400
     13 C14        -5.6870   -0.0060   -3.1720 c3        1 EGC      0.085400
     14 C15        -7.1460   -0.4220   -3.3200 c3        1 EGC      0.125400
     15 C17        -7.0060   -2.3660   -1.9530 c3        1 EGC      0.118400
     16 C18        -7.8540   -3.0970   -0.9170 c3        1 EGC      0.125400
     17 C20        -7.7170   -3.9380    1.2920 c3        1 EGC      0.093400
     18 C21        -6.7460   -4.0410    2.4640 c3        1 EGC      0.126400
     19 C23        -4.8620   -5.0340    1.4190 c3        1 EGC      0.110400
     20 C24        -4.1560   -6.3810    1.3160 c3        1 EGC      0.126400
     21 C26        -3.6060   -7.9760   -0.3520 c3        1 EGC      0.112400
     22 C27        -3.9450   -8.3310   -1.7960 c3        1 EGC      0.128400
     23 C29        -3.9120   -6.7550   -3.5760 ca        1 EGC      0.111100
     24 C30        -3.6100   -5.3910   -3.7060 ca        1 EGC     -0.159500
     25 C31        -4.2620   -4.6410   -4.6780 ca        1 EGC     -0.113500
     26 C32        -5.2110   -5.2210   -5.5350 ca        1 EGC     -0.074300
     27 C33        -5.5030   -6.5820   -5.3820 ca        1 EGC     -0.113500
     28 C34        -4.8620   -7.3510   -4.4120 ca        1 EGC     -0.159500
     29 C35        -5.9230   -4.3570   -6.5440 c3        1 EGC      0.002300
     30 C36        -6.7170   -3.3000   -5.7600 c3        1 EGC     -0.093600
     31 C37        -6.9280   -5.1400   -7.3760 c3        1 EGC     -0.093600
     32 C38        -4.9420   -3.5890   -7.4430 c3        1 EGC     -0.058400
     33 C39        -4.0880   -4.3210   -8.4820 c3        1 EGC     -0.049000
     34 C40        -2.9050   -3.4090   -8.8180 c3        1 EGC     -0.087433
     35 C41        -4.8650   -4.5580   -9.7700 c3        1 EGC     -0.087433
     36 C42        -3.5370   -5.6390   -7.9680 c3        1 EGC     -0.087433
     37 O13        -4.9070   -0.9570   -3.9020 os        1 EGC     -0.434600
     38 O16        -7.6350   -1.1040   -2.1750 os        1 EGC     -0.425600
     39 O19        -7.0710   -3.1750    0.2740 os        1 EGC     -0.434600
     40 O22        -5.9210   -5.1920    2.3650 os        1 EGC     -0.425600
     41 O25        -4.4360   -6.8770    0.0070 os        1 EGC     -0.425600
     42 O28        -3.1740   -7.4820   -2.6560 os        1 EGC     -0.342900
     43 H1         -6.0170    2.8240    3.1290 ho        1 EGC      0.413000
     44 H21        -4.4480    3.1710    1.4340 h1        1 EGC      0.054200
     45 H22        -3.7750    4.4480    2.5750 h1        1 EGC      0.054200
     46 H31A       -3.4250    2.6200    4.3300 h1        1 EGC      0.039200
     47 H32        -2.4660    2.3120    2.7970 h1        1 EGC      0.039200
     48 H51        -2.5220   -0.0580    3.3150 h1        1 EGC      0.041200
     49 H52        -3.5380    0.2650    4.8070 h1        1 EGC      0.041200
     50 H61        -5.4850   -0.8940    3.2760 h1        1 EGC      0.061700
     51 H62        -4.2930   -1.9100    4.2470 h1        1 EGC      0.061700
     52 H81        -5.4100   -1.4830    0.8620 h1        1 EGC      0.063200
     53 H82        -4.1340   -0.1730    1.0550 h1        1 EGC      0.063200
     54 H91        -3.8380   -3.0020   -0.2200 h1        1 EGC      0.042700
     55 H92        -2.3910   -1.9820    0.2510 h1        1 EGC      0.042700
     56 H111       -2.1180   -2.0570   -2.3450 h1        1 EGC      0.042200
     57 H112       -3.7830   -2.8140   -2.4910 h1        1 EGC      0.042200
     58 H121       -3.0180   -1.3360   -4.4930 h1        1 EGC      0.057200
     59 H122       -3.1780    0.1130   -3.3660 h1        1 EGC      0.057200
     60 H141       -5.3820    0.0090   -2.0920 h1        1 EGC      0.054200
     61 H142       -5.5190    1.0060   -3.6260 h1        1 EGC      0.054200
     62 H151       -7.2800   -1.0580   -4.2370 h1        1 EGC      0.059200
     63 H152       -7.8000    0.4890   -3.3810 h1        1 EGC      0.059200
     64 H171       -6.9690   -2.9480   -2.9130 h1        1 EGC      0.053200
     65 H172       -5.9590   -2.1970   -1.5790 h1        1 EGC      0.053200
     66 H181       -8.0990   -4.1320   -1.2740 h1        1 EGC      0.042700
     67 H182       -8.8030   -2.5370   -0.7060 h1        1 EGC      0.042700
     68 H201       -8.6550   -3.4110    1.6090 h1        1 EGC      0.040200
     69 H202       -7.9720   -4.9590    0.9020 h1        1 EGC      0.040200
     70 H211       -7.3230   -4.2040    3.4140 h1        1 EGC      0.060200
     71 H212       -6.1190   -3.1110    2.5390 h1        1 EGC      0.060200
     72 H231       -5.2840   -4.7240    0.4250 h1        1 EGC      0.061200
     73 H232       -4.1580   -4.2390    1.7900 h1        1 EGC      0.061200
     74 H241       -4.5470   -7.1060    2.0780 h1        1 EGC      0.041200
     75 H242       -3.0500   -6.2520    1.4520 h1        1 EGC      0.041200
     76 H261       -2.5240   -7.6920   -0.2580 h1        1 EGC      0.039700
     77 H262       -3.8270   -8.8500    0.3180 h1        1 EGC      0.039700
     78 H271       -5.0440   -8.2270   -1.9780 h1        1 EGC      0.059200
     79 H272       -3.6080   -9.3790   -2.0150 h1        1 EGC      0.059200
     80 H30        -2.8650   -4.9340   -3.0400 ha        1 EGC      0.138500
     81 H31        -4.0380   -3.5630   -4.7550 ha        1 EGC      0.137000
     82 H33        -6.2460   -7.0740   -6.0270 ha        1 EGC      0.137000
     83 H34        -5.0980   -8.4190   -4.3050 ha        1 EGC      0.138500
     84 H361       -6.0260   -2.6320   -5.1880 hc        1 EGC      0.039533
     85 H362       -7.4110   -3.7970   -5.0410 hc        1 EGC      0.039533
     86 H363       -7.3190   -2.6750   -6.4620 hc        1 EGC      0.039533
     87 H371       -7.7620   -5.5090   -6.7310 hc        1 EGC      0.039533
     88 H372       -7.3590   -4.4760   -8.1650 hc        1 EGC      0.039533
     89 H373       -6.4490   -6.0170   -7.8730 hc        1 EGC      0.039533
     90 H381       -5.5430   -2.8140   -7.9960 hc        1 EGC      0.040200
     91 H382       -4.2430   -3.0300   -6.7610 hc        1 EGC      0.040200
     92 H401       -2.2570   -3.2640   -7.9210 hc        1 EGC      0.034033
     93 H402       -3.2720   -2.4120   -9.1610 hc        1 EGC      0.034033
     94 H403       -2.2890   -3.8610   -9.6310 hc        1 EGC      0.034033
     95 H411       -5.2890   -3.5980  -10.1510 hc        1 EGC      0.034033
     96 H412       -4.1860   -4.9790  -10.5510 hc        1 EGC      0.034033
     97 H413       -5.7010   -5.2780   -9.6130 hc        1 EGC      0.034033
     98 H421       -2.8420   -6.0840   -8.7210 hc        1 EGC      0.034033
     99 H422       -2.9790   -5.4780   -7.0140 hc        1 EGC      0.034033
    100 H423       -4.3630   -6.3650   -7.7730 hc        1 EGC      0.034033
@<TRIPOS>BOND
     1    1    2 1   
     2    1   43 1   
     3    2    3 1   
     4    2   44 1   
     5    2   45 1   
     6    3    4 1   
     7    3   46 1   
     8    3   47 1   
     9    4    5 1   
    10    5    6 1   
    11    5   48 1   
    12    5   49 1   
    13    6    7 1   
    14    6   50 1   
    15    6   51 1   
    16    7    8 1   
    17    8    9 1   
    18    8   52 1   
    19    8   53 1   
    20    9   10 1   
    21    9   54 1   
    22    9   55 1   
    23   10   11 1   
    24   11   12 1   
    25   11   56 1   
    26   11   57 1   
    27   12   37 1   
    28   12   58 1   
    29   12   59 1   
    30   13   14 1   
    31   13   37 1   
    32   13   60 1   
    33   13   61 1   
    34   14   38 1   
    35   14   62 1   
    36   14   63 1   
    37   15   16 1   
    38   15   38 1   
    39   15   64 1   
    40   15   65 1   
    41   16   39 1   
    42   16   66 1   
    43   16   67 1   
    44   17   18 1   
    45   17   39 1   
    46   17   68 1   
    47   17   69 1   
    48   18   40 1   
    49   18   70 1   
    50   18   71 1   
    51   19   20 1   
    52   19   40 1   
    53   19   72 1   
    54   19   73 1   
    55   20   41 1   
    56   20   74 1   
    57   20   75 1   
    58   21   22 1   
    59   21   41 1   
    60   21   76 1   
    61   21   77 1   
    62   22   42 1   
    63   22   78 1   
    64   22   79 1   
    65   23   24 ar  
    66   23   28 ar  
    67   23   42 1   
    68   24   25 ar  
    69   24   80 1   
    70   25   26 ar  
    71   25   81 1   
    72   26   27 ar  
    73   26   29 1   
    74   27   28 ar  
    75   27   82 1   
    76   28   83 1   
    77   29   30 1   
    78   29   31 1   
    79   29   32 1   
    80   30   84 1   
    81   30   85 1   
    82   30   86 1   
    83   31   87 1   
    84   31   88 1   
    85   31   89 1   
    86   32   33 1   
    87   32   90 1   
    88   32   91 1   
    89   33   34 1   
    90   33   35 1   
    91   33   36 1   
    92   34   92 1   
    93   34   93 1   
    94   34   94 1   
    95   35   95 1   
    96   35   96 1   
    97   35   97 1   
    98   36   98 1   
    99   36   99 1   
   100   36  100 1   
@<TRIPOS>SUBSTRUCTURE
     1 EGC         1 TEMP              0 ****  ****    0 ROOT
