@<TRIPOS>MOLECULE
EGC
  100   100     1     0     0
SMALL
bcc


@<TRIPOS>ATOM
      1 O1          1.1810    0.7600   -0.1090 oh        1 EGC     -0.599800
      2 C2          2.1800   -0.0820    0.4240 c3        1 EGC      0.131400
      3 C3          2.0610   -0.2070    1.9400 c3        1 EGC      0.086400
      4 O4          0.8410   -0.9030    2.1860 os        1 EGC     -0.440600
      5 C5          0.5780   -1.0650    3.5790 c3        1 EGC      0.096400
      6 C6         -0.7360   -1.8310    3.6990 c3        1 EGC      0.129400
      7 O7         -0.5190   -3.2290    3.8120 os        1 EGC     -0.432600
      8 C8         -0.2370   -3.8560    2.5580 c3        1 EGC      0.108400
      9 C9          0.2690   -5.2550    2.8980 c3        1 EGC      0.123400
     10 O10         0.8490   -5.7620    1.6970 os        1 EGC     -0.432600
     11 C11         1.0200   -7.1760    1.7310 c3        1 EGC      0.092400
     12 C12         1.5440   -7.5980    0.3620 c3        1 EGC      0.128400
     13 C14         0.2760   -6.3850   -1.2530 c3        1 EGC      0.085400
     14 C15        -1.0890   -6.4740   -1.9260 c3        1 EGC      0.125400
     15 C17        -2.3740   -6.4270    0.0770 c3        1 EGC      0.118400
     16 C18        -3.6790   -5.8210    0.5830 c3        1 EGC      0.125400
     17 C20        -4.5090   -4.4840    2.3520 c3        1 EGC      0.093400
     18 C21        -4.0400   -3.7470    3.6030 c3        1 EGC      0.126400
     19 C23        -2.8970   -5.4750    4.7580 c3        1 EGC      0.110400
     20 C24        -3.0870   -6.4140    5.9440 c3        1 EGC      0.126400
     21 C26        -3.2200   -8.7450    6.3630 c3        1 EGC      0.112400
     22 C27        -3.3930  -10.0650    5.6180 c3        1 EGC      0.128400
     23 C29        -2.0970  -10.6820    3.7220 ca        1 EGC      0.111100
     24 C30        -1.0500  -10.1040    2.9900 ca        1 EGC     -0.159500
     25 C31        -0.9350  -10.3820    1.6330 ca        1 EGC     -0.113500
     26 C32        -1.8430  -11.2340    0.9830 ca        1 EGC     -0.074300
     27 C33        -2.8860  -11.7930    1.7320 ca        1 EGC     -0.113500
     28 C34        -3.0190  -11.5250    3.0930 ca        1 EGC     -0.159500
     29 C35        -1.7040  -11.4700   -0.4990 c3        1 EGC      0.002300
     30 C36        -1.8910  -10.1140   -1.1980 c3        1 EGC     -0.093600
     31 C37        -2.7770  -12.4010   -1.0440 c3        1 EGC     -0.093600
     32 C38        -0.3010  -11.9660   -0.8780 c3        1 EGC     -0.058400
     33 C39         0.1730  -13.3670   -0.4790 c3        1 EGC     -0.049000
     34 C40         1.7030  -13.3580   -0.5310 c3        1 EGC     -0.087433
     35 C41        -0.3120  -14.4180   -1.4690 c3        1 EGC     -0.087433
     36 C42        -0.2510  -13.7550    0.9250 c3        1 EGC     -0.087433
     37 O13         0.5010   -7.6370   -0.6000 os        1 EGC     -0.434600
     38 O16        -2.1040   -5.8150   -1.1840 os        1 EGC     -0.425600
     39 O19        -3.3490   -5.0220    1.7190 os        1 EGC     -0.434600
     40 O22        -4.0240   -4.5970    4.7400 os        1 EGC     -0.425600
     41 O25        -3.3230   -7.7100    5.3930 os        1 EGC     -0.425600
     42 O28        -2.1180  -10.4490    5.0890 os        1 EGC     -0.342900
     43 H1          0.3290    0.3840    0.1490 ho        1 EGC      0.413000
     44 H21         2.1230   -1.0980   -0.0500 h1        1 EGC      0.054200
     45 H22         3.1520    0.4120    0.1590 h1        1 EGC      0.054200
     46 H31A        2.0210    0.8060    2.4200 h1        1 EGC      0.039200
     47 H32         2.9230   -0.7890    2.3570 h1        1 EGC      0.039200
     48 H51         0.4850   -0.0550    4.0600 h1        1 EGC      0.041200
     49 H52         1.4160   -1.6350    4.0590 h1        1 EGC      0.041200
     50 H61        -1.4060   -1.5990    2.8290 h1        1 EGC      0.061700
     51 H62        -1.2420   -1.5590    4.6640 h1        1 EGC      0.061700
     52 H81         0.5380   -3.2740    1.9950 h1        1 EGC      0.063200
     53 H82        -1.1840   -3.9170    1.9560 h1        1 EGC      0.063200
     54 H91        -0.5830   -5.9040    3.2350 h1        1 EGC      0.042700
     55 H92         1.0520   -5.2200    3.6990 h1        1 EGC      0.042700
     56 H111        1.7620   -7.4440    2.5290 h1        1 EGC      0.042200
     57 H112        0.0380   -7.6800    1.9460 h1        1 EGC      0.042200
     58 H121        2.3750   -6.9230    0.0320 h1        1 EGC      0.057200
     59 H122        1.9050   -8.6610    0.4210 h1        1 EGC      0.057200
     60 H141        1.0830   -6.2400   -2.0200 h1        1 EGC      0.054200
     61 H142        0.3030   -5.5430   -0.5120 h1        1 EGC      0.054200
     62 H151       -1.0730   -5.9160   -2.9010 h1        1 EGC      0.059200
     63 H152       -1.3700   -7.5490   -2.0990 h1        1 EGC      0.059200
     64 H171       -1.5230   -6.2130    0.7820 h1        1 EGC      0.053200
     65 H172       -2.4790   -7.5380   -0.0510 h1        1 EGC      0.053200
     66 H181       -4.3920   -6.6310    0.8880 h1        1 EGC      0.042700
     67 H182       -4.1540   -5.1760   -0.2030 h1        1 EGC      0.042700
     68 H201       -5.2150   -5.3120    2.6260 h1        1 EGC      0.040200
     69 H202       -5.0170   -3.7730    1.6490 h1        1 EGC      0.040200
     70 H211       -4.7870   -2.9530    3.8710 h1        1 EGC      0.060200
     71 H212       -3.0250   -3.2920    3.4350 h1        1 EGC      0.060200
     72 H231       -2.8490   -6.0510    3.7940 h1        1 EGC      0.061200
     73 H232       -1.9610   -4.8640    4.8760 h1        1 EGC      0.061200
     74 H241       -3.9700   -6.1110    6.5670 h1        1 EGC      0.041200
     75 H242       -2.1640   -6.4280    6.5810 h1        1 EGC      0.041200
     76 H261       -4.0340   -8.6280    7.1270 h1        1 EGC      0.039700
     77 H262       -2.2190   -8.7060    6.8680 h1        1 EGC      0.039700
     78 H271       -3.6820  -10.8710    6.3430 h1        1 EGC      0.059200
     79 H272       -4.1680   -9.9640    4.8170 h1        1 EGC      0.059200
     80 H30        -0.3340   -9.4400    3.4950 ha        1 EGC      0.138500
     81 H31        -0.1250   -9.9020    1.0580 ha        1 EGC      0.137000
     82 H33        -3.6240  -12.4590    1.2600 ha        1 EGC      0.137000
     83 H34        -3.8400  -11.9730    3.6700 ha        1 EGC      0.138500
     84 H361       -1.0800   -9.4030   -0.9030 hc        1 EGC      0.039533
     85 H362       -2.8760   -9.6700   -0.9150 hc        1 EGC      0.039533
     86 H363       -1.8660  -10.2460   -2.3050 hc        1 EGC      0.039533
     87 H371       -3.7840  -11.9240   -0.9610 hc        1 EGC      0.039533
     88 H372       -2.5770  -12.6150   -2.1230 hc        1 EGC      0.039533
     89 H373       -2.7970  -13.3690   -0.4890 hc        1 EGC      0.039533
     90 H381       -0.2190  -11.8960   -1.9980 hc        1 EGC      0.040200
     91 H382        0.4330  -11.2270   -0.4530 hc        1 EGC      0.040200
     92 H401        2.1150  -12.6570    0.2340 hc        1 EGC      0.034033
     93 H402        2.1010  -14.3800   -0.3240 hc        1 EGC      0.034033
     94 H403        2.0540  -13.0350   -1.5400 hc        1 EGC      0.034033
     95 H411       -1.4200  -14.5310   -1.4300 hc        1 EGC      0.034033
     96 H412        0.1470  -15.4080   -1.2280 hc        1 EGC      0.034033
     97 H413       -0.0200  -14.1370   -2.5100 hc        1 EGC      0.034033
     98 H421       -1.3620  -13.8430    0.9940 hc        1 EGC      0.034033
     99 H422        0.2010  -14.7370    1.2050 hc        1 EGC      0.034033
    100 H423        0.0860  -12.9820    1.6570 hc        1 EGC      0.034033
@<TRIPOS>BOND
     1    1    2 1   
     2    1   43 1   
     3    2    3 1   
     4    2   44 1   
     5    2   45 1   
     6    3    4 1   
     7    3   46 1   
     8    3   47 1   
     9    4    5 1   
    10    5    6 1   
    11    5   48 1   
    12    5   49 1   
    13    6    7 1   
    14    6   50 1   
    15    6   51 1   
    16    7    8 1   
    17    8    9 1   
    18    8   52 1   
    19    8   53 1   
    20    9   10 1   
    21    9   54 1   
    22    9   55 1   
    23   10   11 1   
    24   11   12 1   
    25   11   56 1   
    26   11   57 1   
    27   12   37 1   
    28   12   58 1   
    29   12   59 1   
    30   13   14 1   
    31   13   37 1   
    32   13   60 1   
    33   13   61 1   
    34   14   38 1   
    35   14   62 1   
    36   14   63 1   
    37   15   16 1   
    38   15   38 1   
    39   15   64 1   
    40   15   65 1   
    41   16   39 1   
    42   16   66 1   
    43   16   67 1   
    44   17   18 1   
    45   17   39 1   
    46   17   68 1   
    47   17   69 1   
    48   18   40 1   
    49   18   70 1   
    50   18   71 1   
    51   19   20 1   
    52   19   40 1   
    53   19   72 1   
    54   19   73 1   
    55   20   41 1   
    56   20   74 1   
    57   20   75 1   
    58   21   22 1   
    59   21   41 1   
    60   21   76 1   
    61   21   77 1   
    62   22   42 1   
    63   22   78 1   
    64   22   79 1   
    65   23   24 ar  
    66   23   28 ar  
    67   23   42 1   
    68   24   25 ar  
    69   24   80 1   
    70   25   26 ar  
    71   25   81 1   
    72   26   27 ar  
    73   26   29 1   
    74   27   28 ar  
    75   27   82 1   
    76   28   83 1   
    77   29   30 1   
    78   29   31 1   
    79   29   32 1   
    80   30   84 1   
    81   30   85 1   
    82   30   86 1   
    83   31   87 1   
    84   31   88 1   
    85   31   89 1   
    86   32   33 1   
    87   32   90 1   
    88   32   91 1   
    89   33   34 1   
    90   33   35 1   
    91   33   36 1   
    92   34   92 1   
    93   34   93 1   
    94   34   94 1   
    95   35   95 1   
    96   35   96 1   
    97   35   97 1   
    98   36   98 1   
    99   36   99 1   
   100   36  100 1   
@<TRIPOS>SUBSTRUCTURE
     1 EGC         1 TEMP              0 ****  ****    0 ROOT
