@<TRIPOS>MOLECULE
EGD
   17    16     1     0     0
SMALL
bcc


@<TRIPOS>ATOM
      1 CG         -0.0710   -0.0020   -0.0540 c3        1 EGD     -0.155100
      2 CD          1.4390   -0.0010    0.0020 c3        1 EGD      0.119800
      3 NE          1.9250   -0.0010    1.4440 n4        1 EGD     -0.790000
      4 CZ          3.4240    0.0010    1.5580 c2        1 EGD      0.606100
      5 NH1         4.3030   -0.0000    0.6390 n2        1 EGD     -0.586100
      6 NH2         3.9360    0.0030    2.9780 n4        1 EGD     -0.823600
      7 HG1        -0.5180    0.9120    0.4120 hc        1 EGD      0.112033
      8 HG2        -0.3620   -0.0010   -1.1430 hc        1 EGD      0.112033
      9 HG3        -0.5170   -0.9160    0.4110 hc        1 EGD      0.112033
     10 HD1         1.8470   -0.9270   -0.4980 hx        1 EGD      0.123700
     11 HD2         1.8460    0.9270   -0.4970 hx        1 EGD      0.123700
     12 HNE         1.5340   -0.8400    1.9050 hn        1 EGD      0.483800
     13 HH1         4.1130   -0.0020   -0.3480 hn        1 EGD      0.543400
     14 HH21        3.6240    0.8510    3.4770 hn        1 EGD      0.512133
     15 HH22        4.9810    0.0030    2.9670 hn        1 EGD      0.512133
     16 HE3         1.5320    0.8360    1.9050 hn        1 EGD      0.483800
     17 HH23        3.6240   -0.8420    3.4810 hn        1 EGD      0.512133
@<TRIPOS>BOND
     1    1    2 1   
     2    1    7 1   
     3    1    8 1   
     4    1    9 1   
     5    2    3 1   
     6    2   10 1   
     7    2   11 1   
     8    3    4 1   
     9    3   12 1   
    10    3   16 1   
    11    4    5 2   
    12    4    6 1   
    13    5   13 1   
    14    6   14 1   
    15    6   15 1   
    16    6   17 1   
@<TRIPOS>SUBSTRUCTURE
     1 EGD         1 TEMP              0 ****  ****    0 ROOT
