@<TRIPOS>MOLECULE
EGD
   15    13     1     0     0
SMALL
bcc


@<TRIPOS>ATOM
      1 CG         -2.0900    0.0280   -0.8430 c3        1 EGD     -0.107100
      2 CD         -0.5770    0.0280   -0.8430 c3        1 EGD      0.185800
      3 NE         -0.1030    0.0280    0.4970 nh        1 EGD     -0.778000
      4 CZ          1.2850    0.1560    0.7590 c2        1 EGD      0.322000
      5 NH1         1.8100    1.3380    0.9380 n1        1 EGD     -0.353000
      6 NH2         2.1030   -1.0010    0.8260 nh        1 EGD     -0.809600
      7 HG1        -2.4160    0.7920   -0.3300 hc        1 EGD      0.043367
      8 HG2        -2.4160   -0.7980   -0.4380 hc        1 EGD      0.043367
      9 HG3        -2.4160    0.0910   -1.7610 hc        1 EGD      0.043367
     10 HD1        -0.2520   -0.7690   -1.3030 h1        1 EGD      0.041200
     11 HD2        -0.2520    0.8250   -1.3030 h1        1 EGD      0.041200
     12 HNE        -0.6920   -0.0570    1.1890 hn        1 EGD      0.394800
     13 HH1         1.2840    2.0820    0.8950 DU        1 EGD      0.145000
     14 HH21        3.0110   -0.9170    0.8550 hn        1 EGD      0.393800
     15 HH22        1.7210   -1.8290    0.8620 hn        1 EGD      0.393800
@<TRIPOS>BOND
     1    1    2 1   
     2    1    7 1   
     3    1    8 1   
     4    1    9 1   
     5    2    3 1   
     6    2   10 1   
     7    2   11 1   
     8    3    4 1   
     9    3   12 1   
    10    4    5 2   
    11    4    6 1   
    12    6   14 1   
    13    6   15 1   
@<TRIPOS>SUBSTRUCTURE
     1 EGD         1 TEMP              0 ****  ****    0 ROOT
