@<TRIPOS>MOLECULE
EGD
   17    16     1     0     0
SMALL
bcc


@<TRIPOS>ATOM
      1 CG         -0.0700    0.0010   -0.0560 c3        1 EGD     -0.155100
      2 CD          1.4400   -0.0020    0.0020 c3        1 EGD      0.119800
      3 NE          1.9240    0.0020    1.4440 ny        1 EGD     -0.790000
      4 CZ          3.4230   -0.0010    1.5590 c2        1 EGD      0.606100
      5 NH1         4.3040   -0.0050    0.6410 n2        1 EGD     -0.586100
      6 NH2         3.9340    0.0010    2.9790 nz        1 EGD     -0.823600
      7 HG1        -0.3600   -0.0020   -1.1460 hc        1 EGD      0.112033
      8 HG2        -0.5160    0.9170    0.4060 hc        1 EGD      0.112033
      9 HG3        -0.5190   -0.9100    0.4120 hc        1 EGD      0.112033
     10 HD1         1.8490    0.9230   -0.5010 hx        1 EGD      0.123700
     11 HD2         1.8460   -0.9310   -0.4950 hx        1 EGD      0.123700
     12 HNE         1.5350    0.8430    1.9010 hn        1 EGD      0.483800
     13 HH1         4.1140   -0.0060   -0.3460 hn        1 EGD      0.543400
     14 HH21        3.6200   -0.8440    3.4820 hn        1 EGD      0.512133
     15 HH22        4.9790   -0.0020    2.9690 hn        1 EGD      0.512133
     16 HE3         1.5300   -0.8330    1.9070 hn        1 EGD      0.483800
     17 HH23        3.6240    0.8490    3.4780 hn        1 EGD      0.512133
@<TRIPOS>BOND
     1    1    2 1   
     2    1    7 1   
     3    1    8 1   
     4    1    9 1   
     5    2    3 1   
     6    2   10 1   
     7    2   11 1   
     8    3    4 1   
     9    3   12 1   
    10    3   16 1   
    11    4    5 2   
    12    4    6 1   
    13    5   13 1   
    14    6   14 1   
    15    6   15 1   
    16    6   17 1   
@<TRIPOS>SUBSTRUCTURE
     1 EGD         1 TEMP              0 ****  ****    0 ROOT
