@<TRIPOS>MOLECULE
EGD
   15    14     1     0     0
SMALL
bcc


@<TRIPOS>ATOM
      1 CG          2.7280   -0.3080    0.0540 c3        1 EGD     -0.105100
      2 CD          1.3880    0.4100    0.0250 c3        1 EGD      0.182800
      3 NE          0.2670   -0.5090    0.0910 nh        1 EGD     -0.796200
      4 CZ         -1.0520    0.0530   -0.0350 c2        1 EGD      0.744100
      5 NH1        -1.2280    1.3520   -0.0620 n2        1 EGD     -0.872100
      6 NH2        -2.1090   -0.9170   -0.1340 nh        1 EGD     -0.934800
      7 HG1         3.5410    0.4580    0.0430 hc        1 EGD      0.040367
      8 HG2         2.8370   -0.9290    0.9750 hc        1 EGD      0.040367
      9 HG3         2.8540   -0.9700   -0.8370 hc        1 EGD      0.040367
     10 HD1         1.3150    1.0950    0.9180 h1        1 EGD      0.053700
     11 HD2         1.3470    1.0570   -0.8990 h1        1 EGD      0.053700
     12 HNE         0.3960   -1.2920   -0.5230 hn        1 EGD      0.387800
     13 HH1        -2.1770    1.6560   -0.0570 hn        1 EGD      0.389400
     14 HH21       -1.8730   -1.8340    0.1770 hn        1 EGD      0.388300
     15 HH22       -2.9670   -0.6030    0.2650 hn        1 EGD      0.388300
@<TRIPOS>BOND
     1    1    2 1   
     2    1    7 1   
     3    1    8 1   
     4    1    9 1   
     5    2    3 1   
     6    2   10 1   
     7    2   11 1   
     8    3    4 1   
     9    3   12 1   
    10    4    5 2   
    11    4    6 1   
    12    5   13 1   
    13    6   14 1   
    14    6   15 1   
@<TRIPOS>SUBSTRUCTURE
     1 EGD         1 TEMP              0 ****  ****    0 ROOT
