@<TRIPOS>MOLECULE
EGG
   51    54     1     0     0
SMALL
bcc


@<TRIPOS>ATOM
      1 O1         -2.3440   -0.4060    0.6040 os        1 EGG     -0.308900
      2 C2         -1.9500   -1.0590   -0.6170 c3        1 EGG      0.196400
      3 C3         -1.2020   -0.0970   -1.5530 c3        1 EGG      0.133100
      4 C4         -2.1000    1.0840   -1.9070 c3        1 EGG     -0.047100
      5 C5         -2.9200    1.5460   -0.7600 ca        1 EGG     -0.259300
      6 C6         -3.6300    2.7600   -0.8140 ca        1 EGG      0.198100
      7 C7         -4.3770    3.2270    0.2770 ca        1 EGG     -0.274000
      8 C8         -4.4130    2.4550    1.4440 ca        1 EGG      0.184100
      9 C9         -3.7390    1.2300    1.5370 ca        1 EGG     -0.215000
     10 C10        -3.0040    0.7960    0.4270 ca        1 EGG      0.193100
     11 C11        -1.1390   -2.2570   -0.2290 ca        1 EGG     -0.055300
     12 C12        -1.3200   -3.4500   -0.9350 ca        1 EGG     -0.159000
     13 C13        -0.5660   -4.5790   -0.5900 ca        1 EGG      0.106100
     14 C14         0.3630   -4.5190    0.4680 ca        1 EGG      0.029100
     15 C15         0.5250   -3.3100    1.1690 ca        1 EGG      0.106100
     16 C16        -0.2220   -2.1800    0.8220 ca        1 EGG     -0.159000
     17 O17        -0.0310    0.3510   -0.8470 os        1 EGG     -0.419900
     18 C18         0.9940    0.8680   -1.5950 c         1 EGG      0.655700
     19 O18        -3.6470    3.5740   -1.9220 oh        1 EGG     -0.495100
     20 C19         2.1750    1.2480   -0.8030 ca        1 EGG     -0.098600
     21 O19        -5.1170    2.8470    2.5570 oh        1 EGG     -0.491100
     22 C20         3.2800    1.7730   -1.4860 ca        1 EGG     -0.127000
     23 O20        -0.7760   -5.7230   -1.3210 oh        1 EGG     -0.504100
     24 C21         4.4170    2.1370   -0.7630 ca        1 EGG      0.092600
     25 O21         1.0680   -5.6680    0.7510 oh        1 EGG     -0.513100
     26 C22         4.4610    1.9780    0.6360 ca        1 EGG      0.056100
     27 O22         1.4490   -3.3240    2.1930 oh        1 EGG     -0.504100
     28 C23         3.3390    1.4480    1.3050 ca        1 EGG      0.092600
     29 O23         0.8420    0.9630   -2.8170 o         1 EGG     -0.549000
     30 C24         2.1920    1.0860    0.5840 ca        1 EGG     -0.127000
     31 O24         5.5520    2.6640   -1.3430 oh        1 EGG     -0.501600
     32 O25         5.5490    2.3120    1.4070 oh        1 EGG     -0.507100
     33 O26         3.3130    1.2520    2.6640 oh        1 EGG     -0.501600
     34 H2         -2.8890   -1.3810   -1.1550 h1        1 EGG      0.070700
     35 H3         -0.8840   -0.6370   -2.4870 h1        1 EGG      0.088700
     36 H4         -1.4420    1.9180   -2.2790 hc        1 EGG      0.064200
     37 H4A        -2.7720    0.7750   -2.7530 hc        1 EGG      0.064200
     38 H7         -4.9140    4.1810    0.2010 ha        1 EGG      0.154000
     39 H9         -3.7820    0.6290    2.4550 ha        1 EGG      0.170000
     40 H12        -2.0460   -3.5250   -1.7560 ha        1 EGG      0.156500
     41 H16        -0.0940   -1.2310    1.3630 ha        1 EGG      0.156500
     42 HO18       -3.1160    3.1630   -2.6190 ho        1 EGG      0.425000
     43 HO19       -5.5350    3.7000    2.3620 ho        1 EGG      0.424000
     44 H20         3.2420    1.8920   -2.5800 ha        1 EGG      0.169500
     45 HO20       -0.2040   -6.4190   -0.9610 ho        1 EGG      0.439500
     46 HO21        1.6380   -5.4840    1.5140 ho        1 EGG      0.448000
     47 HO22        1.4600   -2.4420    2.5940 ho        1 EGG      0.439500
     48 H24         1.3170    0.6810    1.1170 ha        1 EGG      0.169500
     49 HO24        5.4000    2.7170   -2.2990 ho        1 EGG      0.440500
     50 HO25        6.2330    2.6720    0.8200 ho        1 EGG      0.453000
     51 HO26        4.1480    1.5840    3.0320 ho        1 EGG      0.440500
@<TRIPOS>BOND
     1    1    2 1   
     2    1   10 1   
     3    2    3 1   
     4    2   11 1   
     5    2   34 1   
     6    3    4 1   
     7    3   17 1   
     8    3   35 1   
     9    4    5 1   
    10    4   36 1   
    11    4   37 1   
    12    5    6 ar  
    13    5   10 ar  
    14    6    7 ar  
    15    6   19 1   
    16    7    8 ar  
    17    7   38 1   
    18    8    9 ar  
    19    8   21 1   
    20    9   10 ar  
    21    9   39 1   
    22   11   12 ar  
    23   11   16 ar  
    24   12   13 ar  
    25   12   40 1   
    26   13   14 ar  
    27   13   23 1   
    28   14   15 ar  
    29   14   25 1   
    30   15   16 ar  
    31   15   27 1   
    32   16   41 1   
    33   17   18 1   
    34   18   20 1   
    35   18   29 2   
    36   19   42 1   
    37   20   22 ar  
    38   20   30 ar  
    39   21   43 1   
    40   22   24 ar  
    41   22   44 1   
    42   23   45 1   
    43   24   26 ar  
    44   24   31 1   
    45   25   46 1   
    46   26   28 ar  
    47   26   32 1   
    48   27   47 1   
    49   28   30 ar  
    50   28   33 1   
    51   30   48 1   
    52   31   49 1   
    53   32   50 1   
    54   33   51 1   
@<TRIPOS>SUBSTRUCTURE
     1 EGG         1 TEMP              0 ****  ****    0 ROOT
