@<TRIPOS>MOLECULE
EGG
   51    54     1     0     0
SMALL
bcc


@<TRIPOS>ATOM
      1 O1         -0.0330   -0.0480    0.0450 os        1 EGG     -0.304900
      2 C2          1.4060   -0.0890    0.0820 c3        1 EGG      0.195400
      3 C3          1.9440   -0.0310    1.5210 c3        1 EGG      0.126100
      4 C4          1.4870    1.2620    2.1880 c3        1 EGG     -0.035100
      5 C5          0.0880    1.6050    1.8430 ca        1 EGG     -0.203300
      6 C6         -0.6050    2.5950    2.5650 ca        1 EGG      0.192100
      7 C7         -1.9360    2.9210    2.2800 ca        1 EGG     -0.328000
      8 C8         -2.5880    2.2350    1.2460 ca        1 EGG      0.187100
      9 C9         -1.9360    1.2500    0.4930 ca        1 EGG     -0.212000
     10 C10        -0.6020    0.9530    0.8070 ca        1 EGG      0.189100
     11 C11         1.8270   -1.3220   -0.6590 ca        1 EGG     -0.055300
     12 C12         2.9260   -1.2420   -1.5220 ca        1 EGG     -0.158000
     13 C13         3.3360   -2.3830   -2.2170 ca        1 EGG      0.106100
     14 C14         2.6510   -3.6020   -2.0650 ca        1 EGG      0.027100
     15 C15         1.5430   -3.6630   -1.1970 ca        1 EGG      0.106100
     16 C16         1.1340   -2.5200   -0.4930 ca        1 EGG     -0.158000
     17 O17         1.4110   -1.1670    2.2230 os        1 EGG     -0.417900
     18 C18         2.1140   -1.6220    3.3080 c         1 EGG      0.656700
     19 O18         0.0970    3.2240    3.5670 oh        1 EGG     -0.493100
     20 C19         1.4910   -2.7730    3.9820 ca        1 EGG     -0.099600
     21 O19        -3.8940    2.4940    0.9060 oh        1 EGG     -0.490100
     22 C20         2.1570   -3.3160    5.0900 ca        1 EGG     -0.125000
     23 O20         4.4120   -2.3990   -3.0820 oh        1 EGG     -0.501100
     24 C21         1.5950   -4.4050    5.7560 ca        1 EGG      0.092600
     25 O21         3.0010   -4.7630   -2.7200 oh        1 EGG     -0.512100
     26 C22         0.3720   -4.9560    5.3270 ca        1 EGG      0.052100
     27 O22         0.8260   -4.8160   -0.9980 oh        1 EGG     -0.501100
     28 C23        -0.2830   -4.3970    4.2110 ca        1 EGG      0.092600
     29 O23         3.1650   -1.0500    3.6120 o         1 EGG     -0.550000
     30 C24         0.2800   -3.3030    3.5360 ca        1 EGG     -0.125000
     31 O24         2.1750   -5.0080    6.8540 oh        1 EGG     -0.499600
     32 O25        -0.2370   -6.0260    5.9400 oh        1 EGG     -0.508100
     33 O26        -1.4800   -4.8760    3.7410 oh        1 EGG     -0.499600
     34 H2          1.7870    0.8330   -0.4470 h1        1 EGG      0.064700
     35 H3          3.0680   -0.0910    1.5100 h1        1 EGG      0.088700
     36 H4          1.5900    1.1560    3.3030 hc        1 EGG      0.074200
     37 H4A         2.1680    2.0970    1.8700 hc        1 EGG      0.074200
     38 H7         -2.4590    3.6940    2.8570 ha        1 EGG      0.137000
     39 H9         -2.4560    0.7190   -0.3150 ha        1 EGG      0.171000
     40 H12         3.4660   -0.2950   -1.6570 ha        1 EGG      0.156000
     41 H16         0.2710   -2.5750    0.1900 ha        1 EGG      0.156000
     42 HO18       -0.5010    3.8480    4.0050 ho        1 EGG      0.422000
     43 HO19       -4.2290    3.1790    1.5030 ho        1 EGG      0.421000
     44 H20         3.1120   -2.8800    5.4220 ha        1 EGG      0.171500
     45 HO20        4.7750   -1.5030   -3.1170 ho        1 EGG      0.435500
     46 HO21        3.7560   -4.5610   -3.2940 ho        1 EGG      0.446000
     47 HO22        1.2140   -5.5110   -1.5530 ho        1 EGG      0.435500
     48 H24        -0.2390   -2.8780    2.6610 ha        1 EGG      0.171500
     49 HO24        3.0080   -4.5490    7.0370 ho        1 EGG      0.438000
     50 HO25        0.3330   -6.3170    6.6690 ho        1 EGG      0.451000
     51 HO26       -1.7290   -5.6450    4.2790 ho        1 EGG      0.438000
@<TRIPOS>BOND
     1    1    2 1   
     2    1   10 1   
     3    2    3 1   
     4    2   11 1   
     5    2   34 1   
     6    3    4 1   
     7    3   17 1   
     8    3   35 1   
     9    4    5 1   
    10    4   36 1   
    11    4   37 1   
    12    5    6 ar  
    13    5   10 ar  
    14    6    7 ar  
    15    6   19 1   
    16    7    8 ar  
    17    7   38 1   
    18    8    9 ar  
    19    8   21 1   
    20    9   10 ar  
    21    9   39 1   
    22   11   12 ar  
    23   11   16 ar  
    24   12   13 ar  
    25   12   40 1   
    26   13   14 ar  
    27   13   23 1   
    28   14   15 ar  
    29   14   25 1   
    30   15   16 ar  
    31   15   27 1   
    32   16   41 1   
    33   17   18 1   
    34   18   20 1   
    35   18   29 2   
    36   19   42 1   
    37   20   22 ar  
    38   20   30 ar  
    39   21   43 1   
    40   22   24 ar  
    41   22   44 1   
    42   23   45 1   
    43   24   26 ar  
    44   24   31 1   
    45   25   46 1   
    46   26   28 ar  
    47   26   32 1   
    48   27   47 1   
    49   28   30 ar  
    50   28   33 1   
    51   30   48 1   
    52   31   49 1   
    53   32   50 1   
    54   33   51 1   
@<TRIPOS>SUBSTRUCTURE
     1 EGG         1 TEMP              0 ****  ****    0 ROOT
