@<TRIPOS>MOLECULE
EGG
   51    54     1     0     0
SMALL
bcc


@<TRIPOS>ATOM
      1 O1          0.0110   -0.0400   -0.0030 os        1 EGG     -0.304900
      2 C2          1.4490   -0.0820    0.0510 c3        1 EGG      0.195400
      3 C3          1.9700   -0.0310    1.4970 c3        1 EGG      0.126100
      4 C4          1.5060    1.2590    2.1650 c3        1 EGG     -0.035100
      5 C5          0.1110    1.6050    1.8040 ca        1 EGG     -0.203300
      6 C6         -0.5900    2.5920    2.5230 ca        1 EGG      0.192100
      7 C7         -1.9180    2.9200    2.2240 ca        1 EGG     -0.328000
      8 C8         -2.5570    2.2390    1.1780 ca        1 EGG      0.187100
      9 C9         -1.8970    1.2580    0.4280 ca        1 EGG     -0.212000
     10 C10        -0.5670    0.9590    0.7570 ca        1 EGG      0.189100
     11 C11         1.8780   -1.3110   -0.6900 ca        1 EGG     -0.055300
     12 C12         2.9890   -1.2290   -1.5380 ca        1 EGG     -0.158000
     13 C13         3.4070   -2.3670   -2.2330 ca        1 EGG      0.106100
     14 C14         2.7170   -3.5860   -2.0970 ca        1 EGG      0.027100
     15 C15         1.5970   -3.6490   -1.2450 ca        1 EGG      0.106100
     16 C16         1.1810   -2.5100   -0.5400 ca        1 EGG     -0.158000
     17 O17         1.4270   -1.1700    2.1870 os        1 EGG     -0.417900
     18 C18         2.1170   -1.6310    3.2780 c         1 EGG      0.656700
     19 O18         0.1000    3.2160    3.5370 oh        1 EGG     -0.493100
     20 C19         1.4860   -2.7850    3.9390 ca        1 EGG     -0.099600
     21 O19        -3.8590    2.5010    0.8240 oh        1 EGG     -0.490100
     22 C20         2.1380   -3.3330    5.0520 ca        1 EGG     -0.125000
     23 O20         4.4940   -2.3800   -3.0830 oh        1 EGG     -0.501100
     24 C21         1.5680   -4.4250    5.7060 ca        1 EGG      0.092600
     25 O21         3.0750   -4.7430   -2.7530 oh        1 EGG     -0.512100
     26 C22         0.3500   -4.9740    5.2590 ca        1 EGG      0.052100
     27 O22         0.8760   -4.8020   -1.0610 oh        1 EGG     -0.501100
     28 C23        -0.2900   -4.4090    4.1380 ca        1 EGG      0.092600
     29 O23         3.1650   -1.0610    3.5970 o         1 EGG     -0.550000
     30 C24         0.2810   -3.3130    3.4750 ca        1 EGG     -0.125000
     31 O24         2.1340   -5.0330    6.8080 oh        1 EGG     -0.499600
     32 O25        -0.2670   -6.0470    5.8590 oh        1 EGG     -0.508100
     33 O26        -1.4820   -4.8870    3.6500 oh        1 EGG     -0.499600
     34 H2          1.8370    0.8430   -0.4690 h1        1 EGG      0.064700
     35 H3          3.0940   -0.0910    1.4990 h1        1 EGG      0.088700
     36 H4          2.1910    2.0950    1.8590 hc        1 EGG      0.074200
     37 H4A         1.5950    1.1480    3.2800 hc        1 EGG      0.074200
     38 H7         -2.4470    3.6910    2.7980 ha        1 EGG      0.137000
     39 H9         -2.4080    0.7310   -0.3880 ha        1 EGG      0.171000
     40 H12         3.5320   -0.2820   -1.6610 ha        1 EGG      0.156000
     41 H16         0.3080   -2.5660    0.1300 ha        1 EGG      0.156000
     42 HO18       -0.5030    3.8380    3.9700 ho        1 EGG      0.422000
     43 HO19       -4.2000    3.1840    1.4200 ho        1 EGG      0.421000
     44 H20         3.0890   -2.8980    5.3980 ha        1 EGG      0.171500
     45 HO20        4.8600   -1.4840   -3.1090 ho        1 EGG      0.435500
     46 HO21        3.8390   -4.5400   -3.3150 ho        1 EGG      0.446000
     47 HO22        1.2710   -5.4950   -1.6150 ho        1 EGG      0.435500
     48 H24        -0.2270   -2.8830    2.5950 ha        1 EGG      0.171500
     49 HO24        2.9650   -4.5750    7.0040 ho        1 EGG      0.438000
     50 HO25        0.2950   -6.3410    6.5940 ho        1 EGG      0.451000
     51 HO26       -1.7370   -5.6580    4.1810 ho        1 EGG      0.438000
@<TRIPOS>BOND
     1    1    2 1   
     2    1   10 1   
     3    2    3 1   
     4    2   11 1   
     5    2   34 1   
     6    3    4 1   
     7    3   17 1   
     8    3   35 1   
     9    4    5 1   
    10    4   36 1   
    11    4   37 1   
    12    5    6 ar  
    13    5   10 ar  
    14    6    7 ar  
    15    6   19 1   
    16    7    8 ar  
    17    7   38 1   
    18    8    9 ar  
    19    8   21 1   
    20    9   10 ar  
    21    9   39 1   
    22   11   12 ar  
    23   11   16 ar  
    24   12   13 ar  
    25   12   40 1   
    26   13   14 ar  
    27   13   23 1   
    28   14   15 ar  
    29   14   25 1   
    30   15   16 ar  
    31   15   27 1   
    32   16   41 1   
    33   17   18 1   
    34   18   20 1   
    35   18   29 2   
    36   19   42 1   
    37   20   22 ar  
    38   20   30 ar  
    39   21   43 1   
    40   22   24 ar  
    41   22   44 1   
    42   23   45 1   
    43   24   26 ar  
    44   24   31 1   
    45   25   46 1   
    46   26   28 ar  
    47   26   32 1   
    48   27   47 1   
    49   28   30 ar  
    50   28   33 1   
    51   30   48 1   
    52   31   49 1   
    53   32   50 1   
    54   33   51 1   
@<TRIPOS>SUBSTRUCTURE
     1 EGG         1 TEMP              0 ****  ****    0 ROOT
