@<TRIPOS>MOLECULE
EGG
   51    48     1     0     0
SMALL
bcc


@<TRIPOS>ATOM
      1 O1         -1.2690    1.4120   -1.9150 os        1 EGG     -0.190000
      2 C2          0.1000    1.4020   -1.9160 c3        1 EGG      0.077000
      3 C3          0.7770    1.4420   -0.5780 c3        1 EGG      0.016000
      4 C4          0.3870    2.4740    0.2960 c3        1 EGG     -0.121000
      5 C5         -1.1180    2.8930    0.2370 c2        1 EGG     -0.196000
      6 C6         -1.6750    3.7690    1.1350 c1        1 EGG      0.148000
      7 C7         -3.0550    4.0870    1.0530 c1        1 EGG     -0.328000
      8 C8         -3.8790    3.4890    0.0210 c1        1 EGG      0.142000
      9 C9         -3.3100    2.5840   -0.9090 c1        1 EGG     -0.213000
     10 C10        -1.9750    2.2720   -0.8350 c2        1 EGG      0.143000
     11 C11         0.5770    0.0790   -2.6630 c2        1 EGG     -0.048000
     12 C12        -0.3260   -0.9450   -2.9010 c2        1 EGG     -0.169000
     13 C13         0.0760   -2.0760   -3.5950 c1        1 EGG      0.075000
     14 C14         1.3800   -2.1820   -4.0520 c1        1 EGG      0.037000
     15 C15         2.2830   -1.1570   -3.8140 c1        1 EGG      0.037000
     16 C16         1.8810   -0.0270   -3.1200 c1        1 EGG     -0.193000
     17 O17         0.5110    0.1190    0.1170 os        1 EGG     -0.259000
     18 C18         1.4300   -0.1830    1.1360 c2        1 EGG      0.356000
     19 O18        -0.8670    4.3870    2.1070 oh        1 EGG     -0.247000
     20 C19         1.1400   -1.3050    2.1080 c2        1 EGG     -0.077000
     21 O19        -5.2400    3.8350   -0.0780 oh        1 EGG     -0.244000
     22 C20         1.7700   -2.5380    2.0400 c2        1 EGG     -0.153000
     23 O20        -0.8250   -3.1400   -3.7870 oh        1 EGG     -0.226000
     24 C21         1.5170   -3.4990    3.0060 c1        1 EGG      0.023000
     25 O21         1.7960   -3.3410   -4.7310 oh        1 EGG     -0.249000
     26 C22         0.6340   -3.2280    4.0400 c1        1 EGG      0.037000
     27 O22         3.6000   -1.2540   -4.2970 oh        1 EGG     -0.249000
     28 C23         0.0050   -1.9950    4.1080 c1        1 EGG      0.037000
     29 O23         2.4650    0.4460    1.2270 o         1 EGG     -0.357000
     30 C24         0.2570   -1.0340    3.1420 c1        1 EGG     -0.103000
     31 O24         1.9660   -4.8270    2.8780 oh        1 EGG     -0.267000
     32 O25        -0.0040   -4.1720    4.8650 oh        1 EGG     -0.249000
     33 O26        -1.0900   -1.5730    4.8840 oh        1 EGG     -0.249000
     34 H2          0.4080    2.1720   -2.4330 h1        1 EGG      0.105000
     35 H3          1.7400    1.5200   -0.7290 h1        1 EGG      0.128000
     36 H4          0.9220    3.2640    0.0750 hc        1 EGG      0.114000
     37 H4A         0.5740    2.1730    1.2090 hc        1 EGG      0.114000
     38 H7         -3.4500    4.7100    1.6930 ha        1 EGG      0.137000
     39 H9         -3.8670    2.1820   -1.6030 ha        1 EGG      0.170000
     40 H12        -1.2450   -0.8710   -2.5790 ha        1 EGG      0.160000
     41 H16         2.5170    0.6950   -2.9530 ha        1 EGG      0.136000
     42 HO18       -1.0720    5.2520    2.1560 ho        1 EGG      0.222000
     43 HO19       -5.6780    3.5190    0.6280 ho        1 EGG      0.220000
     44 H20         2.3910   -2.7290    1.3120 ha        1 EGG      0.164000
     45 HO20       -1.4980   -2.8700   -4.3010 ho        1 EGG      0.221000
     46 HO21        1.8400   -3.1740   -5.6030 ho        1 EGG      0.238500
     47 HO22        4.1590   -1.3640   -3.6140 ho        1 EGG      0.238500
     48 H24        -0.1860   -0.1660    3.1900 ha        1 EGG      0.176000
     49 HO24        2.7370   -4.9220    3.3110 ho        1 EGG      0.237000
     50 HO25        0.5820   -4.5000    5.4480 ho        1 EGG      0.238500
     51 HO26       -0.7960   -1.1050    5.5810 ho        1 EGG      0.238500
@<TRIPOS>BOND
     1    1    2 1   
     2    1   10 1   
     3    2    3 1   
     4    2   11 1   
     5    2   34 1   
     6    3    4 1   
     7    3   17 1   
     8    3   35 1   
     9    4    5 1   
    10    4   36 1   
    11    4   37 1   
    12    5    6 1   
    13    5   10 1   
    14    6   19 1   
    15    7    8 1   
    16    7   38 1   
    17    8   21 1   
    18    9   10 1   
    19    9   39 1   
    20   11   12 1   
    21   11   16 1   
    22   12   13 1   
    23   12   40 1   
    24   13   23 1   
    25   14   15 1   
    26   14   25 1   
    27   15   27 1   
    28   16   41 1   
    29   17   18 1   
    30   18   20 1   
    31   18   29 1   
    32   19   42 1   
    33   20   22 1   
    34   20   30 1   
    35   21   43 1   
    36   22   24 1   
    37   22   44 1   
    38   23   45 1   
    39   24   31 1   
    40   25   46 1   
    41   26   28 1   
    42   26   32 1   
    43   27   47 1   
    44   28   33 1   
    45   30   48 1   
    46   31   49 1   
    47   32   50 1   
    48   33   51 1   
@<TRIPOS>SUBSTRUCTURE
     1 EGG         1 TEMP              0 ****  ****    0 ROOT
