@<TRIPOS>MOLECULE
EGL
   10     9     1     0     0
SMALL
bcc


@<TRIPOS>ATOM
      1 C1         -0.7430   -0.1860    0.7430 c3        1 EGL      0.089400
      2 O1          0.5780   -0.2680    1.2400 oh        1 EGL     -0.601800
      3 C2         -0.7460    0.1850   -0.7410 c3        1 EGL      0.089400
      4 O2          0.5730    0.2680   -1.2440 oh        1 EGL     -0.601800
      5 H11        -1.2800   -1.1570    0.9070 h1        1 EGL      0.050200
      6 H12        -1.2290    0.6130    1.3630 h1        1 EGL      0.050200
      7 HO1         1.0420   -0.9310    0.7110 ho        1 EGL      0.412000
      8 H21        -1.2340   -0.6140   -1.3600 h1        1 EGL      0.050200
      9 H22        -1.2840    1.1560   -0.9040 h1        1 EGL      0.050200
     10 HO2         1.0400    0.9310   -0.7160 ho        1 EGL      0.412000
@<TRIPOS>BOND
     1    1    2 1   
     2    1    3 1   
     3    1    5 1   
     4    1    6 1   
     5    2    7 1   
     6    3    4 1   
     7    3    8 1   
     8    3    9 1   
     9    4   10 1   
@<TRIPOS>SUBSTRUCTURE
     1 EGL         1 TEMP              0 ****  ****    0 ROOT
