@<TRIPOS>MOLECULE
EGL
   10     9     1     0     0
SMALL
bcc


@<TRIPOS>ATOM
      1 C1         -0.0220    0.1350   -0.8120 c3        1 EGL      0.109400
      2 O1          1.3780    0.0820   -0.8770 oh        1 EGL     -0.605800
      3 C2         -0.4670    0.1810    0.6470 c3        1 EGL      0.109400
      4 O2          0.0560   -0.9580    1.3400 oh        1 EGL     -0.605800
      5 H11        -0.3410    0.9450   -1.2770 h1        1 EGL      0.042950
      6 H12        -0.4000   -0.6610   -1.2440 h1        1 EGL      0.042950
      7 HO1         1.6300    0.0630   -1.7180 ho        1 EGL      0.410000
      8 H21        -0.1340    0.9990    1.0650 h1        1 EGL      0.042950
      9 H22        -1.4650    0.1670    0.6910 h1        1 EGL      0.042950
     10 HO2        -0.2360   -0.9540    2.1850 ho        1 EGL      0.410000
@<TRIPOS>BOND
     1    1    2 1   
     2    1    3 1   
     3    1    5 1   
     4    1    6 1   
     5    2    7 1   
     6    3    4 1   
     7    3    8 1   
     8    3    9 1   
     9    4   10 1   
@<TRIPOS>SUBSTRUCTURE
     1 EGL         1 TEMP              0 ****  ****    0 ROOT
