@<TRIPOS>MOLECULE
EGM
   20    15     1     0     0
SMALL
bcc


@<TRIPOS>ATOM
      1 O2         -2.8420    0.0470    3.1780 o         1 EGM     -0.568000
      2 C7         -1.5860   -0.0340    3.2110 c1        1 EGM      0.355000
      3 O1         -0.9890   -0.1090    4.3160 o         1 EGM     -0.568000
      4 C5         -0.7940   -0.0190    1.9220 c1        1 EGM     -0.106000
      5 C6         -0.4080    1.1880    1.3600 c1        1 EGM     -0.133000
      6 C1          0.2830    1.2030    0.1580 c1        1 EGM     -0.133000
      7 C2          0.5890    0.0120   -0.4810 c1        1 EGM     -0.106000
      8 C8          1.3850    0.0260   -1.7670 c2        1 EGM     -0.109000
      9 C9          0.4380    0.0110   -2.9470 c3        1 EGM     -0.204000
     10 C3          0.2030   -1.1950    0.0810 c1        1 EGM     -0.132500
     11 C4         -0.4880   -1.2100    1.2830 c1        1 EGM     -0.132500
     12 H2         -0.6050    2.0260    1.8200 ha        1 EGM      0.126000
     13 H3          0.5550    2.0530   -0.2370 ha        1 EGM      0.126000
     14 H4          1.9630   -0.7620   -1.8020 ha        1 EGM      0.068500
     15 H5          1.9350    0.8350   -1.8010 ha        1 EGM      0.068500
     16 H6         -0.2260   -0.6990   -2.8230 hc        1 EGM      0.065667
     17 H7         -0.0170    0.8760   -3.0120 hc        1 EGM      0.065667
     18 H8          0.9440   -0.1550   -3.7700 hc        1 EGM      0.065667
     19 H9          0.4210   -2.0340   -0.3670 ha        1 EGM      0.126000
     20 H10        -0.7600   -2.0600    1.6790 ha        1 EGM      0.126000
@<TRIPOS>BOND
     1    1    2 1   
     2    2    3 1   
     3    4   11 1   
     4    5    6 1   
     5    5   12 1   
     6    6   13 1   
     7    7   10 1   
     8    8    9 1   
     9    8   14 1   
    10    8   15 1   
    11    9   16 1   
    12    9   17 1   
    13    9   18 1   
    14   10   19 1   
    15   11   20 1   
@<TRIPOS>SUBSTRUCTURE
     1 EGM         1 TEMP              0 ****  ****    0 ROOT
