@<TRIPOS>MOLECULE
EGM
   20    20     1     0     0
SMALL
bcc


@<TRIPOS>ATOM
      1 O2         -0.0580   -0.1160    0.0620 o         1 EGM     -0.833300
      2 C7          1.2040   -0.0340    0.0760 c         1 EGM      0.906200
      3 O1          1.8970    0.0370    1.1310 o         1 EGM     -0.833300
      4 C5          1.9320   -0.0190   -1.2590 ca        1 EGM     -0.122600
      5 C6          1.2180   -0.0950   -2.4580 ca        1 EGM     -0.108500
      6 C1          1.8830   -0.0820   -3.6830 ca        1 EGM     -0.157000
      7 C2          3.2790    0.0090   -3.7270 ca        1 EGM     -0.117300
      8 C8          3.9980    0.0140   -5.0300 c3        1 EGM     -0.023100
      9 C9          4.5380    1.3820   -5.3760 c3        1 EGM     -0.086100
     10 C3          3.9960    0.0840   -2.5270 ca        1 EGM     -0.157000
     11 C4          3.3270    0.0700   -1.3050 ca        1 EGM     -0.108500
     12 H2          0.1190   -0.1650   -2.4080 ha        1 EGM      0.149000
     13 H3          1.3110   -0.1430   -4.6190 ha        1 EGM      0.103000
     14 H4          4.8490   -0.7180   -4.9870 hc        1 EGM      0.029200
     15 H5          3.3100   -0.3290   -5.8490 hc        1 EGM      0.029200
     16 H6          5.0960    1.3470   -6.3430 hc        1 EGM      0.026367
     17 H7          5.2310    1.7390   -4.5760 hc        1 EGM      0.026367
     18 H8          3.7060    2.1200   -5.4730 hc        1 EGM      0.026367
     19 H9          5.0920    0.1540   -2.5550 ha        1 EGM      0.103000
     20 H10         3.8770    0.1290   -0.3520 ha        1 EGM      0.149000
@<TRIPOS>BOND
     1    1    2 1   
     2    2    3 1   
     3    2    4 1   
     4    4    5 ar  
     5    4   11 ar  
     6    5    6 ar  
     7    5   12 1   
     8    6    7 ar  
     9    6   13 1   
    10    7    8 1   
    11    7   10 ar  
    12    8    9 1   
    13    8   14 1   
    14    8   15 1   
    15    9   16 1   
    16    9   17 1   
    17    9   18 1   
    18   10   11 ar  
    19   10   19 1   
    20   11   20 1   
@<TRIPOS>SUBSTRUCTURE
     1 EGM         1 TEMP              0 ****  ****    0 ROOT
