@<TRIPOS>MOLECULE
EGM
   20    20     1     0     0
SMALL
bcc


@<TRIPOS>ATOM
      1 O2          3.1620   -1.1250    0.0360 o         1 EGM     -0.833300
      2 C7          2.5510   -0.0200    0.0770 c         1 EGM      0.906200
      3 O1          3.1230    1.0990    0.2190 o         1 EGM     -0.833300
      4 C5          1.0360   -0.0360   -0.0510 ca        1 EGM     -0.122600
      5 C6          0.3500   -1.2440   -0.2090 ca        1 EGM     -0.108500
      6 C1         -1.0380   -1.2610   -0.3270 ca        1 EGM     -0.157000
      7 C2         -1.7660   -0.0660   -0.2880 ca        1 EGM     -0.117300
      8 C8         -3.2480   -0.0750   -0.4220 c3        1 EGM     -0.023100
      9 C9         -3.9400    0.2100    0.8890 c3        1 EGM     -0.086100
     10 C3         -1.0800    1.1440   -0.1310 ca        1 EGM     -0.157000
     11 C4          0.3080    1.1570   -0.0130 ca        1 EGM     -0.108500
     12 H2          0.9360   -2.1760   -0.2380 ha        1 EGM      0.149000
     13 H3         -1.5670   -2.2170   -0.4530 ha        1 EGM      0.103000
     14 H4         -3.5560    0.6980   -1.1770 hc        1 EGM      0.029200
     15 H5         -3.5910   -1.0710   -0.8120 hc        1 EGM      0.029200
     16 H6         -3.6880   -0.5730    1.6450 hc        1 EGM      0.026367
     17 H7         -3.6170    1.2000    1.2920 hc        1 EGM      0.026367
     18 H8         -5.0480    0.2260    0.7500 hc        1 EGM      0.026367
     19 H9         -1.6460    2.0860   -0.1000 ha        1 EGM      0.103000
     20 H10         0.8610    2.1020    0.1110 ha        1 EGM      0.149000
@<TRIPOS>BOND
     1    1    2 1   
     2    2    3 1   
     3    2    4 1   
     4    4    5 ar  
     5    4   11 ar  
     6    5    6 ar  
     7    5   12 1   
     8    6    7 ar  
     9    6   13 1   
    10    7    8 1   
    11    7   10 ar  
    12    8    9 1   
    13    8   14 1   
    14    8   15 1   
    15    9   16 1   
    16    9   17 1   
    17    9   18 1   
    18   10   11 ar  
    19   10   19 1   
    20   11   20 1   
@<TRIPOS>SUBSTRUCTURE
     1 EGM         1 TEMP              0 ****  ****    0 ROOT
