@<TRIPOS>MOLECULE
EGM
   20    20     1     0     0
SMALL
bcc


@<TRIPOS>ATOM
      1 O2         -0.0430   -0.1470    0.0740 o         1 EGM     -0.833300
      2 C7          1.2170   -0.0370    0.0830 c         1 EGM      0.906200
      3 O1          1.9100    0.0610    1.1350 o         1 EGM     -0.833300
      4 C5          1.9420   -0.0210   -1.2540 ca        1 EGM     -0.122600
      5 C6          1.2270   -0.1270   -2.4500 ca        1 EGM     -0.108500
      6 C1          1.8890   -0.1130   -3.6760 ca        1 EGM     -0.157000
      7 C2          3.2830    0.0080   -3.7250 ca        1 EGM     -0.117300
      8 C8          3.9980    0.0140   -5.0300 c3        1 EGM     -0.023100
      9 C9          4.5110    1.3880   -5.3910 c3        1 EGM     -0.086100
     10 C3          4.0000    0.1120   -2.5270 ca        1 EGM     -0.157000
     11 C4          3.3340    0.0980   -1.3040 ca        1 EGM     -0.108500
     12 H2          0.1300   -0.2210   -2.3960 ha        1 EGM      0.149000
     13 H3          1.3170   -0.1970   -4.6110 ha        1 EGM      0.103000
     14 H4          4.8640   -0.7010   -4.9810 hc        1 EGM      0.029200
     15 H5          3.3160   -0.3510   -5.8430 hc        1 EGM      0.029200
     16 H6          5.0670    1.3540   -6.3590 hc        1 EGM      0.026367
     17 H7          5.1980    1.7680   -4.5970 hc        1 EGM      0.026367
     18 H8          3.6640    2.1090   -5.4930 hc        1 EGM      0.026367
     19 H9          5.0950    0.2060   -2.5590 ha        1 EGM      0.103000
     20 H10         3.8850    0.1790   -0.3530 ha        1 EGM      0.149000
@<TRIPOS>BOND
     1    1    2 1   
     2    2    3 1   
     3    2    4 1   
     4    4    5 ar  
     5    4   11 ar  
     6    5    6 ar  
     7    5   12 1   
     8    6    7 ar  
     9    6   13 1   
    10    7    8 1   
    11    7   10 ar  
    12    8    9 1   
    13    8   14 1   
    14    8   15 1   
    15    9   16 1   
    16    9   17 1   
    17    9   18 1   
    18   10   11 ar  
    19   10   19 1   
    20   11   20 1   
@<TRIPOS>SUBSTRUCTURE
     1 EGM         1 TEMP              0 ****  ****    0 ROOT
