@<TRIPOS>MOLECULE
EGR
   24    24     1     0     0
SMALL
bcc


@<TRIPOS>ATOM
      1 C01         0.0710    0.0030    0.0450 c3        1 EGR     -0.101100
      2 C02         1.5770    0.0180   -0.0440 c3        1 EGR      0.140400
      3 O03         2.0580    0.0220    1.3140 os        1 EGR     -0.436900
      4 C04         3.4160    0.0340    1.4740 c         1 EGR      0.649700
      5 O05         4.1210    0.0410    0.4600 o         1 EGR     -0.548000
      6 C06         3.8610    0.0370    2.8770 ca        1 EGR     -0.098600
      7 C07         5.2410    0.0490    3.1240 ca        1 EGR     -0.128000
      8 C08         5.6980    0.0520    4.4420 ca        1 EGR      0.092600
      9 O09         7.0340    0.0640    4.7840 oh        1 EGR     -0.500600
     10 C10         4.7880    0.0450    5.5180 ca        1 EGR      0.052100
     11 O11         5.1710    0.0480    6.8390 oh        1 EGR     -0.508100
     12 C12         3.4050    0.0330    5.2500 ca        1 EGR      0.092600
     13 O13         2.4600    0.0250    6.2460 oh        1 EGR     -0.500600
     14 C14         2.9410    0.0300    3.9260 ca        1 EGR     -0.128000
     15 H1         -0.2820   -0.9050    0.5880 hc        1 EGR      0.049033
     16 H2         -0.3000    0.9040    0.5900 hc        1 EGR      0.049033
     17 H3         -0.3530    0.0000   -0.9880 hc        1 EGR      0.049033
     18 H4          1.9600    0.9350   -0.5620 h1        1 EGR      0.052700
     19 H5          1.9770   -0.8910   -0.5640 h1        1 EGR      0.052700
     20 H6          5.9470    0.0550    2.2790 ha        1 EGR      0.170500
     21 H7          7.5500    0.0680    3.9650 ho        1 EGR      0.439000
     22 H8          6.1410    0.0560    6.8690 ho        1 EGR      0.451000
     23 H9          2.9220    0.0290    7.1000 ho        1 EGR      0.439000
     24 H10         1.8570    0.0210    3.7290 ha        1 EGR      0.170500
@<TRIPOS>BOND
     1    1    2 1   
     2    1   15 1   
     3    1   16 1   
     4    1   17 1   
     5    2    3 1   
     6    2   18 1   
     7    2   19 1   
     8    3    4 1   
     9    4    5 2   
    10    4    6 1   
    11    6    7 ar  
    12    6   14 ar  
    13    7    8 ar  
    14    7   20 1   
    15    8    9 1   
    16    8   10 ar  
    17    9   21 1   
    18   10   11 1   
    19   10   12 ar  
    20   11   22 1   
    21   12   13 1   
    22   12   14 ar  
    23   13   23 1   
    24   14   24 1   
@<TRIPOS>SUBSTRUCTURE
     1 EGR         1 TEMP              0 ****  ****    0 ROOT
