@<TRIPOS>MOLECULE
EGR
   24    24     1     0     0
SMALL
bcc


@<TRIPOS>ATOM
      1 C01         0.0800    0.0020    0.0350 c3        1 EGR     -0.101100
      2 C02         1.5860   -0.0090   -0.0490 c3        1 EGR      0.140400
      3 O03         2.0620    0.0120    1.3100 os        1 EGR     -0.436900
      4 C04         3.4200    0.0060    1.4750 c         1 EGR      0.649700
      5 O05         4.1290   -0.0160    0.4640 o         1 EGR     -0.548000
      6 C06         3.8610    0.0280    2.8790 ca        1 EGR     -0.098600
      7 C07         5.2400    0.0240    3.1300 ca        1 EGR     -0.128000
      8 C08         5.6930    0.0450    4.4500 ca        1 EGR      0.092600
      9 O09         7.0280    0.0420    4.7960 oh        1 EGR     -0.500600
     10 C10         4.7800    0.0700    5.5220 ca        1 EGR      0.052100
     11 O11         5.1590    0.0910    6.8440 oh        1 EGR     -0.508100
     12 C12         3.3970    0.0730    5.2500 ca        1 EGR      0.092600
     13 O13         2.4500    0.0970    6.2430 oh        1 EGR     -0.500600
     14 C14         2.9370    0.0530    3.9250 ca        1 EGR     -0.128000
     15 H1         -0.2900   -0.8900    0.5940 hc        1 EGR      0.049033
     16 H2         -0.2780    0.9190    0.5610 hc        1 EGR      0.049033
     17 H3         -0.3410   -0.0130   -0.9990 hc        1 EGR      0.049033
     18 H4          1.9850    0.8920   -0.5830 h1        1 EGR      0.052700
     19 H5          1.9740   -0.9340   -0.5500 h1        1 EGR      0.052700
     20 H6          5.9490    0.0040    2.2880 ha        1 EGR      0.170500
     21 H7          7.5470    0.0240    3.9780 ho        1 EGR      0.439000
     22 H8          6.1280    0.0850    6.8770 ho        1 EGR      0.451000
     23 H9          2.9090    0.1100    7.0980 ho        1 EGR      0.439000
     24 H10         1.8540    0.0560    3.7250 ha        1 EGR      0.170500
@<TRIPOS>BOND
     1    1    2 1   
     2    1   15 1   
     3    1   16 1   
     4    1   17 1   
     5    2    3 1   
     6    2   18 1   
     7    2   19 1   
     8    3    4 1   
     9    4    5 2   
    10    4    6 1   
    11    6    7 ar  
    12    6   14 ar  
    13    7    8 ar  
    14    7   20 1   
    15    8    9 1   
    16    8   10 ar  
    17    9   21 1   
    18   10   11 1   
    19   10   12 ar  
    20   11   22 1   
    21   12   13 1   
    22   12   14 ar  
    23   13   23 1   
    24   14   24 1   
@<TRIPOS>SUBSTRUCTURE
     1 EGR         1 TEMP              0 ****  ****    0 ROOT
