@<TRIPOS>MOLECULE
EGR
   24    19     1     0     0
SMALL
bcc


@<TRIPOS>ATOM
      1 C01        -3.1200    1.0680   -2.9770 c3        1 EGR     -0.245000
      2 C02        -1.9110    0.1770   -2.8030 c3        1 EGR     -0.010000
      3 O03        -1.3140    0.4340   -1.5550 os        1 EGR     -0.274000
      4 C04        -0.1240   -0.2770   -1.3360 c1        1 EGR      0.351000
      5 O05         0.3710   -0.9240   -2.2370 o         1 EGR     -0.358000
      6 C06         0.5150   -0.2770    0.0340 c1        1 EGR     -0.079000
      7 C07         1.4570    0.6870    0.3580 c1        1 EGR     -0.155000
      8 C08         2.0820    0.6560    1.5950 c1        1 EGR      0.022000
      9 O09         3.0230    1.6460    1.9320 o         1 EGR     -0.265000
     10 C10         1.7660   -0.3380    2.5070 c1        1 EGR      0.007000
     11 O11         2.4220   -0.3860    3.7510 o         1 EGR     -0.265000
     12 C12         0.8250   -1.3020    2.1820 c2        1 EGR      0.072000
     13 O13         0.5120   -2.3180    3.1040 oh        1 EGR     -0.241000
     14 C14         0.1990   -1.2710    0.9460 c1        1 EGR     -0.101000
     15 H1         -2.8550    2.0040   -2.8600 hc        1 EGR      0.089667
     16 H2         -3.4910    0.9440   -3.8760 hc        1 EGR      0.089667
     17 H3         -3.7970    0.8340   -2.3090 hc        1 EGR      0.089667
     18 H4         -1.2650    0.3600   -3.5170 h1        1 EGR      0.103000
     19 H5         -2.1880   -0.7610   -2.8460 h1        1 EGR      0.103000
     20 H6          1.6670    1.3970   -0.2780 ha        1 EGR      0.163000
     21 H7          3.8060    1.4500    1.5580 ho        1 EGR      0.243000
     22 H8          2.0550    0.2080    4.3020 ho        1 EGR      0.243000
     23 H9         -0.1730   -2.0590    3.6080 ho        1 EGR      0.240000
     24 H10        -0.4640   -1.9500    0.7180 ha        1 EGR      0.177000
@<TRIPOS>BOND
     1    1    2 1   
     2    1   15 1   
     3    1   16 1   
     4    1   17 1   
     5    2    3 1   
     6    2   18 1   
     7    2   19 1   
     8    3    4 1   
     9    4    5 1   
    10    6    7 1   
    11    7   20 1   
    12    8   10 1   
    13    9   21 1   
    14   10   12 1   
    15   11   22 1   
    16   12   13 1   
    17   12   14 1   
    18   13   23 1   
    19   14   24 1   
@<TRIPOS>SUBSTRUCTURE
     1 EGR         1 TEMP              0 ****  ****    0 ROOT
