@<TRIPOS>MOLECULE
EGR
   24    24     1     0     0
SMALL
bcc


@<TRIPOS>ATOM
      1 C01         4.8030    1.0980   -0.0960 c3        1 EGR     -0.101100
      2 C02         3.9940   -0.1740   -0.0330 c3        1 EGR      0.140400
      3 O03         2.6130    0.2320    0.0150 os        1 EGR     -0.436900
      4 C04         1.6890   -0.7740    0.0760 c         1 EGR      0.649700
      5 O05         2.0980   -1.9400    0.0860 o         1 EGR     -0.548000
      6 C06         0.2920   -0.3140    0.1240 ca        1 EGR     -0.098600
      7 C07        -0.7140   -1.2870    0.1880 ca        1 EGR     -0.128000
      8 C08        -2.0500   -0.8850    0.2340 ca        1 EGR      0.092600
      9 O09        -3.1080   -1.7680    0.2990 oh        1 EGR     -0.500600
     10 C10        -2.3890    0.4820    0.2170 ca        1 EGR      0.052100
     11 O11        -3.6840    0.9460    0.2600 oh        1 EGR     -0.508100
     12 C12        -1.3630    1.4460    0.1520 ca        1 EGR      0.092600
     13 O13        -1.6190    2.7950    0.1320 oh        1 EGR     -0.500600
     14 C14        -0.0200    1.0470    0.1060 ca        1 EGR     -0.128000
     15 H1          5.8880    0.8370   -0.1350 hc        1 EGR      0.049033
     16 H2          4.5360    1.6890   -1.0040 hc        1 EGR      0.049033
     17 H3          4.6110    1.7300    0.8040 hc        1 EGR      0.049033
     18 H4          4.1480   -0.8160   -0.9400 h1        1 EGR      0.052700
     19 H5          4.2240   -0.7750    0.8850 h1        1 EGR      0.052700
     20 H6         -0.4430   -2.3540    0.2010 ha        1 EGR      0.170500
     21 H7         -2.7460   -2.6650    0.3040 ho        1 EGR      0.439000
     22 H8         -4.2750    0.1770    0.3030 ho        1 EGR      0.451000
     23 H9         -2.5800    2.9200    0.1690 ho        1 EGR      0.439000
     24 H10         0.7730    1.8090    0.0550 ha        1 EGR      0.170500
@<TRIPOS>BOND
     1    1    2 1   
     2    1   15 1   
     3    1   16 1   
     4    1   17 1   
     5    2    3 1   
     6    2   18 1   
     7    2   19 1   
     8    3    4 1   
     9    4    5 2   
    10    4    6 1   
    11    6    7 ar  
    12    6   14 ar  
    13    7    8 ar  
    14    7   20 1   
    15    8    9 1   
    16    8   10 ar  
    17    9   21 1   
    18   10   11 1   
    19   10   12 ar  
    20   11   22 1   
    21   12   13 1   
    22   12   14 ar  
    23   13   23 1   
    24   14   24 1   
@<TRIPOS>SUBSTRUCTURE
     1 EGR         1 TEMP              0 ****  ****    0 ROOT
