@<TRIPOS>MOLECULE
EGT
   36    38     1     0     0
SMALL
bcc


@<TRIPOS>ATOM
      1 O1          0.0290    0.0240    0.0470 os        1 EGT     -0.320900
      2 C2          1.4670    0.0530   -0.0640 c3        1 EGT      0.149400
      3 C3          2.1040    0.1840    1.3330 c3        1 EGT      0.122100
      4 C4          1.6810    1.5200    1.9420 c3        1 EGT     -0.053100
      5 C5          0.2520    1.8200    1.6860 ca        1 EGT     -0.207300
      6 C6         -0.3990    2.8580    2.3790 ca        1 EGT      0.193100
      7 C7         -1.7530    3.1480    2.1690 ca        1 EGT     -0.325000
      8 C8         -2.4680    2.3810    1.2380 ca        1 EGT      0.187100
      9 C9         -1.8590    1.3470    0.5160 ca        1 EGT     -0.209000
     10 C10        -0.5030    1.0860    0.7550 ca        1 EGT      0.174100
     11 C11         1.8970   -1.1900   -0.7820 ca        1 EGT     -0.016300
     12 C12         3.1840   -1.2040   -1.3330 ca        1 EGT     -0.167500
     13 C13         3.6310   -2.3500   -2.0020 ca        1 EGT      0.154100
     14 C14         2.7960   -3.4770   -2.1140 ca        1 EGT     -0.088900
     15 C15         1.4950   -3.4320   -1.5850 ca        1 EGT      0.154100
     16 C16         1.0440   -2.2870   -0.9090 ca        1 EGT     -0.167500
     17 O17         1.7690   -0.8960    2.1790 oh        1 EGT     -0.579800
     18 O18         0.3640    3.5660    3.2770 oh        1 EGT     -0.491100
     19 O19        -3.7990    2.6010    0.9770 oh        1 EGT     -0.489100
     20 O20         4.9010   -2.3330   -2.5220 oh        1 EGT     -0.489600
     21 O21         3.2200   -4.5850   -2.8280 oh        1 EGT     -0.518100
     22 O22         0.6330   -4.4930   -1.6870 oh        1 EGT     -0.489600
     23 HC2         1.7490    0.9590   -0.6750 h1        1 EGT      0.072700
     24 HC3         3.2250    0.1280    1.2410 h1        1 EGT      0.091700
     25 HC41        2.3170    2.3420    1.5180 hc        1 EGT      0.073200
     26 HC42        1.8670    1.4930    3.0500 hc        1 EGT      0.073200
     27 HC7        -2.2440    3.9600    2.7210 ha        1 EGT      0.139000
     28 HC9        -2.4280    0.7550   -0.2130 ha        1 EGT      0.172000
     29 H12         3.8500   -0.3340   -1.2480 ha        1 EGT      0.162000
     30 H16         0.0270   -2.2680   -0.4910 ha        1 EGT      0.162000
     31 H17         0.8040   -0.9380    2.2190 ho        1 EGT      0.410000
     32 H18        -0.2060    4.2260    3.7000 ho        1 EGT      0.423000
     33 H19        -4.0960    3.3380    1.5310 ho        1 EGT      0.422000
     34 H20         5.0020   -3.1260   -3.0750 ho        1 EGT      0.433000
     35 H21         3.6350   -5.1770   -2.1800 ho        1 EGT      0.413000
     36 H22         1.0280   -5.1340   -2.3000 ho        1 EGT      0.433000
@<TRIPOS>BOND
     1    1    2 1   
     2    1   10 1   
     3    2    3 1   
     4    2   11 1   
     5    2   23 1   
     6    3    4 1   
     7    3   17 1   
     8    3   24 1   
     9    4    5 1   
    10    4   25 1   
    11    4   26 1   
    12    5    6 ar  
    13    5   10 ar  
    14    6    7 ar  
    15    6   18 1   
    16    7    8 ar  
    17    7   27 1   
    18    8    9 ar  
    19    8   19 1   
    20    9   10 ar  
    21    9   28 1   
    22   11   12 ar  
    23   11   16 ar  
    24   12   13 ar  
    25   12   29 1   
    26   13   14 ar  
    27   13   20 1   
    28   14   15 ar  
    29   14   21 1   
    30   15   16 ar  
    31   15   22 1   
    32   16   30 1   
    33   17   31 1   
    34   18   32 1   
    35   19   33 1   
    36   20   34 1   
    37   21   35 1   
    38   22   36 1   
@<TRIPOS>SUBSTRUCTURE
     1 EGT         1 TEMP              0 ****  ****    0 ROOT
