@<TRIPOS>MOLECULE
EGT
   36    38     1     0     0
SMALL
bcc


@<TRIPOS>ATOM
      1 O1          0.0870    0.0320   -0.0090 os        1 EGT     -0.318900
      2 C2          1.5320   -0.0010   -0.0300 c3        1 EGT      0.155400
      3 C3          2.0780    0.1080    1.4060 c3        1 EGT      0.121100
      4 C4          1.6820    1.4690    1.9780 c3        1 EGT     -0.053100
      5 C5          0.2860    1.8310    1.6290 ca        1 EGT     -0.209300
      6 C6         -0.3600    2.9030    2.2730 ca        1 EGT      0.193100
      7 C7         -1.6830    3.2510    1.9760 ca        1 EGT     -0.326000
      8 C8         -2.3730    2.5060    1.0090 ca        1 EGT      0.187100
      9 C9         -1.7670    1.4390    0.3330 ca        1 EGT     -0.209000
     10 C10        -0.4420    1.1220    0.6580 ca        1 EGT      0.173100
     11 C11         1.9260   -1.2710   -0.7180 ca        1 EGT     -0.048300
     12 C12         2.9700   -1.2330   -1.6500 ca        1 EGT     -0.158000
     13 C13         3.3600   -2.4110   -2.2910 ca        1 EGT      0.107600
     14 C14         2.7100   -3.6290   -2.0170 ca        1 EGT      0.027100
     15 C15         1.6570   -3.6480   -1.0810 ca        1 EGT      0.107600
     16 C16         1.2680   -2.4670   -0.4310 ca        1 EGT     -0.158000
     17 O17         1.6280   -0.9460    2.2320 oh        1 EGT     -0.579800
     18 O18         0.3770    3.5870    3.2100 oh        1 EGT     -0.492100
     19 O19        -3.6740    2.7830    0.6640 oh        1 EGT     -0.489100
     20 O20         4.3820   -2.4680   -3.2170 oh        1 EGT     -0.501600
     21 O21         3.0420   -4.8240   -2.6160 oh        1 EGT     -0.512100
     22 O22         0.9730   -4.7950   -0.7660 oh        1 EGT     -0.501600
     23 HC2         1.8890    0.8910   -0.6190 h1        1 EGT      0.064700
     24 HC3         3.1980   -0.0060    1.3970 h1        1 EGT      0.090700
     25 HC41        1.7950    1.4450    3.0960 hc        1 EGT      0.072200
     26 HC42        2.3800    2.2560    1.5880 hc        1 EGT      0.072200
     27 HC7        -2.1710    4.0880    2.4920 ha        1 EGT      0.138000
     28 HC9        -2.3160    0.8650   -0.4250 ha        1 EGT      0.172000
     29 H12         3.4810   -0.2880   -1.8810 ha        1 EGT      0.151500
     30 H16         0.4500   -2.4940    0.3030 ha        1 EGT      0.151500
     31 H17         0.6610   -0.9320    2.2110 ho        1 EGT      0.409000
     32 H18        -0.1890    4.2710    3.5970 ho        1 EGT      0.423000
     33 H19        -3.9740    3.5340    1.1970 ho        1 EGT      0.422000
     34 H20         4.7280   -1.5710   -3.3310 ho        1 EGT      0.435000
     35 H21         3.7750   -4.6550   -3.2270 ho        1 EGT      0.446000
     36 H22         1.3560   -5.5240   -1.2790 ho        1 EGT      0.435000
@<TRIPOS>BOND
     1    1    2 1   
     2    1   10 1   
     3    2    3 1   
     4    2   11 1   
     5    2   23 1   
     6    3    4 1   
     7    3   17 1   
     8    3   24 1   
     9    4    5 1   
    10    4   25 1   
    11    4   26 1   
    12    5    6 ar  
    13    5   10 ar  
    14    6    7 ar  
    15    6   18 1   
    16    7    8 ar  
    17    7   27 1   
    18    8    9 ar  
    19    8   19 1   
    20    9   10 ar  
    21    9   28 1   
    22   11   12 ar  
    23   11   16 ar  
    24   12   13 ar  
    25   12   29 1   
    26   13   14 ar  
    27   13   20 1   
    28   14   15 ar  
    29   14   21 1   
    30   15   16 ar  
    31   15   22 1   
    32   16   30 1   
    33   17   31 1   
    34   18   32 1   
    35   19   33 1   
    36   20   34 1   
    37   21   35 1   
    38   22   36 1   
@<TRIPOS>SUBSTRUCTURE
     1 EGT         1 TEMP              0 ****  ****    0 ROOT
