@<TRIPOS>MOLECULE
EGT
   36    34     1     0     0
SMALL
bcc


@<TRIPOS>ATOM
      1 O1         -1.0030    1.7320   -0.4430 os        1 EGT     -0.194000
      2 C2          0.3650    1.7920   -0.4280 c3        1 EGT      0.037000
      3 C3          1.0270    1.8190    0.9180 c3        1 EGT      0.013000
      4 C4          0.6620    0.8020    1.8220 c3        1 EGT     -0.135000
      5 C5         -0.8290    0.3300    1.7630 c2        1 EGT     -0.195000
      6 C6         -1.3890   -0.4550    2.7440 c1        1 EGT      0.150000
      7 C7         -2.7790   -0.7410    2.7160 c1        1 EGT     -0.330000
      8 C8         -3.6120   -0.2070    1.6550 c1        1 EGT      0.142000
      9 C9         -3.0390    0.6040    0.6400 c1        1 EGT     -0.221000
     10 C10        -1.6930    0.8850    0.6610 c2        1 EGT      0.136000
     11 C11         0.9190    0.5190   -1.2210 c2        1 EGT     -0.070000
     12 C12         0.0380   -0.4510   -1.6750 c2        1 EGT     -0.186000
     13 C13         0.5010   -1.4970   -2.4580 c1        1 EGT      0.040000
     14 C14         1.8450   -1.5740   -2.7870 c1        1 EGT      0.035500
     15 C15         2.7260   -0.6040   -2.3330 c1        1 EGT      0.035500
     16 C16         2.2630    0.4420   -1.5500 c1        1 EGT     -0.171000
     17 O17         2.5280    1.7320    0.7000 oh        1 EGT     -0.311000
     18 O18        -0.5910   -0.9310    3.8090 oh        1 EGT     -0.245000
     19 O19        -4.9750   -0.5690    1.5810 oh        1 EGT     -0.244000
     20 O20        -0.3890   -2.5070   -2.8850 oh        1 EGT     -0.269000
     21 O21         2.3150   -2.6380   -3.5620 oh        1 EGT     -0.255000
     22 O22         4.0760   -0.6450   -2.7230 oh        1 EGT     -0.255000
     23 HC2         0.6380    2.5960   -0.9150 h1        1 EGT      0.140000
     24 HC3         0.8280    2.6800    1.3350 h1        1 EGT      0.132000
     25 HC41        0.8300    1.1380    2.7270 hc        1 EGT      0.109500
     26 HC42        1.2250    0.0230    1.6320 hc        1 EGT      0.109500
     27 HC7        -3.1760   -1.3000    3.4140 ha        1 EGT      0.139000
     28 HC9        -3.6020    0.9630   -0.0740 ha        1 EGT      0.170000
     29 H12        -0.9060   -0.3970   -1.4440 ha        1 EGT      0.152000
     30 H16         2.8820    1.1220   -1.2320 ha        1 EGT      0.165000
     31 H17         2.9320    2.3780    1.1580 ho        1 EGT      0.209000
     32 H18        -1.0900   -1.0040    4.5450 ho        1 EGT      0.223000
     33 H19        -5.4430   -0.0820    2.1600 ho        1 EGT      0.221000
     34 H20        -0.7090   -2.3000   -3.6900 ho        1 EGT      0.234000
     35 H21         2.0910   -2.5080   -4.4080 ho        1 EGT      0.243000
     36 H22         4.5350   -1.1450   -2.1490 ho        1 EGT      0.243000
@<TRIPOS>BOND
     1    1    2 1   
     2    1   10 1   
     3    2    3 1   
     4    2   11 1   
     5    2   23 1   
     6    3    4 1   
     7    3   17 1   
     8    3   24 1   
     9    4    5 1   
    10    4   25 1   
    11    4   26 1   
    12    5    6 1   
    13    5   10 1   
    14    6   18 1   
    15    7    8 1   
    16    7   27 1   
    17    8   19 1   
    18    9   10 1   
    19    9   28 1   
    20   11   12 1   
    21   11   16 1   
    22   12   13 1   
    23   12   29 1   
    24   13   20 1   
    25   14   15 1   
    26   14   21 1   
    27   15   22 1   
    28   16   30 1   
    29   17   31 1   
    30   18   32 1   
    31   19   33 1   
    32   20   34 1   
    33   21   35 1   
    34   22   36 1   
@<TRIPOS>SUBSTRUCTURE
     1 EGT         1 TEMP              0 ****  ****    0 ROOT
