@<TRIPOS>MOLECULE
EGT
   36    38     1     0     0
SMALL
bcc


@<TRIPOS>ATOM
      1 O1         -0.6130   -0.5000   -0.3890 os        1 EGT     -0.305900
      2 C2          0.1010    0.7510   -0.4040 c3        1 EGT      0.200400
      3 C3         -0.3990    1.6890    0.7090 c3        1 EGT      0.122100
      4 C4         -1.8770    1.9970    0.4740 c3        1 EGT     -0.056100
      5 C5         -2.6430    0.7960    0.0590 ca        1 EGT     -0.266300
      6 C6         -4.0530    0.7870    0.0640 ca        1 EGT      0.190100
      7 C7         -4.7890   -0.3550   -0.2750 ca        1 EGT     -0.218000
      8 C8         -4.0890   -1.5150   -0.6350 ca        1 EGT      0.186100
      9 C9         -2.6900   -1.5460   -0.6800 ca        1 EGT     -0.275000
     10 C10        -1.9860   -0.3830   -0.3360 ca        1 EGT      0.208100
     11 C11         1.5570    0.4190   -0.2870 ca        1 EGT     -0.055300
     12 C12         2.4510    0.9540   -1.2180 ca        1 EGT     -0.153500
     13 C13         3.8170    0.6580   -1.1140 ca        1 EGT      0.101100
     14 C14         4.2870   -0.1820   -0.0850 ca        1 EGT      0.030100
     15 C15         3.3680   -0.7160    0.8360 ca        1 EGT      0.101100
     16 C16         2.0060   -0.4160    0.7380 ca        1 EGT     -0.153500
     17 O17        -0.1720    1.0530    1.9580 oh        1 EGT     -0.585800
     18 O18        -4.8060    1.8840    0.4100 oh        1 EGT     -0.492100
     19 O19        -4.8530   -2.6120   -0.9500 oh        1 EGT     -0.491100
     20 O20         4.6540    1.2180   -2.0480 oh        1 EGT     -0.505600
     21 O21         5.6410   -0.4300   -0.0460 oh        1 EGT     -0.513100
     22 O22         3.8950   -1.5310    1.8160 oh        1 EGT     -0.505600
     23 HC2        -0.1100    1.2540   -1.3920 h1        1 EGT      0.063700
     24 HC3         0.1970    2.6450    0.6760 h1        1 EGT      0.053700
     25 HC41       -2.3120    2.4200    1.4210 hc        1 EGT      0.051200
     26 HC42       -1.9570    2.7900   -0.3180 hc        1 EGT      0.051200
     27 HC7        -5.8860   -0.3420   -0.2570 ha        1 EGT      0.170000
     28 HC9        -2.1420   -2.4500   -0.9740 ha        1 EGT      0.155000
     29 H12         2.1080    1.6030   -2.0370 ha        1 EGT      0.159500
     30 H16         1.2820   -0.8190    1.4640 ha        1 EGT      0.159500
     31 H17        -0.6560    1.5570    2.6230 ho        1 EGT      0.406000
     32 H18        -4.2170    2.6430    0.5190 ho        1 EGT      0.420000
     33 H19        -4.2540   -3.3390   -1.1800 ho        1 EGT      0.424000
     34 H20         5.5560    0.9110   -1.8640 ho        1 EGT      0.437500
     35 H21         5.8080   -1.0360    0.6920 ho        1 EGT      0.447000
     36 H22         3.1640   -1.8250    2.3790 ho        1 EGT      0.437500
@<TRIPOS>BOND
     1    1    2 1   
     2    1   10 1   
     3    2    3 1   
     4    2   11 1   
     5    2   23 1   
     6    3    4 1   
     7    3   17 1   
     8    3   24 1   
     9    4    5 1   
    10    4   25 1   
    11    4   26 1   
    12    5    6 ar  
    13    5   10 ar  
    14    6    7 ar  
    15    6   18 1   
    16    7    8 ar  
    17    7   27 1   
    18    8    9 ar  
    19    8   19 1   
    20    9   10 ar  
    21    9   28 1   
    22   11   12 ar  
    23   11   16 ar  
    24   12   13 ar  
    25   12   29 1   
    26   13   14 ar  
    27   13   20 1   
    28   14   15 ar  
    29   14   21 1   
    30   15   16 ar  
    31   15   22 1   
    32   16   30 1   
    33   17   31 1   
    34   18   32 1   
    35   19   33 1   
    36   20   34 1   
    37   21   35 1   
    38   22   36 1   
@<TRIPOS>SUBSTRUCTURE
     1 EGT         1 TEMP              0 ****  ****    0 ROOT
