@<TRIPOS>MOLECULE
EH9
   43    44     1     0     0
SMALL
bcc


@<TRIPOS>ATOM
      1 C1          3.1640   -2.2020   -0.1260 ca        1 EH9      0.765200
      2 C2          2.3070   -1.1580   -0.6140 ca        1 EH9     -0.237200
      3 C3          1.6590   -0.3070    0.3800 ca        1 EH9      0.461800
      4 C5          2.6560   -1.4800    2.0400 ca        1 EH9      0.687900
      5 C14         1.1080    0.2810   -1.7220 cc        1 EH9      0.397700
      6 N4          1.8260   -0.4580    1.7290 nb        1 EH9     -0.737000
      7 N6          3.3240   -2.3470    1.2330 nb        1 EH9     -0.799000
      8 N13         0.8960    0.6090   -0.3600 na        1 EH9     -0.256000
      9 N15         1.9370   -0.7570   -1.9050 nd        1 EH9     -0.544100
     10 C20         0.0650    1.6670    0.1580 c3        1 EH9      0.022000
     11 C21        -1.4000    1.5600   -0.2960 c3        1 EH9     -0.096400
     12 N24         3.8110   -3.0300   -1.0040 nh        1 EH9     -0.962500
     13 C26        -2.0340    0.2350    0.0630 c3        1 EH9     -0.081400
     14 C28        -3.5270    0.2640   -0.1920 c3        1 EH9     -0.078400
     15 C30        -4.1630   -1.0710    0.1350 c3        1 EH9     -0.079400
     16 C31        -5.6570   -1.0440   -0.1110 c3        1 EH9     -0.079400
     17 C34        -6.2930   -2.3710    0.2110 c3        1 EH9     -0.093100
     18 C36         0.6220    3.0740   -0.2250 c3        1 EH9      0.132100
     19 O38        -0.2360    4.0790    0.2940 oh        1 EH9     -0.588800
     20 C40         1.9860    3.3230    0.3930 c3        1 EH9     -0.096100
     21 H5          2.8220   -1.6410    3.1270 h5        1 EH9      0.051100
     22 H14         0.6170    0.8490   -2.5220 h5        1 EH9      0.070800
     23 H20         0.0850    1.5930    1.2890 h1        1 EH9      0.107700
     24 H211       -1.9680    2.3810    0.2190 hc        1 EH9      0.048700
     25 H212       -1.4720    1.7320   -1.4010 hc        1 EH9      0.048700
     26 H241        3.6560   -2.9140   -1.9740 hn        1 EH9      0.449800
     27 H242        4.3880   -3.7630   -0.6780 hn        1 EH9      0.449800
     28 H261       -1.5730   -0.5910   -0.5400 hc        1 EH9      0.052700
     29 H262       -1.8420    0.0050    1.1440 hc        1 EH9      0.052700
     30 H281       -4.0020    1.0680    0.4310 hc        1 EH9      0.038200
     31 H282       -3.7210    0.5200   -1.2670 hc        1 EH9      0.038200
     32 H301       -3.6930   -1.8750   -0.4910 hc        1 EH9      0.043200
     33 H302       -3.9640   -1.3290    1.2080 hc        1 EH9      0.043200
     34 H311       -6.1240   -0.2390    0.5160 hc        1 EH9      0.038200
     35 H312       -5.8540   -0.7820   -1.1840 hc        1 EH9      0.038200
     36 H341       -5.8570   -3.1820   -0.4210 hc        1 EH9      0.033367
     37 H342       -6.1280   -2.6370    1.2840 hc        1 EH9      0.033367
     38 H343       -7.3930   -2.3290    0.0240 hc        1 EH9      0.033367
     39 H36         0.6800    3.1600   -1.3460 h1        1 EH9      0.032700
     40 HO38       -0.9940    4.1410   -0.2980 ho        1 EH9      0.400000
     41 H401        2.7480    2.6600   -0.0790 hc        1 EH9      0.053700
     42 H402        2.2790    4.3890    0.2330 hc        1 EH9      0.053700
     43 H403        1.9570    3.1270    1.4920 hc        1 EH9      0.053700
@<TRIPOS>BOND
     1    1    2 ar  
     2    1    7 ar  
     3    1   12 1   
     4    2    3 ar  
     5    2    9 1   
     6    3    6 ar  
     7    3    8 1   
     8    4    6 ar  
     9    4    7 ar  
    10    4   21 1   
    11    5    8 1   
    12    5    9 2   
    13    5   22 1   
    14    8   10 1   
    15   10   11 1   
    16   10   18 1   
    17   10   23 1   
    18   11   13 1   
    19   11   24 1   
    20   11   25 1   
    21   12   26 1   
    22   12   27 1   
    23   13   14 1   
    24   13   28 1   
    25   13   29 1   
    26   14   15 1   
    27   14   30 1   
    28   14   31 1   
    29   15   16 1   
    30   15   32 1   
    31   15   33 1   
    32   16   17 1   
    33   16   34 1   
    34   16   35 1   
    35   17   36 1   
    36   17   37 1   
    37   17   38 1   
    38   18   19 1   
    39   18   20 1   
    40   18   39 1   
    41   19   40 1   
    42   20   41 1   
    43   20   42 1   
    44   20   43 1   
@<TRIPOS>SUBSTRUCTURE
     1 EH9         1 TEMP              0 ****  ****    0 ROOT
