@<TRIPOS>MOLECULE
EH9
   43    44     1     0     0
SMALL
bcc


@<TRIPOS>ATOM
      1 C1         -0.1970   -0.3840   -0.0400 ca        1 EH9      0.761200
      2 C2          1.2250   -0.1900   -0.0840 ca        1 EH9     -0.235200
      3 C3          1.9360   -0.1700    1.1910 ca        1 EH9      0.458800
      4 C5         -0.0180   -0.4880    2.2890 ca        1 EH9      0.685900
      5 C14         3.3280    0.1210   -0.5530 cc        1 EH9      0.401700
      6 N4          1.3190   -0.3220    2.4030 nb        1 EH9     -0.737000
      7 N6         -0.8090   -0.5250    1.1830 nb        1 EH9     -0.797000
      8 N13         3.2840    0.0340    0.8610 na        1 EH9     -0.258000
      9 N15         2.1290   -0.0050   -1.1400 nd        1 EH9     -0.546100
     10 C20         4.3970    0.1230    1.7740 c3        1 EH9      0.057000
     11 C21         5.2670    1.3700    1.5450 c3        1 EH9     -0.089400
     12 N24        -0.9190   -0.4510   -1.2030 nv        1 EH9     -0.958500
     13 C26         4.5220    2.6530    1.8380 c3        1 EH9     -0.082400
     14 C28         5.4510    3.8470    1.7510 c3        1 EH9     -0.078400
     15 C30         4.7100    5.1370    2.0300 c3        1 EH9     -0.079400
     16 C31         5.6360    6.3320    1.9480 c3        1 EH9     -0.080400
     17 C34         4.9030    7.6190    2.2240 c3        1 EH9     -0.093100
     18 C36         5.3100   -1.1390    1.7040 c3        1 EH9      0.128100
     19 O38         6.3220   -0.9170    2.6820 oh        1 EH9     -0.603800
     20 C40         4.5470   -2.4190    1.9800 c3        1 EH9     -0.135100
     21 H5         -0.5640   -0.6120    3.2500 h5        1 EH9      0.051100
     22 H14         4.2770    0.2840   -1.0790 h5        1 EH9      0.072800
     23 H20         3.9740    0.1740    2.8230 h1        1 EH9      0.104700
     24 H211        5.6580    1.3830    0.4950 hc        1 EH9      0.060700
     25 H212        6.1520    1.2850    2.2330 hc        1 EH9      0.060700
     26 H241       -0.4620   -0.2490   -2.0570 hn        1 EH9      0.447300
     27 H242       -1.9070   -0.5040   -1.1770 hn        1 EH9      0.447300
     28 H261        4.0710    2.6030    2.8640 hc        1 EH9      0.047700
     29 H262        3.6780    2.7860    1.1110 hc        1 EH9      0.047700
     30 H281        6.2880    3.7270    2.4890 hc        1 EH9      0.039700
     31 H282        5.9130    3.8910    0.7300 hc        1 EH9      0.039700
     32 H301        4.2450    5.0910    3.0500 hc        1 EH9      0.041200
     33 H302        3.8740    5.2580    1.2910 hc        1 EH9      0.041200
     34 H311        6.1010    6.3750    0.9270 hc        1 EH9      0.038200
     35 H312        6.4720    6.2080    2.6860 hc        1 EH9      0.038200
     36 H341        4.0820    7.7720    1.4830 hc        1 EH9      0.033033
     37 H342        4.4530    7.6050    3.2460 hc        1 EH9      0.033033
     38 H343        5.6030    8.4870    2.1590 hc        1 EH9      0.033033
     39 H36         5.8050   -1.1910    0.6930 h1        1 EH9      0.037700
     40 HO38        6.6950   -1.7770    2.9080 ho        1 EH9      0.409000
     41 H401        3.8250   -2.6330    1.1570 hc        1 EH9      0.052033
     42 H402        3.9820   -2.3360    2.9410 hc        1 EH9      0.052033
     43 H403        5.2560   -3.2790    2.0560 hc        1 EH9      0.052033
@<TRIPOS>BOND
     1    1    2 ar  
     2    1    7 ar  
     3    1   12 1   
     4    2    3 ar  
     5    2    9 1   
     6    3    6 ar  
     7    3    8 1   
     8    4    6 ar  
     9    4    7 ar  
    10    4   21 1   
    11    5    8 1   
    12    5    9 2   
    13    5   22 1   
    14    8   10 1   
    15   10   11 1   
    16   10   18 1   
    17   10   23 1   
    18   11   13 1   
    19   11   24 1   
    20   11   25 1   
    21   12   26 1   
    22   12   27 1   
    23   13   14 1   
    24   13   28 1   
    25   13   29 1   
    26   14   15 1   
    27   14   30 1   
    28   14   31 1   
    29   15   16 1   
    30   15   32 1   
    31   15   33 1   
    32   16   17 1   
    33   16   34 1   
    34   16   35 1   
    35   17   36 1   
    36   17   37 1   
    37   17   38 1   
    38   18   19 1   
    39   18   20 1   
    40   18   39 1   
    41   19   40 1   
    42   20   41 1   
    43   20   42 1   
    44   20   43 1   
@<TRIPOS>SUBSTRUCTURE
     1 EH9         1 TEMP              0 ****  ****    0 ROOT
