@<TRIPOS>MOLECULE
EH9
   44    45     1     0     0
SMALL
bcc


@<TRIPOS>ATOM
      1 C1         -0.1720   -0.2600    0.0060 ca        1 EH9      0.517200
      2 C2          1.2270   -0.1470   -0.0790 ca        1 EH9     -0.140200
      3 C3          1.9480   -0.1370    1.2190 ca        1 EH9      0.454800
      4 C5         -0.0380   -0.3390    2.3160 ca        1 EH9      0.669900
      5 C14         3.3430    0.0470   -0.5350 cc        1 EH9      0.501700
      6 N4          1.3120   -0.2350    2.4130 nb        1 EH9     -0.614000
      7 N6         -0.8170   -0.3570    1.1940 nb        1 EH9     -0.679000
      8 N13         3.3000   -0.0140    0.8720 na        1 EH9     -0.229000
      9 N15         2.1340   -0.0320   -1.1320 nd        1 EH9     -0.590100
     10 C20         4.4270    0.0900    1.7860 c3        1 EH9      0.040000
     11 C21         5.2680    1.3510    1.5470 c3        1 EH9     -0.096400
     12 N24        -0.9510   -0.2690   -1.2460 n4        1 EH9     -0.815300
     13 C26         4.5140    2.6250    1.8580 c3        1 EH9     -0.082400
     14 C28         5.4270    3.8290    1.7500 c3        1 EH9     -0.080400
     15 C30         4.6770    5.1100    2.0460 c3        1 EH9     -0.078400
     16 C31         5.5890    6.3150    1.9420 c3        1 EH9     -0.080400
     17 C34         4.8480    7.5940    2.2350 c3        1 EH9     -0.094100
     18 C36         5.3540   -1.1620    1.7040 c3        1 EH9      0.135100
     19 O38         6.3530   -0.9160    2.6860 oh        1 EH9     -0.594800
     20 C40         4.6150   -2.4560    1.9830 c3        1 EH9     -0.141100
     21 H5         -0.5940   -0.4200    3.2800 h5        1 EH9      0.100100
     22 H14         4.3000    0.1520   -1.0750 h5        1 EH9      0.108800
     23 H20         4.0050    0.1330    2.8360 h1        1 EH9      0.115700
     24 H211        6.1640    1.2740    2.2250 hc        1 EH9      0.076200
     25 H212        5.6490    1.3730    0.4930 hc        1 EH9      0.076200
     26 H241       -0.6200   -1.0460   -1.8300 hn        1 EH9      0.477800
     27 H242       -0.7830    0.6180   -1.7390 hn        1 EH9      0.477800
     28 H261        4.0900    2.5700    2.8960 hc        1 EH9      0.040200
     29 H262        3.6520    2.7510    1.1520 hc        1 EH9      0.040200
     30 H281        6.2810    3.7190    2.4690 hc        1 EH9      0.048200
     31 H282        5.8650    3.8790    0.7190 hc        1 EH9      0.048200
     32 H301        4.2390    5.0610    3.0780 hc        1 EH9      0.039200
     33 H302        3.8230    5.2230    1.3280 hc        1 EH9      0.039200
     34 H311        6.4420    6.2010    2.6610 hc        1 EH9      0.042700
     35 H312        6.0290    6.3620    0.9110 hc        1 EH9      0.042700
     36 H341        4.0080    7.7390    1.5130 hc        1 EH9      0.036700
     37 H342        4.4230    7.5770    3.2670 hc        1 EH9      0.036700
     38 H343        5.5380    8.4680    2.1530 hc        1 EH9      0.036700
     39 H36         5.8450   -1.2010    0.6910 h1        1 EH9      0.042700
     40 HO38        6.8130   -1.7500    2.8450 ho        1 EH9      0.426000
     41 H401        4.0620   -2.3900    2.9510 hc        1 EH9      0.055367
     42 H402        5.3440   -3.3010    2.0520 hc        1 EH9      0.055367
     43 H403        3.8940   -2.6880    1.1660 hc        1 EH9      0.055367
     44 H243       -1.9570   -0.3770   -1.0600 hn        1 EH9      0.477800
@<TRIPOS>BOND
     1    1    2 ar  
     2    1    7 ar  
     3    1   12 1   
     4    2    3 ar  
     5    2    9 1   
     6    3    6 ar  
     7    3    8 1   
     8    4    6 ar  
     9    4    7 ar  
    10    4   21 1   
    11    5    8 1   
    12    5    9 2   
    13    5   22 1   
    14    8   10 1   
    15   10   11 1   
    16   10   18 1   
    17   10   23 1   
    18   11   13 1   
    19   11   24 1   
    20   11   25 1   
    21   12   26 1   
    22   12   27 1   
    23   12   44 1   
    24   13   14 1   
    25   13   28 1   
    26   13   29 1   
    27   14   15 1   
    28   14   30 1   
    29   14   31 1   
    30   15   16 1   
    31   15   32 1   
    32   15   33 1   
    33   16   17 1   
    34   16   34 1   
    35   16   35 1   
    36   17   36 1   
    37   17   37 1   
    38   17   38 1   
    39   18   19 1   
    40   18   20 1   
    41   18   39 1   
    42   19   40 1   
    43   20   41 1   
    44   20   42 1   
    45   20   43 1   
@<TRIPOS>SUBSTRUCTURE
     1 EH9         1 TEMP              0 ****  ****    0 ROOT
