@<TRIPOS>MOLECULE
EH9
   43    44     1     0     0
SMALL
bcc


@<TRIPOS>ATOM
      1 C1         -0.2000   -0.3790   -0.0400 ca        1 EH9      0.761200
      2 C2          1.2220   -0.1880   -0.0830 ca        1 EH9     -0.235200
      3 C3          1.9320   -0.1680    1.1920 ca        1 EH9      0.458800
      4 C5         -0.0240   -0.4810    2.2890 ca        1 EH9      0.685900
      5 C14         3.3260    0.1200   -0.5510 cc        1 EH9      0.401700
      6 N4          1.3140   -0.3180    2.4040 nb        1 EH9     -0.737000
      7 N6         -0.8140   -0.5190    1.1820 nb        1 EH9     -0.797000
      8 N13         3.2800    0.0340    0.8630 na        1 EH9     -0.258000
      9 N15         2.1270   -0.0060   -1.1390 nd        1 EH9     -0.546100
     10 C20         4.3930    0.1220    1.7760 c3        1 EH9      0.057000
     11 C21         5.2650    1.3670    1.5470 c3        1 EH9     -0.089400
     12 N24        -0.9220   -0.4470   -1.2040 nh        1 EH9     -0.958500
     13 C26         4.5230    2.6520    1.8380 c3        1 EH9     -0.082400
     14 C28         5.4540    3.8430    1.7510 c3        1 EH9     -0.078400
     15 C30         4.7160    5.1350    2.0270 c3        1 EH9     -0.079400
     16 C31         5.6440    6.3280    1.9450 c3        1 EH9     -0.080400
     17 C34         4.9130    7.6170    2.2180 c3        1 EH9     -0.093100
     18 C36         5.3040   -1.1430    1.7090 c3        1 EH9      0.128100
     19 O38         6.3150   -0.9210    2.6870 oh        1 EH9     -0.603800
     20 C40         4.5370   -2.4200    1.9860 c3        1 EH9     -0.135100
     21 H5         -0.5710   -0.6030    3.2500 h5        1 EH9      0.051100
     22 H14         4.2750    0.2810   -1.0760 h5        1 EH9      0.072800
     23 H20         3.9700    0.1740    2.8260 h1        1 EH9      0.104700
     24 H211        6.1500    1.2810    2.2360 hc        1 EH9      0.060700
     25 H212        5.6570    1.3770    0.4970 hc        1 EH9      0.060700
     26 H241       -1.9100   -0.4980   -1.1790 hn        1 EH9      0.447300
     27 H242       -0.4640   -0.2460   -2.0580 hn        1 EH9      0.447300
     28 H261        4.0710    2.6030    2.8640 hc        1 EH9      0.047700
     29 H262        3.6800    2.7860    1.1100 hc        1 EH9      0.047700
     30 H281        5.9180    3.8850    0.7300 hc        1 EH9      0.039700
     31 H282        6.2900    3.7230    2.4900 hc        1 EH9      0.039700
     32 H301        3.8810    5.2580    1.2870 hc        1 EH9      0.041200
     33 H302        4.2500    5.0920    3.0460 hc        1 EH9      0.041200
     34 H311        6.1120    6.3690    0.9250 hc        1 EH9      0.038200
     35 H312        6.4790    6.2040    2.6850 hc        1 EH9      0.038200
     36 H341        4.4610    7.6060    3.2390 hc        1 EH9      0.033033
     37 H342        4.0940    7.7710    1.4750 hc        1 EH9      0.033033
     38 H343        5.6150    8.4830    2.1530 hc        1 EH9      0.033033
     39 H36         5.7990   -1.1960    0.6980 h1        1 EH9      0.037700
     40 HO38        6.6870   -1.7810    2.9140 ho        1 EH9      0.409000
     41 H401        5.2450   -3.2820    2.0640 hc        1 EH9      0.052033
     42 H402        3.8160   -2.6340    1.1630 hc        1 EH9      0.052033
     43 H403        3.9720   -2.3350    2.9460 hc        1 EH9      0.052033
@<TRIPOS>BOND
     1    1    2 ar  
     2    1    7 ar  
     3    1   12 1   
     4    2    3 ar  
     5    2    9 1   
     6    3    6 ar  
     7    3    8 1   
     8    4    6 ar  
     9    4    7 ar  
    10    4   21 1   
    11    5    8 1   
    12    5    9 2   
    13    5   22 1   
    14    8   10 1   
    15   10   11 1   
    16   10   18 1   
    17   10   23 1   
    18   11   13 1   
    19   11   24 1   
    20   11   25 1   
    21   12   26 1   
    22   12   27 1   
    23   13   14 1   
    24   13   28 1   
    25   13   29 1   
    26   14   15 1   
    27   14   30 1   
    28   14   31 1   
    29   15   16 1   
    30   15   32 1   
    31   15   33 1   
    32   16   17 1   
    33   16   34 1   
    34   16   35 1   
    35   17   36 1   
    36   17   37 1   
    37   17   38 1   
    38   18   19 1   
    39   18   20 1   
    40   18   39 1   
    41   19   40 1   
    42   20   41 1   
    43   20   42 1   
    44   20   43 1   
@<TRIPOS>SUBSTRUCTURE
     1 EH9         1 TEMP              0 ****  ****    0 ROOT
