@<TRIPOS>MOLECULE
EH9
   43    37     1     0     0
SMALL
bcc


@<TRIPOS>ATOM
      1 C1         -4.8390   -0.9880   -2.2060 c1        1 EH9      0.239000
      2 C2         -3.4530   -0.9630   -2.1720 c1        1 EH9     -0.242000
      3 C3         -2.8100   -0.9000   -0.9880 c1        1 EH9      0.065000
      4 C5         -4.8870   -0.8840    0.1370 c1        1 EH9      0.022000
      5 C14        -1.2960   -0.9450   -2.5760 c1        1 EH9     -0.045000
      6 N4         -3.5240   -0.8600    0.1730 n1        1 EH9     -0.213000
      7 N6         -5.5390   -0.9480   -1.0610 n1        1 EH9     -0.272000
      8 N13        -1.4730   -0.8890   -1.2370 n1        1 EH9     -0.153000
      9 N15        -2.5160   -0.9920   -3.1570 n1        1 EH9     -0.153000
     10 C20        -0.3870   -0.8900   -0.3230 c2        1 EH9      0.048000
     11 C21         0.5280    0.2770   -0.6260 c3        1 EH9     -0.164000
     12 N24        -5.8520   -0.7510   -3.1710 n2        1 EH9     -0.357000
     13 C26         0.8240    1.0310    0.6520 c3        1 EH9     -0.155000
     14 C28         2.0970    1.8320    0.4820 c3        1 EH9     -0.158000
     15 C30         2.6500    2.1960    1.8430 c3        1 EH9     -0.158000
     16 C31         4.1150    2.5500    1.7140 c3        1 EH9     -0.159000
     17 C34         4.6940    2.8100    3.0880 c3        1 EH9     -0.211000
     18 C36         0.3840   -2.1840   -0.4590 c3        1 EH9      0.015000
     19 O38         1.7240   -1.9000   -0.7850 oh        1 EH9     -0.332000
     20 C40         0.3340   -2.9400    0.8500 c3        1 EH9     -0.254000
     21 H5         -5.3970   -0.8560    0.9690 ha        1 EH9      0.187000
     22 H14        -0.4380   -0.9580   -3.0410 DU        1 EH9      0.213000
     23 H20        -0.7280   -0.8080    0.5890 ha        1 EH9      0.133000
     24 H211        0.0920    0.8770   -1.2640 hc        1 EH9      0.099500
     25 H212        1.3630   -0.0550   -1.0090 hc        1 EH9      0.099500
     26 H241       -6.7320   -0.7690   -2.9230 hn        1 EH9      0.242000
     27 H242       -5.6250   -0.5770   -4.0390 hn        1 EH9      0.242000
     28 H261        0.9350    0.3950    1.3870 hc        1 EH9      0.082500
     29 H262        0.0830    1.6360    0.8530 hc        1 EH9      0.082500
     30 H281        1.9030    2.6490   -0.0200 hc        1 EH9      0.081500
     31 H282        2.7560    1.2980   -0.0050 hc        1 EH9      0.081500
     32 H301        2.1590    2.9630    2.2000 hc        1 EH9      0.078500
     33 H302        2.5500    1.4340    2.4490 hc        1 EH9      0.078500
     34 H311        4.5940    1.8080    1.2930 hc        1 EH9      0.078500
     35 H312        4.2090    3.3530    1.1640 hc        1 EH9      0.078500
     36 H341        5.6190    3.1210    2.9990 hc        1 EH9      0.072000
     37 H342        4.6770    1.9810    3.6110 hc        1 EH9      0.072000
     38 H343        4.1600    3.4940    3.5430 hc        1 EH9      0.072000
     39 H36        -0.0150   -2.7290   -1.1650 h1        1 EH9      0.087000
     40 HO38        2.0930   -2.6120   -1.1680 ho        1 EH9      0.206000
     41 H401       -0.4040   -3.5840    0.8270 hc        1 EH9      0.089667
     42 H402        1.1800   -3.4170    0.9840 hc        1 EH9      0.089667
     43 H403        0.1950   -2.3080    1.5860 hc        1 EH9      0.089667
@<TRIPOS>BOND
     1    1    2 1   
     2    1    7 1   
     3    2    3 1   
     4    4    6 1   
     5    4   21 1   
     6    5    8 1   
     7    5    9 1   
     8   10   11 1   
     9   10   18 1   
    10   10   23 1   
    11   11   13 1   
    12   11   24 1   
    13   11   25 1   
    14   12   26 1   
    15   12   27 1   
    16   13   14 1   
    17   13   28 1   
    18   13   29 1   
    19   14   15 1   
    20   14   30 1   
    21   14   31 1   
    22   15   16 1   
    23   15   32 1   
    24   15   33 1   
    25   16   17 1   
    26   16   34 1   
    27   16   35 1   
    28   17   36 1   
    29   17   37 1   
    30   17   38 1   
    31   18   19 1   
    32   18   20 1   
    33   18   39 1   
    34   19   40 1   
    35   20   41 1   
    36   20   42 1   
    37   20   43 1   
@<TRIPOS>SUBSTRUCTURE
     1 EH9         1 TEMP              0 ****  ****    0 ROOT
