@<TRIPOS>MOLECULE
EHA
   69    73     1     0     0
SMALL
bcc


@<TRIPOS>ATOM
      1 CAN        -9.3360   -2.5710    0.2700 ca        1 EHA     -0.087500
      2 CAO        -9.5320   -3.8890   -0.1390 ca        1 EHA     -0.143500
      3 CAP        -8.7460   -4.4280   -1.1580 ca        1 EHA     -0.109000
      4 CAQ        -7.7630   -3.6480   -1.7670 ca        1 EHA     -0.143500
      5 CAR        -7.5570   -2.3330   -1.3540 ca        1 EHA     -0.087500
      6 CAL        -8.3390   -1.7890   -0.3290 ca        1 EHA     -0.165600
      7 CAK        -8.1610   -0.3870    0.1150 c         1 EHA      0.591300
      8 OAM        -9.1350    0.2980    0.4590 o         1 EHA     -0.536100
      9 CAH        -6.7890    0.1610    0.1330 ca        1 EHA     -0.183600
     10 CAG        -5.6840   -0.6360    0.3400 ca        1 EHA     -0.056000
     11 CAI        -6.6170    1.5620   -0.0390 ca        1 EHA     -0.085000
     12 CAJ        -5.3650    2.1200   -0.0210 ca        1 EHA     -0.138000
     13 CAD        -4.2020    1.3210    0.1850 ca        1 EHA      0.022000
     14 CAE        -2.8930    1.8780    0.2130 ca        1 EHA     -0.115300
     15 CBK        -2.6770    3.3420    0.0440 c3        1 EHA     -0.029100
     16 CBL        -2.7270    3.7620   -1.4130 c3        1 EHA     -0.078400
     17 CBM        -2.5340    5.2490   -1.5590 c3        1 EHA     -0.093100
     18 CAC        -4.3790   -0.0770    0.3710 ca        1 EHA     -0.087000
     19 CAB        -3.2440   -0.9030    0.5810 ca        1 EHA     -0.083000
     20 CAA        -1.9810   -0.3690    0.6000 ca        1 EHA     -0.184000
     21 CAF        -1.8030    1.0280    0.4130 ca        1 EHA      0.148100
     22 OBJ        -0.5630    1.6300    0.4090 os        1 EHA     -0.326900
     23 CBI         0.5580    0.7860    0.7140 c3        1 EHA      0.128400
     24 CBH         1.7730    1.6960    0.7030 c3        1 EHA     -0.095400
     25 CBG         3.0060    0.8890    1.0750 c3        1 EHA      0.133400
     26 OBF         4.1130    1.7920    1.0300 os        1 EHA     -0.348900
     27 CAS         5.3290    1.1700    0.7370 ca        1 EHA      0.054100
     28 CAX         6.1610    1.8310   -0.1590 ca        1 EHA     -0.120000
     29 CAT         5.6980   -0.0400    1.3720 ca        1 EHA     -0.191000
     30 CAU         6.9290   -0.6180    1.1280 ca        1 EHA     -0.081000
     31 CAV         7.8040    0.0410    0.2450 ca        1 EHA     -0.059200
     32 CAW         7.4180    1.2760   -0.4130 ca        1 EHA     -0.087800
     33 CBA         8.5210    1.6490   -1.2560 cc        1 EHA     -0.239200
     34 CAZ         9.5100    0.6720   -1.0890 cd        1 EHA     -0.102100
     35 N           9.0920   -0.2970   -0.1810 na        1 EHA     -0.006400
     36 CA          9.8910   -1.3920    0.2910 c3        1 EHA     -0.110700
     37 C           9.3010   -2.8210    0.0350 c         1 EHA      0.915600
     38 OXT         9.7590   -3.4520   -0.9510 o         1 EHA     -0.819800
     39 O           8.4610   -3.2530    0.8690 o         1 EHA     -0.819800
     40 HAN        -9.9640   -2.1300    1.0610 ha        1 EHA      0.147500
     41 HAO       -10.3100   -4.5010    0.3390 ha        1 EHA      0.135000
     42 HAP        -8.9030   -5.4670   -1.4820 ha        1 EHA      0.132000
     43 HAQ        -7.1480   -4.0700   -2.5760 ha        1 EHA      0.135000
     44 HAR        -6.7810   -1.7170   -1.8370 ha        1 EHA      0.147500
     45 HAG        -5.7950   -1.7220    0.4910 ha        1 EHA      0.139000
     46 HAI        -7.5150    2.1830   -0.1810 ha        1 EHA      0.148000
     47 HAJ        -5.2470    3.2050   -0.1680 ha        1 EHA      0.142000
     48 HBK1       -1.6760    3.6270    0.4710 hc        1 EHA      0.055200
     49 HBK2       -3.4500    3.9090    0.6290 hc        1 EHA      0.055200
     50 HBL1       -3.7110    3.4600   -1.8590 hc        1 EHA      0.044200
     51 HBL2       -1.9240    3.2190   -1.9800 hc        1 EHA      0.044200
     52 HBM1       -2.5680    5.5400   -2.6370 hc        1 EHA      0.031367
     53 HBM2       -3.3370    5.8070   -1.0180 hc        1 EHA      0.031367
     54 HBM3       -1.5470    5.5620   -1.1400 hc        1 EHA      0.031367
     55 HAB        -3.3940   -1.9840    0.7260 ha        1 EHA      0.135000
     56 HAA        -1.1110   -1.0220    0.7590 ha        1 EHA      0.146000
     57 HBI1        0.4120    0.3170    1.7220 h1        1 EHA      0.042200
     58 HBI2        0.6470   -0.0120   -0.0690 h1        1 EHA      0.042200
     59 HBH1        1.9050    2.1500   -0.3120 hc        1 EHA      0.067700
     60 HBH2        1.6320    2.5370    1.4290 hc        1 EHA      0.067700
     61 HBG1        2.9200    0.4900    2.1210 h1        1 EHA      0.038200
     62 HBG2        3.1560    0.0330    0.3660 h1        1 EHA      0.038200
     63 HAX         5.8440    2.7630   -0.6420 ha        1 EHA      0.129000
     64 HAT         4.9920   -0.5230    2.0600 ha        1 EHA      0.121000
     65 HAU         7.2280   -1.5890    1.5680 ha        1 EHA      0.199000
     66 HBA         8.5710    2.5170   -1.9020 ha        1 EHA      0.137000
     67 HAZ        10.4870    0.5940   -1.5690 h4        1 EHA      0.156000
     68 HA1        10.8940   -1.3360   -0.2140 h1        1 EHA      0.040700
     69 HA2        10.0270   -1.2740    1.4030 h1        1 EHA      0.040700
@<TRIPOS>BOND
     1    1    2 ar  
     2    1    6 ar  
     3    1   40 1   
     4    2    3 ar  
     5    2   41 1   
     6    3    4 ar  
     7    3   42 1   
     8    4    5 ar  
     9    4   43 1   
    10    5    6 ar  
    11    5   44 1   
    12    6    7 1   
    13    7    8 2   
    14    7    9 1   
    15    9   10 ar  
    16    9   11 ar  
    17   10   18 ar  
    18   10   45 1   
    19   11   12 ar  
    20   11   46 1   
    21   12   13 ar  
    22   12   47 1   
    23   13   14 ar  
    24   13   18 ar  
    25   14   15 1   
    26   14   21 ar  
    27   15   16 1   
    28   15   48 1   
    29   15   49 1   
    30   16   17 1   
    31   16   50 1   
    32   16   51 1   
    33   17   52 1   
    34   17   53 1   
    35   17   54 1   
    36   18   19 ar  
    37   19   20 ar  
    38   19   55 1   
    39   20   21 ar  
    40   20   56 1   
    41   21   22 1   
    42   22   23 1   
    43   23   24 1   
    44   23   57 1   
    45   23   58 1   
    46   24   25 1   
    47   24   59 1   
    48   24   60 1   
    49   25   26 1   
    50   25   61 1   
    51   25   62 1   
    52   26   27 1   
    53   27   28 ar  
    54   27   29 ar  
    55   28   32 ar  
    56   28   63 1   
    57   29   30 ar  
    58   29   64 1   
    59   30   31 ar  
    60   30   65 1   
    61   31   32 ar  
    62   31   35 1   
    63   32   33 1   
    64   33   34 2   
    65   33   66 1   
    66   34   35 1   
    67   34   67 1   
    68   35   36 1   
    69   36   37 1   
    70   36   68 1   
    71   36   69 1   
    72   37   38 1   
    73   37   39 1   
@<TRIPOS>SUBSTRUCTURE
     1 EHA         1 TEMP              0 ****  ****    0 ROOT
