@<TRIPOS>MOLECULE
EHA
   69    60     1     0     0
SMALL
bcc


@<TRIPOS>ATOM
      1 CAN         7.5840   -3.4470   -3.7450 c1        1 EHA     -0.081000
      2 CAO         8.9290   -3.1900   -3.9550 c1        1 EHA     -0.122750
      3 CAP         9.3220   -2.0460   -4.6400 c1        1 EHA     -0.122750
      4 CAQ         8.3670   -1.1610   -5.1150 c1        1 EHA     -0.122750
      5 CAR         7.0200   -1.4150   -4.9070 c1        1 EHA     -0.122750
      6 CAL         6.6280   -2.5580   -4.2220 c1        1 EHA     -0.141000
      7 CAK         5.1620   -2.8290   -3.9850 c2        1 EHA      0.311000
      8 OAM         4.5630   -3.5640   -4.7160 o         1 EHA     -0.299000
      9 CAH         4.4370   -2.1660   -2.7910 c2        1 EHA     -0.167000
     10 CAG         4.3060   -2.4080   -1.4190 c1        1 EHA     -0.039000
     11 CAI         3.7960   -1.0760   -3.3700 c2        1 EHA     -0.098000
     12 CAJ         3.0200   -0.2210   -2.5820 c1        1 EHA     -0.135000
     13 CAD         2.8860   -0.4640   -1.1880 c1        1 EHA      0.021000
     14 CAE         2.0950    0.4050   -0.3830 c2        1 EHA     -0.104000
     15 CBK         1.4920    1.7000   -0.8620 c3        1 EHA     -0.117000
     16 CBL         2.4840    2.8510   -0.6100 c3        1 EHA     -0.155000
     17 CBM         2.2180    3.9520   -1.5770 c3        1 EHA     -0.211000
     18 CAC         3.5180   -1.5390   -0.6160 c1        1 EHA     -0.087000
     19 CAB         3.3820   -1.7830    0.7760 c2        1 EHA     -0.082000
     20 CAA         2.6030   -0.9270    1.5630 c1        1 EHA     -0.185000
     21 CAF         1.9620    0.1650    0.9810 c1        1 EHA      0.102000
     22 OBJ         1.0760    0.7340    1.9600 os        1 EHA     -0.208000
     23 CBI         0.1090   -0.1910    2.4780 c3        1 EHA     -0.019000
     24 CBH        -1.1080    0.5870    3.0160 c3        1 EHA     -0.202000
     25 CBG        -2.3970   -0.4050    3.0880 c3        1 EHA     -0.015000
     26 OBF        -3.4420    0.2230    3.8050 os        1 EHA     -0.228000
     27 CAS        -4.6650    0.1020    3.2130 c2        1 EHA     -0.015000
     28 CAX        -5.0840    0.7810    2.0650 c2        1 EHA     -0.106000
     29 CAT        -5.6040   -0.3100    4.1670 c1        1 EHA     -0.164000
     30 CAU        -6.9580   -0.0430    3.9720 c1        1 EHA     -0.116000
     31 CAV        -7.3860    0.6460    2.8070 c1        1 EHA     -0.030000
     32 CAW        -6.4550    1.0520    1.8650 c1        1 EHA     -0.067000
     33 CBA        -7.1360    1.6860    0.8410 c1        1 EHA     -0.280000
     34 CAZ        -8.4920    1.6710    1.1520 c1        1 EHA     -0.019000
     35 N          -8.6440    1.0300    2.3630 n1        1 EHA     -0.109000
     36 CA         -9.8280    0.9620    3.1740 c2        1 EHA     -0.120000
     37 C         -10.9950    1.6170    2.4330 c2        1 EHA      0.340000
     38 OXT       -10.9520    2.8120    2.1620 o         1 EHA     -0.556500
     39 O         -11.9660    0.9080    2.0260 o         1 EHA     -0.556500
     40 HAN         7.3000   -4.3160   -3.3420 ha        1 EHA      0.150000
     41 HAO         9.5980   -3.8200   -3.6380 ha        1 EHA      0.136000
     42 HAP        10.2710   -1.8650   -4.7870 ha        1 EHA      0.136000
     43 HAQ         8.6430   -0.3550   -5.5980 ha        1 EHA      0.136000
     44 HAR         6.3380   -0.7820   -5.2470 ha        1 EHA      0.136000
     45 HAG         4.7630   -3.1390   -1.0200 ha        1 EHA      0.148000
     46 HAI         3.8280   -0.9530   -4.3060 ha        1 EHA      0.139000
     47 HAJ         2.5620    0.5630   -3.0000 ha        1 EHA      0.142000
     48 HBK1        0.6270    1.8770   -0.3580 hc        1 EHA      0.098000
     49 HBK2        1.3050    1.6370   -1.8100 hc        1 EHA      0.098000
     50 HBL1        2.3740    3.1860    0.3050 hc        1 EHA      0.080500
     51 HBL2        3.4200    2.5180   -0.7320 hc        1 EHA      0.080500
     52 HBM1        2.4660    3.6520   -2.4990 hc        1 EHA      0.071667
     53 HBM2        2.7380    4.7190   -1.3390 hc        1 EHA      0.071667
     54 HBM3        1.2440    4.1900   -1.5540 hc        1 EHA      0.071667
     55 HAB         3.8510   -2.5870    1.2030 ha        1 EHA      0.135000
     56 HAA         2.5100   -1.0940    2.5110 ha        1 EHA      0.142000
     57 HBI1        0.5050   -0.7020    3.1930 h1        1 EHA      0.077500
     58 HBI2       -0.1850   -0.8050    1.7540 h1        1 EHA      0.077500
     59 HBH1       -0.9020    0.9360    3.9320 hc        1 EHA      0.112000
     60 HBH2       -1.3090    1.3560    2.4040 hc        1 EHA      0.112000
     61 HBG1       -2.7010   -0.6090    2.1810 h1        1 EHA      0.081500
     62 HBG2       -2.1400   -1.2500    3.5500 h1        1 EHA      0.081500
     63 HAX        -4.3990    1.1080    1.3930 ha        1 EHA      0.130000
     64 HAT        -5.3070   -0.8560    4.9660 ha        1 EHA      0.121000
     65 HAU        -7.6070   -0.3270    4.6320 ha        1 EHA      0.133000
     66 HBA        -6.7180    2.0930    0.0070 DU        1 EHA      0.183000
     67 HAZ        -9.2220    1.9760    0.5650 DU        1 EHA      0.183000
     68 HA1        -9.6650    1.4530    4.0540 ha        1 EHA      0.081000
     69 HA2       -10.0360    0.0520    3.3540 ha        1 EHA      0.081000
@<TRIPOS>BOND
     1    1    6 1   
     2    1   40 1   
     3    2    3 1   
     4    2   41 1   
     5    3   42 1   
     6    4    5 1   
     7    4   43 1   
     8    5   44 1   
     9    6    7 1   
    10    7    8 1   
    11    7    9 1   
    12    9   10 1   
    13    9   11 1   
    14   10   45 1   
    15   11   12 1   
    16   11   46 1   
    17   12   47 1   
    18   13   14 1   
    19   13   18 1   
    20   14   15 1   
    21   14   21 1   
    22   15   16 1   
    23   15   48 1   
    24   15   49 1   
    25   16   17 1   
    26   16   50 1   
    27   16   51 1   
    28   17   52 1   
    29   17   53 1   
    30   17   54 1   
    31   18   19 1   
    32   19   20 1   
    33   19   55 1   
    34   20   56 1   
    35   21   22 1   
    36   22   23 1   
    37   23   24 1   
    38   23   57 1   
    39   23   58 1   
    40   24   25 1   
    41   24   59 1   
    42   24   60 1   
    43   25   26 1   
    44   25   61 1   
    45   25   62 1   
    46   26   27 1   
    47   27   28 1   
    48   27   29 1   
    49   28   32 1   
    50   28   63 1   
    51   29   64 1   
    52   30   31 1   
    53   30   65 1   
    54   33   34 1   
    55   34   35 1   
    56   36   37 1   
    57   36   68 1   
    58   36   69 1   
    59   37   38 1   
    60   37   39 1   
@<TRIPOS>SUBSTRUCTURE
     1 EHA         1 TEMP              0 ****  ****    0 ROOT
