@<TRIPOS>MOLECULE
EHA
   69    73     1     0     0
SMALL
bcc


@<TRIPOS>ATOM
      1 CAN        -0.4420    0.4110   -0.5270 ca        1 EHA     -0.087500
      2 CAO         0.9260    0.6120   -0.7020 ca        1 EHA     -0.143500
      3 CAP         1.6850    1.1820    0.3200 ca        1 EHA     -0.109000
      4 CAQ         1.0750    1.5510    1.5190 ca        1 EHA     -0.143500
      5 CAR        -0.2910    1.3420    1.7030 ca        1 EHA     -0.087500
      6 CAL        -1.0550    0.7650    0.6820 ca        1 EHA     -0.165600
      7 CAK        -2.5140    0.5550    0.8370 c         1 EHA      0.591300
      8 OAM        -3.2820    0.7010   -0.1250 o         1 EHA     -0.535100
      9 CAH        -3.0160    0.1660    2.1710 ca        1 EHA     -0.182600
     10 CAG        -2.2480   -0.5510    3.0630 ca        1 EHA     -0.057000
     11 CAI        -4.3470    0.5210    2.5240 ca        1 EHA     -0.085000
     12 CAJ        -4.8630    0.1740    3.7450 ca        1 EHA     -0.137000
     13 CAD        -4.0910   -0.5630    4.6910 ca        1 EHA      0.022000
     14 CAE        -4.6080   -0.9390    5.9630 ca        1 EHA     -0.113300
     15 CBK        -6.0010   -0.5930    6.3600 c3        1 EHA     -0.029100
     16 CBL        -6.1180    0.8430    6.8390 c3        1 EHA     -0.077400
     17 CBM        -7.5390    1.1810    7.2080 c3        1 EHA     -0.093100
     18 CAC        -2.7660   -0.9270    4.3310 ca        1 EHA     -0.087000
     19 CAB        -1.9700   -1.6630    5.2470 ca        1 EHA     -0.083000
     20 CAA        -2.4620   -2.0190    6.4760 ca        1 EHA     -0.185000
     21 CAF        -3.7870   -1.6540    6.8380 ca        1 EHA      0.146100
     22 OBJ        -4.3410   -1.9680    8.0610 os        1 EHA     -0.326900
     23 CBI        -3.5510   -2.7960    8.9280 c3        1 EHA      0.128400
     24 CBH        -4.4130   -3.0520   10.1500 c3        1 EHA     -0.092400
     25 CBG        -3.6330   -3.8900   11.1470 c3        1 EHA      0.133400
     26 OBF        -4.4970   -4.0820   12.2730 os        1 EHA     -0.349900
     27 CAS        -3.9010   -4.8690   13.2620 ca        1 EHA      0.033100
     28 CAX        -3.4240   -4.2420   14.4100 ca        1 EHA     -0.104000
     29 CAT        -3.8780   -6.2710   13.0970 ca        1 EHA     -0.162000
     30 CAU        -3.3740   -7.0880   14.0950 ca        1 EHA     -0.118000
     31 CAV        -2.8860   -6.4870   15.2670 ca        1 EHA     -0.073200
     32 CAW        -2.9150   -5.0420   15.4320 ca        1 EHA     -0.079800
     33 CBA        -2.3470   -4.7720   16.7250 cc        1 EHA     -0.268200
     34 CAZ        -1.9980   -6.0050   17.2880 cd        1 EHA     -0.046100
     35 N          -2.3160   -7.0430   16.4180 na        1 EHA     -0.017400
     36 CA         -2.1520   -8.4490   16.6540 c3        1 EHA     -0.110700
     37 C          -1.0350   -8.8780   17.6590 c         1 EHA      0.920600
     38 OXT        -0.8140   -8.1760   18.6810 o         1 EHA     -0.822300
     39 O          -0.4580   -9.9600   17.3750 o         1 EHA     -0.822300
     40 HAN        -1.0530   -0.0210   -1.3350 ha        1 EHA      0.147000
     41 HAO         1.4050    0.3250   -1.6500 ha        1 EHA      0.135500
     42 HAP         2.7640    1.3430    0.1800 ha        1 EHA      0.132000
     43 HAQ         1.6710    2.0080    2.3230 ha        1 EHA      0.135500
     44 HAR        -0.7720    1.6340    2.6490 ha        1 EHA      0.147000
     45 HAG        -1.2190   -0.8510    2.8050 ha        1 EHA      0.139000
     46 HAI        -4.9510    1.0750    1.7870 ha        1 EHA      0.149000
     47 HAJ        -5.8920    0.4660    4.0080 ha        1 EHA      0.142000
     48 HBK1       -6.6950   -0.7620    5.4940 hc        1 EHA      0.055700
     49 HBK2       -6.3390   -1.2790    7.1850 hc        1 EHA      0.055700
     50 HBL1       -5.4500    0.9900    7.7290 hc        1 EHA      0.043700
     51 HBL2       -5.7580    1.5380    6.0350 hc        1 EHA      0.043700
     52 HBM1       -7.6060    2.2370    7.5630 hc        1 EHA      0.032033
     53 HBM2       -8.2160    1.0600    6.3280 hc        1 EHA      0.032033
     54 HBM3       -7.9040    0.5100    8.0240 hc        1 EHA      0.032033
     55 HAB        -0.9460   -1.9420    4.9550 ha        1 EHA      0.135000
     56 HAA        -1.8330   -2.5850    7.1770 ha        1 EHA      0.145000
     57 HBI1       -3.2970   -3.7550    8.4040 h1        1 EHA      0.041200
     58 HBI2       -2.6110   -2.2510    9.2050 h1        1 EHA      0.041200
     59 HBH1       -4.7150   -2.0800   10.6200 hc        1 EHA      0.068700
     60 HBH2       -5.3540   -3.5830    9.8550 hc        1 EHA      0.068700
     61 HBG1       -3.3570   -4.8860   10.7110 h1        1 EHA      0.031200
     62 HBG2       -2.7000   -3.3610   11.4770 h1        1 EHA      0.031200
     63 HAX        -3.4580   -3.1500   14.5090 ha        1 EHA      0.130000
     64 HAT        -4.2720   -6.7040   12.1680 ha        1 EHA      0.122000
     65 HAU        -3.3520   -8.1800   13.9750 ha        1 EHA      0.133000
     66 HBA        -2.2120   -3.7950   17.1730 ha        1 EHA      0.141000
     67 HAZ        -1.5240   -6.2430   18.2530 h4        1 EHA      0.225000
     68 HA1        -3.1220   -8.8600   17.0560 h1        1 EHA      0.042200
     69 HA2        -1.9380   -8.9480   15.6680 h1        1 EHA      0.042200
@<TRIPOS>BOND
     1    1    2 ar  
     2    1    6 ar  
     3    1   40 1   
     4    2    3 ar  
     5    2   41 1   
     6    3    4 ar  
     7    3   42 1   
     8    4    5 ar  
     9    4   43 1   
    10    5    6 ar  
    11    5   44 1   
    12    6    7 1   
    13    7    8 2   
    14    7    9 1   
    15    9   10 ar  
    16    9   11 ar  
    17   10   18 ar  
    18   10   45 1   
    19   11   12 ar  
    20   11   46 1   
    21   12   13 ar  
    22   12   47 1   
    23   13   14 ar  
    24   13   18 ar  
    25   14   15 1   
    26   14   21 ar  
    27   15   16 1   
    28   15   48 1   
    29   15   49 1   
    30   16   17 1   
    31   16   50 1   
    32   16   51 1   
    33   17   52 1   
    34   17   53 1   
    35   17   54 1   
    36   18   19 ar  
    37   19   20 ar  
    38   19   55 1   
    39   20   21 ar  
    40   20   56 1   
    41   21   22 1   
    42   22   23 1   
    43   23   24 1   
    44   23   57 1   
    45   23   58 1   
    46   24   25 1   
    47   24   59 1   
    48   24   60 1   
    49   25   26 1   
    50   25   61 1   
    51   25   62 1   
    52   26   27 1   
    53   27   28 ar  
    54   27   29 ar  
    55   28   32 ar  
    56   28   63 1   
    57   29   30 ar  
    58   29   64 1   
    59   30   31 ar  
    60   30   65 1   
    61   31   32 ar  
    62   31   35 1   
    63   32   33 1   
    64   33   34 2   
    65   33   66 1   
    66   34   35 1   
    67   34   67 1   
    68   35   36 1   
    69   36   37 1   
    70   36   68 1   
    71   36   69 1   
    72   37   38 1   
    73   37   39 1   
@<TRIPOS>SUBSTRUCTURE
     1 EHA         1 TEMP              0 ****  ****    0 ROOT
