@<TRIPOS>MOLECULE
EHA
   69    73     1     0     0
SMALL
bcc


@<TRIPOS>ATOM
      1 CAN        -0.4640    0.5380   -0.4310 ca        1 EHA     -0.087500
      2 CAO         0.9130    0.5520   -0.6440 ca        1 EHA     -0.143500
      3 CAP         1.7790    0.8750    0.4010 ca        1 EHA     -0.109000
      4 CAQ         1.2660    1.1860    1.6610 ca        1 EHA     -0.143500
      5 CAR        -0.1110    1.1640    1.8810 ca        1 EHA     -0.087500
      6 CAL        -0.9830    0.8350    0.8370 ca        1 EHA     -0.165600
      7 CAK        -2.4520    0.8280    1.0330 c         1 EHA      0.591300
      8 OAM        -3.2140    1.1980    0.1280 o         1 EHA     -0.536100
      9 CAH        -2.9700    0.3660    2.3370 ca        1 EHA     -0.183600
     10 CAG        -2.2990   -0.5580    3.1070 ca        1 EHA     -0.056000
     11 CAI        -4.2190    0.8750    2.7880 ca        1 EHA     -0.085000
     12 CAJ        -4.7480    0.4710    3.9860 ca        1 EHA     -0.138000
     13 CAD        -4.0730   -0.4800    4.8080 ca        1 EHA      0.022000
     14 CAE        -4.6050   -0.9180    6.0540 ca        1 EHA     -0.115300
     15 CBK        -5.9140   -0.4120    6.5520 c3        1 EHA     -0.029100
     16 CBL        -5.7890    0.9590    7.1910 c3        1 EHA     -0.078400
     17 CBM        -7.1280    1.4650    7.6630 c3        1 EHA     -0.093100
     18 CAC        -2.8320   -0.9970    4.3480 ca        1 EHA     -0.087000
     19 CAB        -2.1350   -1.9460    5.1400 ca        1 EHA     -0.083000
     20 CAA        -2.6410   -2.3650    6.3430 ca        1 EHA     -0.184000
     21 CAF        -3.8810   -1.8470    6.8050 ca        1 EHA      0.148100
     22 OBJ        -4.4420   -2.2140    8.0090 os        1 EHA     -0.326900
     23 CBI        -3.7610   -3.2420    8.7450 c3        1 EHA      0.128400
     24 CBH        -4.6080   -3.4940    9.9790 c3        1 EHA     -0.095400
     25 CBG        -3.9860   -4.6170   10.7930 c3        1 EHA      0.133400
     26 OBF        -4.8150   -4.7930   11.9440 os        1 EHA     -0.348900
     27 CAS        -4.1290   -5.2950   13.0520 ca        1 EHA      0.054100
     28 CAX        -4.4300   -4.7150   14.2800 ca        1 EHA     -0.120000
     29 CAT        -3.2240   -6.3750   12.9200 ca        1 EHA     -0.191000
     30 CAU        -2.5960   -6.9100   14.0280 ca        1 EHA     -0.081000
     31 CAV        -2.8990   -6.3600   15.2880 ca        1 EHA     -0.059200
     32 CAW        -3.8200   -5.2470   15.4200 ca        1 EHA     -0.087800
     33 CBA        -3.8710   -4.9240   16.8200 cc        1 EHA     -0.239200
     34 CAZ        -3.0170   -5.8190   17.4750 cd        1 EHA     -0.102100
     35 N          -2.4320   -6.6940   16.5630 na        1 EHA     -0.006400
     36 CA         -1.5760   -7.7950   16.9000 c3        1 EHA     -0.110700
     37 C          -0.1490   -7.7680   16.2540 c         1 EHA      0.915600
     38 OXT         0.7900   -7.3520   16.9780 o         1 EHA     -0.819800
     39 O          -0.0410   -8.2210   15.0830 o         1 EHA     -0.819800
     40 HAN        -1.1570    0.3030   -1.2540 ha        1 EHA      0.147500
     41 HAO         1.3160    0.3110   -1.6390 ha        1 EHA      0.135000
     42 HAP         2.8650    0.8880    0.2320 ha        1 EHA      0.132000
     43 HAQ         1.9470    1.4490    2.4830 ha        1 EHA      0.135000
     44 HAR        -0.5150    1.4110    2.8750 ha        1 EHA      0.147500
     45 HAG        -1.3370   -0.9780    2.7710 ha        1 EHA      0.139000
     46 HAI        -4.7500    1.5970    2.1460 ha        1 EHA      0.148000
     47 HAJ        -5.7100    0.8830    4.3270 ha        1 EHA      0.142000
     48 HBK1       -6.6510   -0.3700    5.7060 hc        1 EHA      0.055200
     49 HBK2       -6.3310   -1.1300    7.3110 hc        1 EHA      0.055200
     50 HBL1       -5.0810    0.8970    8.0590 hc        1 EHA      0.044200
     51 HBL2       -5.3490    1.6800    6.4530 hc        1 EHA      0.044200
     52 HBM1       -7.0170    2.4710    8.1350 hc        1 EHA      0.031367
     53 HBM2       -7.8410    1.5530    6.8080 hc        1 EHA      0.031367
     54 HBM3       -7.5690    0.7680    8.4160 hc        1 EHA      0.031367
     55 HAB        -1.1750   -2.3420    4.7710 ha        1 EHA      0.135000
     56 HAA        -2.0870   -3.0970    6.9470 ha        1 EHA      0.146000
     57 HBI1       -3.6810   -4.1650    8.1140 h1        1 EHA      0.042200
     58 HBI2       -2.7370   -2.8810    9.0280 h1        1 EHA      0.042200
     59 HBH1       -4.6730   -2.5630   10.5990 hc        1 EHA      0.067700
     60 HBH2       -5.6520   -3.7690    9.6820 hc        1 EHA      0.067700
     61 HBG1       -3.9840   -5.5760   10.2100 h1        1 EHA      0.038200
     62 HBG2       -2.9350   -4.3630   11.0890 h1        1 EHA      0.038200
     63 HAX        -5.1290   -3.8740   14.3500 ha        1 EHA      0.129000
     64 HAT        -3.0150   -6.7820   11.9220 ha        1 EHA      0.121000
     65 HAU        -1.8440   -7.7200   13.9540 ha        1 EHA      0.199000
     66 HBA        -4.4530   -4.1330   17.2760 ha        1 EHA      0.137000
     67 HAZ        -2.7740   -5.8860   18.5370 h4        1 EHA      0.156000
     68 HA1        -1.4500   -7.8100   18.0170 h1        1 EHA      0.040700
     69 HA2        -2.0800   -8.7470   16.5720 h1        1 EHA      0.040700
@<TRIPOS>BOND
     1    1    2 ar  
     2    1    6 ar  
     3    1   40 1   
     4    2    3 ar  
     5    2   41 1   
     6    3    4 ar  
     7    3   42 1   
     8    4    5 ar  
     9    4   43 1   
    10    5    6 ar  
    11    5   44 1   
    12    6    7 1   
    13    7    8 2   
    14    7    9 1   
    15    9   10 ar  
    16    9   11 ar  
    17   10   18 ar  
    18   10   45 1   
    19   11   12 ar  
    20   11   46 1   
    21   12   13 ar  
    22   12   47 1   
    23   13   14 ar  
    24   13   18 ar  
    25   14   15 1   
    26   14   21 ar  
    27   15   16 1   
    28   15   48 1   
    29   15   49 1   
    30   16   17 1   
    31   16   50 1   
    32   16   51 1   
    33   17   52 1   
    34   17   53 1   
    35   17   54 1   
    36   18   19 ar  
    37   19   20 ar  
    38   19   55 1   
    39   20   21 ar  
    40   20   56 1   
    41   21   22 1   
    42   22   23 1   
    43   23   24 1   
    44   23   57 1   
    45   23   58 1   
    46   24   25 1   
    47   24   59 1   
    48   24   60 1   
    49   25   26 1   
    50   25   61 1   
    51   25   62 1   
    52   26   27 1   
    53   27   28 ar  
    54   27   29 ar  
    55   28   32 ar  
    56   28   63 1   
    57   29   30 ar  
    58   29   64 1   
    59   30   31 ar  
    60   30   65 1   
    61   31   32 ar  
    62   31   35 1   
    63   32   33 1   
    64   33   34 2   
    65   33   66 1   
    66   34   35 1   
    67   34   67 1   
    68   35   36 1   
    69   36   37 1   
    70   36   68 1   
    71   36   69 1   
    72   37   38 1   
    73   37   39 1   
@<TRIPOS>SUBSTRUCTURE
     1 EHA         1 TEMP              0 ****  ****    0 ROOT
