@<TRIPOS>MOLECULE
EHB
   29    30     1     0     0
SMALL
bcc


@<TRIPOS>ATOM
      1 N           0.0090    0.1530   -0.0850 na        1 EHB     -0.117400
      2 O          -1.6850   -0.0820    3.8260 o         1 EHB     -0.573100
      3 S           0.6620    0.0010    2.4260 ss        1 EHB      0.055500
      4 C1          3.6630    0.1000   -0.8780 ca        1 EHB      0.158100
      5 C2          2.2870    0.1200   -1.1400 ca        1 EHB     -0.240000
      6 C3          1.4130    0.0960   -0.0450 ca        1 EHB      0.045800
      7 C4          1.9230    0.0400    1.2880 ca        1 EHB     -0.159100
      8 C5          3.2970    0.0220    1.5070 ca        1 EHB     -0.030000
      9 C6          4.1760    0.0520    0.4320 ca        1 EHB     -0.178000
     10 C7         -0.5600    0.0390    1.1960 cc        1 EHB      0.151500
     11 C8         -1.8970   -0.0120    1.4630 cf        1 EHB     -0.384200
     12 C9         -2.4160   -0.0700    2.8180 c         1 EHB      0.576300
     13 C10        -3.9080   -0.1150    2.9330 c3        1 EHB     -0.187100
     14 C11        -0.7570    0.0520   -1.3000 c3        1 EHB      0.046300
     15 C12        -1.1220   -1.3600   -1.7300 c3        1 EHB     -0.125100
     16 O13         4.5950    0.1220   -1.8900 oh        1 EHB     -0.492100
     17 H2          1.9170    0.1520   -2.1720 ha        1 EHB      0.141000
     18 H5          3.6890   -0.0170    2.5350 ha        1 EHB      0.147000
     19 H6          5.2640    0.0380    0.5850 ha        1 EHB      0.157000
     20 H8         -2.6420   -0.0120    0.6550 ha        1 EHB      0.141000
     21 H10        -4.2180   -0.1600    4.0050 hc        1 EHB      0.058700
     22 H10A       -4.3000   -1.0150    2.4020 hc        1 EHB      0.058700
     23 H10B       -4.3500    0.7980    2.4650 hc        1 EHB      0.058700
     24 H11        -1.7040    0.6490   -1.1550 h1        1 EHB      0.060700
     25 H11A       -0.1640    0.5480   -2.1210 h1        1 EHB      0.060700
     26 H12        -0.2090   -1.9750   -1.9160 hc        1 EHB      0.049700
     27 H12A       -1.7150   -1.3040   -2.6750 hc        1 EHB      0.049700
     28 H12B       -1.7390   -1.8680   -0.9500 hc        1 EHB      0.049700
     29 HO13        4.1240    0.1630   -2.7350 ho        1 EHB      0.421000
@<TRIPOS>BOND
     1    1    6 1   
     2    1   10 1   
     3    1   14 1   
     4    2   12 2   
     5    3    7 1   
     6    3   10 1   
     7    4    5 ar  
     8    4    9 ar  
     9    4   16 1   
    10    5    6 ar  
    11    5   17 1   
    12    6    7 ar  
    13    7    8 ar  
    14    8    9 ar  
    15    8   18 1   
    16    9   19 1   
    17   10   11 2   
    18   11   12 1   
    19   11   20 1   
    20   12   13 1   
    21   13   21 1   
    22   13   22 1   
    23   13   23 1   
    24   14   15 1   
    25   14   24 1   
    26   14   25 1   
    27   15   26 1   
    28   15   27 1   
    29   15   28 1   
    30   16   29 1   
@<TRIPOS>SUBSTRUCTURE
     1 EHB         1 TEMP              0 ****  ****    0 ROOT
