@<TRIPOS>MOLECULE
EHB
   29    30     1     0     0
SMALL
bcc


@<TRIPOS>ATOM
      1 N          -0.0300    0.0830   -0.1210 na        1 EHB     -0.117400
      2 O          -1.6620   -0.0210    3.8210 o         1 EHB     -0.574100
      3 S           0.6620   -0.0230    2.3820 ss        1 EHB      0.051500
      4 C1          3.6070   -0.0670   -0.9750 ca        1 EHB      0.157100
      5 C2          2.2250   -0.0240   -1.2140 ca        1 EHB     -0.184000
      6 C3          1.3740   -0.0030   -0.1040 ca        1 EHB      0.040800
      7 C4          1.9060   -0.0370    1.2230 ca        1 EHB     -0.157100
      8 C5          3.2800   -0.0790    1.4200 ca        1 EHB     -0.024000
      9 C6          4.1390   -0.0940    0.3250 ca        1 EHB     -0.235000
     10 C7         -0.5780    0.0130    1.1700 cc        1 EHB      0.153500
     11 C8         -1.9120   -0.0020    1.4610 cf        1 EHB     -0.384200
     12 C9         -2.4090   -0.0160    2.8250 c         1 EHB      0.576300
     13 C10        -3.9000   -0.0260    2.9650 c3        1 EHB     -0.187100
     14 C11        -0.8170   -0.0250   -1.3220 c3        1 EHB      0.045300
     15 C12        -1.2280   -1.4370   -1.7120 c3        1 EHB     -0.125100
     16 O13         4.4060   -0.0850   -2.0950 oh        1 EHB     -0.496100
     17 H2          1.8520   -0.0080   -2.2470 ha        1 EHB      0.158000
     18 H5          3.6910   -0.1020    2.4410 ha        1 EHB      0.145000
     19 H6          5.2270   -0.1280    0.4750 ha        1 EHB      0.139000
     20 H8         -2.6700   -0.0050    0.6650 ha        1 EHB      0.142000
     21 H10        -4.1920   -0.0390    4.0430 hc        1 EHB      0.059033
     22 H10A       -4.3200   -0.9300    2.4630 hc        1 EHB      0.059033
     23 H10B       -4.3290    0.8850    2.4820 hc        1 EHB      0.059033
     24 H11        -0.2220    0.4330   -2.1640 h1        1 EHB      0.062200
     25 H11A       -1.7440    0.6030   -1.1770 h1        1 EHB      0.062200
     26 H12        -1.8350   -1.3860   -2.6480 hc        1 EHB      0.049700
     27 H12A       -0.3360   -2.0800   -1.8980 hc        1 EHB      0.049700
     28 H12B       -1.8460   -1.9090   -0.9090 hc        1 EHB      0.049700
     29 HO13        5.3290   -0.1150   -1.8040 ho        1 EHB      0.423000
@<TRIPOS>BOND
     1    1    6 1   
     2    1   10 1   
     3    1   14 1   
     4    2   12 2   
     5    3    7 1   
     6    3   10 1   
     7    4    5 ar  
     8    4    9 ar  
     9    4   16 1   
    10    5    6 ar  
    11    5   17 1   
    12    6    7 ar  
    13    7    8 ar  
    14    8    9 ar  
    15    8   18 1   
    16    9   19 1   
    17   10   11 2   
    18   11   12 1   
    19   11   20 1   
    20   12   13 1   
    21   13   21 1   
    22   13   22 1   
    23   13   23 1   
    24   14   15 1   
    25   14   24 1   
    26   14   25 1   
    27   15   26 1   
    28   15   27 1   
    29   15   28 1   
    30   16   29 1   
@<TRIPOS>SUBSTRUCTURE
     1 EHB         1 TEMP              0 ****  ****    0 ROOT
