@<TRIPOS>MOLECULE
EHB
   29    30     1     0     0
SMALL
bcc


@<TRIPOS>ATOM
      1 N           0.0070    0.1510   -0.0860 na        1 EHB     -0.117400
      2 O          -1.6810   -0.0680    3.8280 o         1 EHB     -0.573100
      3 S           0.6640    0.0120    2.4240 ss        1 EHB      0.055500
      4 C1          3.6610    0.1000   -0.8840 ca        1 EHB      0.158100
      5 C2          2.2850    0.1160   -1.1440 ca        1 EHB     -0.240000
      6 C3          1.4120    0.0960   -0.0480 ca        1 EHB      0.045800
      7 C4          1.9240    0.0480    1.2840 ca        1 EHB     -0.159100
      8 C5          3.2980    0.0340    1.5020 ca        1 EHB     -0.030000
      9 C6          4.1750    0.0600    0.4260 ca        1 EHB     -0.178000
     10 C7         -0.5590    0.0420    1.1960 cc        1 EHB      0.151500
     11 C8         -1.8960   -0.0100    1.4650 cf        1 EHB     -0.384200
     12 C9         -2.4130   -0.0610    2.8210 c         1 EHB      0.576300
     13 C10        -3.9050   -0.1090    2.9380 c3        1 EHB     -0.187100
     14 C11        -0.7590    0.0420   -1.3000 c3        1 EHB      0.046300
     15 C12        -1.1220   -1.3730   -1.7230 c3        1 EHB     -0.125100
     16 O13         4.5920    0.1190   -1.8960 oh        1 EHB     -0.492100
     17 H2          1.9130    0.1420   -2.1760 ha        1 EHB      0.141000
     18 H5          3.6910    0.0010    2.5300 ha        1 EHB      0.147000
     19 H6          5.2640    0.0490    0.5770 ha        1 EHB      0.157000
     20 H8         -2.6420   -0.0160    0.6570 ha        1 EHB      0.141000
     21 H10        -4.2130   -0.1490    4.0110 hc        1 EHB      0.058700
     22 H10A       -4.2960   -1.0130    2.4120 hc        1 EHB      0.058700
     23 H10B       -4.3490    0.8000    2.4650 hc        1 EHB      0.058700
     24 H11        -1.7070    0.6380   -1.1560 h1        1 EHB      0.060700
     25 H11A       -0.1680    0.5360   -2.1240 h1        1 EHB      0.060700
     26 H12        -0.2080   -1.9870   -1.9070 hc        1 EHB      0.049700
     27 H12A       -1.7160   -1.3220   -2.6670 hc        1 EHB      0.049700
     28 H12B       -1.7370   -1.8790   -0.9400 hc        1 EHB      0.049700
     29 HO13        4.1190    0.1540   -2.7410 ho        1 EHB      0.421000
@<TRIPOS>BOND
     1    1    6 1   
     2    1   10 1   
     3    1   14 1   
     4    2   12 2   
     5    3    7 1   
     6    3   10 1   
     7    4    5 ar  
     8    4    9 ar  
     9    4   16 1   
    10    5    6 ar  
    11    5   17 1   
    12    6    7 ar  
    13    7    8 ar  
    14    8    9 ar  
    15    8   18 1   
    16    9   19 1   
    17   10   11 2   
    18   11   12 1   
    19   11   20 1   
    20   12   13 1   
    21   13   21 1   
    22   13   22 1   
    23   13   23 1   
    24   14   15 1   
    25   14   24 1   
    26   14   25 1   
    27   15   26 1   
    28   15   27 1   
    29   15   28 1   
    30   16   29 1   
@<TRIPOS>SUBSTRUCTURE
     1 EHB         1 TEMP              0 ****  ****    0 ROOT
