@<TRIPOS>MOLECULE
EHB
   29    30     1     0     0
SMALL
bcc


@<TRIPOS>ATOM
      1 N           0.0500   -0.9460    0.3840 na        1 EHB     -0.117400
      2 O           3.4450    1.5700   -0.2190 o         1 EHB     -0.573100
      3 S           0.7120    1.5110   -0.1430 ss        1 EHB      0.055500
      4 C1         -3.5240    0.1300    0.1430 ca        1 EHB      0.158100
      5 C2         -2.4530   -0.7580    0.3060 ca        1 EHB     -0.240000
      6 C3         -1.1540   -0.2400    0.2100 ca        1 EHB      0.045800
      7 C4         -0.9460    1.1460   -0.0570 ca        1 EHB     -0.159100
      8 C5         -2.0350    1.9970   -0.2120 ca        1 EHB     -0.030000
      9 C6         -3.3290    1.5000   -0.1130 ca        1 EHB     -0.178000
     10 C7          1.1730   -0.1340    0.1510 cc        1 EHB      0.151500
     11 C8          2.4710   -0.5580    0.1720 cf        1 EHB     -0.384200
     12 C9          3.5880    0.3500   -0.0180 c         1 EHB      0.576300
     13 C10         4.9440   -0.2790    0.0410 c3        1 EHB     -0.187100
     14 C11         0.1220   -2.3780    0.5010 c3        1 EHB      0.046300
     15 C12         0.2380   -3.1400   -0.8110 c3        1 EHB     -0.125100
     16 O13        -4.8320   -0.2880    0.2220 oh        1 EHB     -0.492100
     17 H2         -2.6370   -1.8220    0.5010 ha        1 EHB      0.141000
     18 H5         -1.8720    3.0680   -0.4140 ha        1 EHB      0.147000
     19 H6         -4.2020    2.1560   -0.2330 ha        1 EHB      0.157000
     20 H8          2.7240   -1.6150    0.3350 ha        1 EHB      0.141000
     21 H10         5.0940   -0.7590    1.0380 hc        1 EHB      0.058700
     22 H10A        5.0320   -1.0630   -0.7500 hc        1 EHB      0.058700
     23 H10B        5.7400    0.4880   -0.1180 hc        1 EHB      0.058700
     24 H11         1.0150   -2.6220    1.1470 h1        1 EHB      0.060700
     25 H11A       -0.8000   -2.7250    1.0500 h1        1 EHB      0.060700
     26 H12         0.2910   -4.2330   -0.5860 hc        1 EHB      0.049700
     27 H12A       -0.6450   -2.9520   -1.4670 hc        1 EHB      0.049700
     28 H12B        1.1610   -2.8430   -1.3650 hc        1 EHB      0.049700
     29 HO13       -4.8360   -1.2380    0.4080 ho        1 EHB      0.421000
@<TRIPOS>BOND
     1    1    6 1   
     2    1   10 1   
     3    1   14 1   
     4    2   12 2   
     5    3    7 1   
     6    3   10 1   
     7    4    5 ar  
     8    4    9 ar  
     9    4   16 1   
    10    5    6 ar  
    11    5   17 1   
    12    6    7 ar  
    13    7    8 ar  
    14    8    9 ar  
    15    8   18 1   
    16    9   19 1   
    17   10   11 2   
    18   11   12 1   
    19   11   20 1   
    20   12   13 1   
    21   13   21 1   
    22   13   22 1   
    23   13   23 1   
    24   14   15 1   
    25   14   24 1   
    26   14   25 1   
    27   15   26 1   
    28   15   27 1   
    29   15   28 1   
    30   16   29 1   
@<TRIPOS>SUBSTRUCTURE
     1 EHB         1 TEMP              0 ****  ****    0 ROOT
