@<TRIPOS>MOLECULE
EHD
   42    46     1     0     0
SMALL
bcc


@<TRIPOS>ATOM
      1 O18         1.3800   -3.3600    0.2450 o         1 EHD     -0.638500
      2 C14         1.1940   -2.1310    0.1490 c         1 EHD      0.714700
      3 C15         2.2600   -1.1220    0.0610 cc        1 EHD     -0.241400
      4 C19         3.6610   -1.6150    0.0820 c3        1 EHD      0.184600
      5 O22         4.5590   -0.8130   -0.6960 os        1 EHD     -0.391900
      6 C20         4.3290    0.5300   -0.7710 c         1 EHD      0.690600
      7 O23         5.1690    1.1390   -1.4350 o         1 EHD     -0.579500
      8 C16         1.9790    0.2130   -0.0370 cd        1 EHD      0.018800
      9 C17         0.6290    0.6830   -0.0770 cd        1 EHD     -0.154000
     10 C21         3.1280    1.1860   -0.0910 c3        1 EHD      0.122000
     11 O24         2.7120    2.3100   -0.8530 oh        1 EHD     -0.574800
     12 C25         3.5180    1.6110    1.3350 c3        1 EHD     -0.097400
     13 C31         4.5540    2.7040    1.3490 c3        1 EHD     -0.109100
     14 N12        -0.1100   -1.6220    0.1260 n         1 EHD     -0.352000
     15 C11        -1.3410   -2.4140    0.1740 c3        1 EHD      0.145300
     16 C8         -2.4420   -1.3920    0.0800 ca        1 EHD     -0.222600
     17 C7         -3.7970   -1.5090    0.0770 ca        1 EHD     -0.056000
     18 C6         -4.5730   -0.3100   -0.0270 ca        1 EHD     -0.135300
     19 C5         -3.9030    0.9510   -0.1220 ca        1 EHD      0.390600
     20 N10        -2.5160    1.0650   -0.1190 nb        1 EHD     -0.610000
     21 C9         -1.8440   -0.0630   -0.0230 ca        1 EHD      0.455100
     22 C13        -0.3710   -0.2480    0.0020 cc        1 EHD     -0.015200
     23 C1         -5.9880   -0.3510   -0.0370 ca        1 EHD     -0.114000
     24 C2         -6.7200    0.8090   -0.1380 ca        1 EHD     -0.117000
     25 C3         -6.0660    2.0570   -0.2320 ca        1 EHD     -0.121000
     26 C4         -4.6940    2.1380   -0.2260 ca        1 EHD     -0.159300
     27 H191        3.7450   -2.6390   -0.3800 h1        1 EHD      0.086200
     28 H192        4.0520   -1.6390    1.1360 h1        1 EHD      0.086200
     29 H17         0.4180    1.7560   -0.1880 ha        1 EHD      0.191000
     30 H24         3.5110    2.8110   -1.0770 ho        1 EHD      0.433000
     31 H251        3.8990    0.7070    1.8790 hc        1 EHD      0.062700
     32 H252        2.5890    1.9640    1.8550 hc        1 EHD      0.062700
     33 H311        4.9070    2.8810    2.3930 hc        1 EHD      0.049033
     34 H312        5.4340    2.4270    0.7160 hc        1 EHD      0.049033
     35 H313        4.1240    3.6580    0.9570 hc        1 EHD      0.049033
     36 H111       -1.3610   -3.1390   -0.6860 h1        1 EHD      0.086700
     37 H112       -1.3820   -2.9930    1.1370 h1        1 EHD      0.086700
     38 H7         -4.3100   -2.4790    0.1510 ha        1 EHD      0.149000
     39 H1         -6.4890   -1.3290    0.0370 ha        1 EHD      0.138000
     40 H2         -7.8200    0.7770   -0.1460 ha        1 EHD      0.140000
     41 H3         -6.6730    2.9730   -0.3130 ha        1 EHD      0.141000
     42 H4         -4.1880    3.1140   -0.3010 ha        1 EHD      0.155000
@<TRIPOS>BOND
     1    1    2 2   
     2    2    3 1   
     3    2   14 1   
     4    3    4 1   
     5    3    8 2   
     6    4    5 1   
     7    4   27 1   
     8    4   28 1   
     9    5    6 1   
    10    6    7 2   
    11    6   10 1   
    12    8    9 1   
    13    8   10 1   
    14    9   22 2   
    15    9   29 1   
    16   10   11 1   
    17   10   12 1   
    18   11   30 1   
    19   12   13 1   
    20   12   31 1   
    21   12   32 1   
    22   13   33 1   
    23   13   34 1   
    24   13   35 1   
    25   14   15 1   
    26   14   22 1   
    27   15   16 1   
    28   15   36 1   
    29   15   37 1   
    30   16   17 ar  
    31   16   21 ar  
    32   17   18 ar  
    33   17   38 1   
    34   18   19 ar  
    35   18   23 ar  
    36   19   20 ar  
    37   19   26 ar  
    38   20   21 ar  
    39   21   22 1   
    40   23   24 ar  
    41   23   39 1   
    42   24   25 ar  
    43   24   40 1   
    44   25   26 ar  
    45   25   41 1   
    46   26   42 1   
@<TRIPOS>SUBSTRUCTURE
     1 EHD         1 TEMP              0 ****  ****    0 ROOT
