@<TRIPOS>MOLECULE
EHD
   42    46     1     0     0
SMALL
bcc


@<TRIPOS>ATOM
      1 O18         0.0000    0.1950   -0.0580 o         1 EHD     -0.636500
      2 C14         1.2440    0.1350   -0.0240 c         1 EHD      0.714700
      3 C15         2.0540    0.1010    1.2020 cc        1 EHD     -0.239400
      4 C19         1.3340    0.1320    2.5010 c3        1 EHD      0.184600
      5 O22         1.9860   -0.6320    3.5250 os        1 EHD     -0.394900
      6 C20         3.3490   -0.7200    3.5020 c         1 EHD      0.687600
      7 O23         3.8080   -1.4760    4.3580 o         1 EHD     -0.568500
      8 C16         3.4210    0.0390    1.1600 cd        1 EHD     -0.019200
      9 C17         4.1200   -0.0090   -0.0850 cd        1 EHD     -0.164000
     10 C21         4.1770    0.0380    2.4670 c3        1 EHD      0.121000
     11 O24         5.4580   -0.5540    2.3160 oh        1 EHD     -0.568800
     12 C25         4.4120    1.4870    2.9300 c3        1 EHD     -0.063400
     13 C31         5.1420    1.5520    4.2460 c3        1 EHD     -0.101100
     14 N12         1.9750    0.0990   -1.2180 n         1 EHD     -0.352000
     15 C11         1.4090    0.1060   -2.5700 c3        1 EHD      0.145300
     16 C8          2.6100    0.0300   -3.4730 ca        1 EHD     -0.222600
     17 C7          2.7330    0.0040   -4.8280 ca        1 EHD     -0.055000
     18 C6          4.0520   -0.0730   -5.3800 ca        1 EHD     -0.135300
     19 C5          5.1780   -0.1190   -4.4980 ca        1 EHD      0.390600
     20 N10         5.0470   -0.0920   -3.1140 nb        1 EHD     -0.610000
     21 C9          3.8160   -0.0210   -2.6510 ca        1 EHD      0.453100
     22 C13         3.3750    0.0200   -1.2330 cc        1 EHD     -0.011200
     23 C1          4.2600   -0.1040   -6.7800 ca        1 EHD     -0.114000
     24 C2          5.5320   -0.1780   -7.2960 ca        1 EHD     -0.116000
     25 C3          6.6490   -0.2240   -6.4320 ca        1 EHD     -0.120000
     26 C4          6.4880   -0.1960   -5.0680 ca        1 EHD     -0.159300
     27 H191        0.3150   -0.3400    2.4210 h1        1 EHD      0.087200
     28 H192        1.2370    1.1890    2.8720 h1        1 EHD      0.087200
     29 H17         5.2180   -0.0710   -0.1020 ha        1 EHD      0.189000
     30 H24         5.3710   -1.5030    2.4870 ho        1 EHD      0.426000
     31 H251        3.4150    1.9940    3.0070 hc        1 EHD      0.060200
     32 H252        5.0120    2.0050    2.1360 hc        1 EHD      0.060200
     33 H311        6.1400    1.0580    4.1580 hc        1 EHD      0.049033
     34 H312        4.5640    1.0300    5.0470 hc        1 EHD      0.049033
     35 H313        5.2910    2.6170    4.5460 hc        1 EHD      0.049033
     36 H111        0.7240   -0.7760   -2.7000 h1        1 EHD      0.087200
     37 H112        0.8190    1.0510   -2.7280 h1        1 EHD      0.087200
     38 H7          1.8660    0.0400   -5.5030 ha        1 EHD      0.149000
     39 H1          3.3830   -0.0680   -7.4460 ha        1 EHD      0.139000
     40 H2          5.6940   -0.2020   -8.3850 ha        1 EHD      0.140000
     41 H3          7.6590   -0.2830   -6.8680 ha        1 EHD      0.141000
     42 H4          7.3610   -0.2320   -4.3980 ha        1 EHD      0.156000
@<TRIPOS>BOND
     1    1    2 2   
     2    2    3 1   
     3    2   14 1   
     4    3    4 1   
     5    3    8 2   
     6    4    5 1   
     7    4   27 1   
     8    4   28 1   
     9    5    6 1   
    10    6    7 2   
    11    6   10 1   
    12    8    9 1   
    13    8   10 1   
    14    9   22 2   
    15    9   29 1   
    16   10   11 1   
    17   10   12 1   
    18   11   30 1   
    19   12   13 1   
    20   12   31 1   
    21   12   32 1   
    22   13   33 1   
    23   13   34 1   
    24   13   35 1   
    25   14   15 1   
    26   14   22 1   
    27   15   16 1   
    28   15   36 1   
    29   15   37 1   
    30   16   17 ar  
    31   16   21 ar  
    32   17   18 ar  
    33   17   38 1   
    34   18   19 ar  
    35   18   23 ar  
    36   19   20 ar  
    37   19   26 ar  
    38   20   21 ar  
    39   21   22 1   
    40   23   24 ar  
    41   23   39 1   
    42   24   25 ar  
    43   24   40 1   
    44   25   26 ar  
    45   25   41 1   
    46   26   42 1   
@<TRIPOS>SUBSTRUCTURE
     1 EHD         1 TEMP              0 ****  ****    0 ROOT
