@<TRIPOS>MOLECULE
EHD
   42    46     1     0     0
SMALL
bcc


@<TRIPOS>ATOM
      1 O18         0.0010    0.1840   -0.0560 o         1 EHD     -0.636500
      2 C14         1.2450    0.1270   -0.0230 c         1 EHD      0.714700
      3 C15         2.0550    0.0920    1.2020 cc        1 EHD     -0.239400
      4 C19         1.3350    0.1190    2.5020 c3        1 EHD      0.184600
      5 O22         1.9890   -0.6450    3.5240 os        1 EHD     -0.394900
      6 C20         3.3530   -0.7290    3.5010 c         1 EHD      0.687600
      7 O23         3.8130   -1.4860    4.3550 o         1 EHD     -0.568500
      8 C16         3.4220    0.0340    1.1600 cd        1 EHD     -0.019200
      9 C17         4.1210   -0.0100   -0.0850 cd        1 EHD     -0.164000
     10 C21         4.1790    0.0320    2.4670 c3        1 EHD      0.121000
     11 O24         5.4610   -0.5560    2.3140 oh        1 EHD     -0.568800
     12 C25         4.4100    1.4820    2.9330 c3        1 EHD     -0.063400
     13 C31         5.1400    1.5460    4.2480 c3        1 EHD     -0.101100
     14 N12         1.9750    0.0950   -1.2180 n         1 EHD     -0.352000
     15 C11         1.4090    0.1040   -2.5690 c3        1 EHD      0.145300
     16 C8          2.6100    0.0320   -3.4730 ca        1 EHD     -0.222600
     17 C7          2.7320    0.0090   -4.8280 ca        1 EHD     -0.055000
     18 C6          4.0510   -0.0630   -5.3810 ca        1 EHD     -0.135300
     19 C5          5.1780   -0.1080   -4.4990 ca        1 EHD      0.390600
     20 N10         5.0470   -0.0850   -3.1150 nb        1 EHD     -0.610000
     21 C9          3.8170   -0.0180   -2.6510 ca        1 EHD      0.453100
     22 C13         3.3760    0.0200   -1.2330 cc        1 EHD     -0.011200
     23 C1          4.2590   -0.0910   -6.7810 ca        1 EHD     -0.114000
     24 C2          5.5310   -0.1610   -7.2980 ca        1 EHD     -0.116000
     25 C3          6.6480   -0.2060   -6.4340 ca        1 EHD     -0.120000
     26 C4          6.4870   -0.1810   -5.0690 ca        1 EHD     -0.159300
     27 H191        1.2360    1.1760    2.8740 h1        1 EHD      0.087200
     28 H192        0.3170   -0.3550    2.4210 h1        1 EHD      0.087200
     29 H17         5.2190   -0.0690   -0.1030 ha        1 EHD      0.189000
     30 H24         5.3770   -1.5050    2.4840 ho        1 EHD      0.426000
     31 H251        3.4120    1.9850    3.0100 hc        1 EHD      0.060200
     32 H252        5.0080    2.0020    2.1390 hc        1 EHD      0.060200
     33 H311        5.2870    2.6110    4.5500 hc        1 EHD      0.049033
     34 H312        4.5640    1.0210    5.0490 hc        1 EHD      0.049033
     35 H313        6.1400    1.0540    4.1590 hc        1 EHD      0.049033
     36 H111        0.7260   -0.7800   -2.7010 h1        1 EHD      0.087200
     37 H112        0.8160    1.0470   -2.7260 h1        1 EHD      0.087200
     38 H7          1.8650    0.0440   -5.5030 ha        1 EHD      0.149000
     39 H1          3.3820   -0.0570   -7.4460 ha        1 EHD      0.139000
     40 H2          5.6930   -0.1830   -8.3860 ha        1 EHD      0.140000
     41 H3          7.6580   -0.2620   -6.8700 ha        1 EHD      0.141000
     42 H4          7.3620   -0.2160   -4.3990 ha        1 EHD      0.156000
@<TRIPOS>BOND
     1    1    2 2   
     2    2    3 1   
     3    2   14 1   
     4    3    4 1   
     5    3    8 2   
     6    4    5 1   
     7    4   27 1   
     8    4   28 1   
     9    5    6 1   
    10    6    7 2   
    11    6   10 1   
    12    8    9 1   
    13    8   10 1   
    14    9   22 2   
    15    9   29 1   
    16   10   11 1   
    17   10   12 1   
    18   11   30 1   
    19   12   13 1   
    20   12   31 1   
    21   12   32 1   
    22   13   33 1   
    23   13   34 1   
    24   13   35 1   
    25   14   15 1   
    26   14   22 1   
    27   15   16 1   
    28   15   36 1   
    29   15   37 1   
    30   16   17 ar  
    31   16   21 ar  
    32   17   18 ar  
    33   17   38 1   
    34   18   19 ar  
    35   18   23 ar  
    36   19   20 ar  
    37   19   26 ar  
    38   20   21 ar  
    39   21   22 1   
    40   23   24 ar  
    41   23   39 1   
    42   24   25 ar  
    43   24   40 1   
    44   25   26 ar  
    45   25   41 1   
    46   26   42 1   
@<TRIPOS>SUBSTRUCTURE
     1 EHD         1 TEMP              0 ****  ****    0 ROOT
