@<TRIPOS>MOLECULE
EHD
   42    38     1     0     0
SMALL
bcc


@<TRIPOS>ATOM
      1 O18        -3.8170    0.1140    1.0470 o         1 EHD     -0.361000
      2 C14        -2.6230    0.1000    1.0230 c1        1 EHD      0.353000
      3 C15        -1.8940    0.0580    2.2340 c1        1 EHD     -0.216000
      4 C19        -2.6410    0.1280    3.5540 c2        1 EHD      0.030000
      5 O22        -1.9480    0.4080    4.6950 os        1 EHD     -0.233000
      6 C20        -0.6020    0.0730    4.7880 c2        1 EHD      0.272000
      7 O23        -0.1120   -0.1950    5.8800 o         1 EHD     -0.293000
      8 C16        -0.5110    0.0880    2.2140 c2        1 EHD     -0.015000
      9 C17         0.1600    0.1590    1.0060 c1        1 EHD     -0.164000
     10 C21         0.2770    0.0620    3.5240 c3        1 EHD      0.095000
     11 O24         1.2680    1.1360    3.5630 oh        1 EHD     -0.296000
     12 C25         1.2220   -1.1930    3.5460 c3        1 EHD     -0.142000
     13 C31         2.5060   -0.8340    4.2690 c3        1 EHD     -0.219000
     14 N12        -1.9610    0.1710   -0.1740 n2        1 EHD     -0.245000
     15 C11        -2.4250    0.0790   -1.5420 c3        1 EHD      0.022000
     16 C8         -1.2450    0.0750   -2.4220 c2        1 EHD     -0.150000
     17 C7         -1.1140    0.0820   -3.8150 c2        1 EHD     -0.055000
     18 C6          0.1520    0.1550   -4.3960 c1        1 EHD     -0.070000
     19 C5          1.2780    0.2190   -3.5970 c1        1 EHD     -0.003000
     20 N10         1.1470    0.2120   -2.2020 n1        1 EHD     -0.084000
     21 C9         -0.1160    0.1400   -1.6200 c1        1 EHD      0.015000
     22 C13        -0.5630    0.2010   -0.1970 c1        1 EHD      0.096000
     23 C1          0.2870    0.1370   -5.8300 c1        1 EHD     -0.114000
     24 C2          1.5490    0.1850   -6.4110 c1        1 EHD     -0.118000
     25 C3          2.7040    0.2500   -5.5970 c1        1 EHD     -0.118000
     26 C4          2.5780    0.2680   -4.2000 c1        1 EHD     -0.094000
     27 H191       -3.0660   -0.6960    3.6790 h4        1 EHD      0.126500
     28 H192       -3.3140    0.7870    3.4610 h4        1 EHD      0.126500
     29 H17         1.1230    0.2600    0.9940 ha        1 EHD      0.189000
     30 H24         0.8570    1.9480    3.9350 ho        1 EHD      0.225000
     31 H251        1.4310   -1.4680    2.6180 hc        1 EHD      0.099500
     32 H252        0.7780   -1.9300    4.0120 hc        1 EHD      0.099500
     33 H311        2.3010   -0.3670    5.0500 hc        1 EHD      0.088333
     34 H312        3.0720   -0.2570    3.6750 hc        1 EHD      0.088333
     35 H313        3.0310   -1.7100    4.5110 hc        1 EHD      0.088333
     36 H111       -3.0060    0.8650   -1.7560 h1        1 EHD      0.126500
     37 H112       -2.9300   -0.7460   -1.6640 h1        1 EHD      0.126500
     38 H7         -1.9240    0.1730   -4.3860 ha        1 EHD      0.149000
     39 H1         -0.5610    0.0900   -6.4340 ha        1 EHD      0.139000
     40 H2          1.6360    0.1730   -7.3610 ha        1 EHD      0.140500
     41 H3          3.6420    0.2850   -6.0320 ha        1 EHD      0.140500
     42 H4          3.3760    0.3150   -3.6400 ha        1 EHD      0.156000
@<TRIPOS>BOND
     1    1    2 1   
     2    2    3 1   
     3    3    8 1   
     4    4    5 1   
     5    4   27 1   
     6    4   28 1   
     7    5    6 1   
     8    6    7 1   
     9    6   10 1   
    10    8    9 1   
    11    8   10 1   
    12    9   29 1   
    13   10   11 1   
    14   10   12 1   
    15   11   30 1   
    16   12   13 1   
    17   12   31 1   
    18   12   32 1   
    19   13   33 1   
    20   13   34 1   
    21   13   35 1   
    22   14   15 1   
    23   14   22 1   
    24   15   16 1   
    25   15   36 1   
    26   15   37 1   
    27   16   17 1   
    28   16   21 1   
    29   17   18 1   
    30   17   38 1   
    31   18   23 1   
    32   19   20 1   
    33   19   26 1   
    34   23   39 1   
    35   24   25 1   
    36   24   40 1   
    37   25   41 1   
    38   26   42 1   
@<TRIPOS>SUBSTRUCTURE
     1 EHD         1 TEMP              0 ****  ****    0 ROOT
