@<TRIPOS>MOLECULE
EHF
   44    47     1     0     0
SMALL
bcc


@<TRIPOS>ATOM
      1 C1          0.2710    0.4370    0.0300 ca        1 EHF     -0.137000
      2 C2          1.6810    0.4380    0.1060 ca        1 EHF     -0.133000
      3 C3          2.3230    0.3230    1.3150 ca        1 EHF     -0.161300
      4 C4          1.5710    0.2010    2.5260 ca        1 EHF      0.398600
      5 C5          0.1430    0.2010    2.4390 ca        1 EHF     -0.146300
      6 C6         -0.4820    0.3210    1.1760 ca        1 EHF     -0.113000
      7 N7          2.2530    0.0880    3.7330 nb        1 EHF     -0.632000
      8 C8          1.5090   -0.0230    4.8140 ca        1 EHF      0.492100
      9 C9          0.0430   -0.0320    4.8190 ca        1 EHF     -0.212600
     10 C10        -0.6260    0.0800    3.6420 ca        1 EHF     -0.079000
     11 C11         1.9440   -0.1590    6.2240 cc        1 EHF     -0.093200
     12 N12         0.7920   -0.2400    7.0290 n         1 EHF     -0.371000
     13 C13        -0.4330   -0.1730    6.2400 c3        1 EHF      0.150300
     14 C14         3.1920   -0.2070    6.7630 cd        1 EHF     -0.114000
     15 C15         3.3540   -0.3350    8.1970 cd        1 EHF      0.005800
     16 C16         2.2450   -0.3920    8.9980 cc        1 EHF     -0.180400
     17 C17         0.8820   -0.3640    8.4170 c         1 EHF      0.704700
     18 O18        -0.1870   -0.4500    9.0610 o         1 EHF     -0.674500
     19 C19         2.2370   -0.5130   10.4950 c3        1 EHF      0.175600
     20 C20         4.8040   -0.3570    8.6570 c3        1 EHF      0.057000
     21 C21         5.0610   -1.3110    9.8740 c         1 EHF      0.908600
     22 O22         5.0670   -0.8400   11.0440 o         1 EHF     -0.818800
     23 O23         5.2970   -2.5150    9.5810 o         1 EHF     -0.818800
     24 O24         5.6110   -0.8210    7.5700 oh        1 EHF     -0.633800
     25 C25         5.2430    1.0860    8.9340 c3        1 EHF     -0.051400
     26 C26         6.6930    1.1710    9.3320 c3        1 EHF     -0.089100
     27 O27         2.7010    0.6570   11.1320 oh        1 EHF     -0.631800
     28 H1         -0.2150    0.5290   -0.9510 ha        1 EHF      0.126000
     29 H2          2.2640    0.5310   -0.8220 ha        1 EHF      0.129000
     30 H3          3.4230    0.3230    1.3700 ha        1 EHF      0.152000
     31 H4         -1.5810    0.3190    1.1290 ha        1 EHF      0.128000
     32 H5         -1.7240    0.0790    3.5810 ha        1 EHF      0.137000
     33 H6         -1.0530    0.7070    6.5650 h1        1 EHF      0.072200
     34 H7          4.0880   -0.1520    6.1250 ha        1 EHF      0.185000
     35 H9          1.1790   -0.6390   10.8640 h1        1 EHF      0.072200
     36 H10         2.8450   -1.4110   10.7980 h1        1 EHF      0.072200
     37 H12         5.7270   -1.7770    7.6930 ho        1 EHF      0.432000
     38 H13         5.0690    1.6950    8.0080 hc        1 EHF      0.037200
     39 H14         4.5960    1.4970    9.7510 hc        1 EHF      0.037200
     40 H15         6.9860    2.2360    9.4960 hc        1 EHF      0.034367
     41 H16         6.8610    0.5960   10.2760 hc        1 EHF      0.034367
     42 H17         7.3410    0.7390    8.5310 hc        1 EHF      0.034367
     43 H18         3.6580    0.5530   11.2660 ho        1 EHF      0.443000
     44 H8         -1.0380   -1.1100    6.3890 h1        1 EHF      0.072200
@<TRIPOS>BOND
     1    1    2 ar  
     2    1    6 ar  
     3    1   28 1   
     4    2    3 ar  
     5    2   29 1   
     6    3    4 ar  
     7    3   30 1   
     8    4    5 ar  
     9    4    7 ar  
    10    5    6 ar  
    11    5   10 ar  
    12    6   31 1   
    13    7    8 ar  
    14    8    9 ar  
    15    8   11 1   
    16    9   10 ar  
    17    9   13 1   
    18   10   32 1   
    19   11   12 1   
    20   11   14 2   
    21   12   13 1   
    22   12   17 1   
    23   13   33 1   
    24   13   44 1   
    25   14   15 1   
    26   14   34 1   
    27   15   16 2   
    28   15   20 1   
    29   16   17 1   
    30   16   19 1   
    31   17   18 2   
    32   19   27 1   
    33   19   35 1   
    34   19   36 1   
    35   20   21 1   
    36   20   24 1   
    37   20   25 1   
    38   21   22 1   
    39   21   23 1   
    40   24   37 1   
    41   25   26 1   
    42   25   38 1   
    43   25   39 1   
    44   26   40 1   
    45   26   41 1   
    46   26   42 1   
    47   27   43 1   
@<TRIPOS>SUBSTRUCTURE
     1 EHF         1 TEMP              0 ****  ****    0 ROOT
