@<TRIPOS>MOLECULE
EHF
   44    47     1     0     0
SMALL
bcc


@<TRIPOS>ATOM
      1 C1         -6.7400   -0.9600    0.3160 ca        1 EHF     -0.136000
      2 C2         -6.0330   -2.1820    0.2840 ca        1 EHF     -0.134000
      3 C3         -4.6630   -2.2010    0.1680 ca        1 EHF     -0.158300
      4 C4         -3.9270   -0.9780    0.0760 ca        1 EHF      0.397600
      5 C5         -4.6520    0.2540    0.1110 ca        1 EHF     -0.146300
      6 C6         -6.0620    0.2340    0.2310 ca        1 EHF     -0.114000
      7 N7         -2.5420   -1.0350   -0.0410 nb        1 EHF     -0.622000
      8 C8         -1.9160    0.1210   -0.1130 ca        1 EHF      0.491100
      9 C9         -2.5780    1.4290   -0.0900 ca        1 EHF     -0.213600
     10 C10        -3.9300    1.4880    0.0210 ca        1 EHF     -0.079000
     11 C11        -0.4610    0.3770   -0.2350 cc        1 EHF     -0.087200
     12 N12        -0.2720    1.7710   -0.3200 n         1 EHF     -0.369000
     13 C13        -1.5290    2.5020   -0.2110 c3        1 EHF      0.150300
     14 C14         0.5890   -0.4850   -0.2650 cd        1 EHF     -0.111000
     15 C15         1.9430    0.0280   -0.3610 cd        1 EHF      0.015800
     16 C16         2.1490    1.3830   -0.3250 cc        1 EHF     -0.224400
     17 C17         1.0080    2.3270   -0.3230 c         1 EHF      0.707700
     18 O18         1.1020    3.5740   -0.3680 o         1 EHF     -0.680500
     19 C19         3.4730    2.0820   -0.2540 c3        1 EHF      0.189600
     20 C20         2.9790   -1.0730   -0.4290 c3        1 EHF      0.020000
     21 C21         3.3010   -1.5270    1.0660 c         1 EHF      0.943600
     22 O22         2.5260   -2.3500    1.5990 o         1 EHF     -0.796300
     23 O23         4.3150   -0.9970    1.5950 o         1 EHF     -0.796300
     24 O24         2.4020   -2.2170   -1.0590 oh        1 EHF     -0.562800
     25 C25         4.2630   -0.7000   -1.1680 c3        1 EHF     -0.090400
     26 C26         5.0760   -1.9190   -1.5270 c3        1 EHF     -0.080100
     27 O27         4.1430    1.9160    0.9730 oh        1 EHF     -0.626800
     28 H1         -7.8350   -0.9760    0.4110 ha        1 EHF      0.126000
     29 H2         -6.5940   -3.1250    0.3570 ha        1 EHF      0.129000
     30 H3         -4.1130   -3.1560    0.1480 ha        1 EHF      0.155000
     31 H4         -6.6030    1.1910    0.2580 ha        1 EHF      0.127000
     32 H5         -4.4830    2.4380    0.0450 ha        1 EHF      0.136000
     33 H6         -1.6820    3.1350   -1.1280 h1        1 EHF      0.071700
     34 H7          0.4490   -1.5770   -0.1610 ha        1 EHF      0.207000
     35 H9          4.1280    1.7550   -1.1070 h1        1 EHF      0.045200
     36 H10         3.3320    3.1990   -0.3390 h1        1 EHF      0.045200
     37 H12         2.2720   -1.9780   -1.9850 ho        1 EHF      0.363000
     38 H13         4.0140   -0.1260   -2.0990 hc        1 EHF      0.043700
     39 H14         4.8840   -0.0540   -0.4900 hc        1 EHF      0.043700
     40 H15         4.5330   -2.5650   -2.2590 hc        1 EHF      0.030367
     41 H16         6.0500   -1.6130   -1.9770 hc        1 EHF      0.030367
     42 H17         5.2700   -2.5200   -0.6040 hc        1 EHF      0.030367
     43 H18         4.1640    0.9670    1.1960 ho        1 EHF      0.456000
     44 H8         -1.5110    3.1760    0.6890 h1        1 EHF      0.071700
@<TRIPOS>BOND
     1    1    2 ar  
     2    1    6 ar  
     3    1   28 1   
     4    2    3 ar  
     5    2   29 1   
     6    3    4 ar  
     7    3   30 1   
     8    4    5 ar  
     9    4    7 ar  
    10    5    6 ar  
    11    5   10 ar  
    12    6   31 1   
    13    7    8 ar  
    14    8    9 ar  
    15    8   11 1   
    16    9   10 ar  
    17    9   13 1   
    18   10   32 1   
    19   11   12 1   
    20   11   14 2   
    21   12   13 1   
    22   12   17 1   
    23   13   33 1   
    24   13   44 1   
    25   14   15 1   
    26   14   34 1   
    27   15   16 2   
    28   15   20 1   
    29   16   17 1   
    30   16   19 1   
    31   17   18 2   
    32   19   27 1   
    33   19   35 1   
    34   19   36 1   
    35   20   21 1   
    36   20   24 1   
    37   20   25 1   
    38   21   22 1   
    39   21   23 1   
    40   24   37 1   
    41   25   26 1   
    42   25   38 1   
    43   25   39 1   
    44   26   40 1   
    45   26   41 1   
    46   26   42 1   
    47   27   43 1   
@<TRIPOS>SUBSTRUCTURE
     1 EHF         1 TEMP              0 ****  ****    0 ROOT
