@<TRIPOS>MOLECULE
EHF
   44    47     1     0     0
SMALL
bcc


@<TRIPOS>ATOM
      1 C1          0.2930    0.4450    0.0230 ca        1 EHF     -0.137000
      2 C2          1.7010    0.3650    0.0990 ca        1 EHF     -0.133000
      3 C3          2.3360    0.2370    1.3110 ca        1 EHF     -0.161300
      4 C4          1.5790    0.1820    2.5230 ca        1 EHF      0.398600
      5 C5          0.1540    0.2630    2.4360 ca        1 EHF     -0.146300
      6 C6         -0.4640    0.3950    1.1700 ca        1 EHF     -0.113000
      7 N7          2.2550    0.0520    3.7320 nb        1 EHF     -0.632000
      8 C8          1.5070    0.0060    4.8150 ca        1 EHF      0.492100
      9 C9          0.0420    0.0820    4.8200 ca        1 EHF     -0.212600
     10 C10        -0.6200    0.2090    3.6410 ca        1 EHF     -0.079000
     11 C11         1.9340   -0.1280    6.2280 cc        1 EHF     -0.093200
     12 N12         0.7800   -0.1270    7.0330 n         1 EHF     -0.371000
     13 C13        -0.4400   -0.0040    6.2440 c3        1 EHF      0.150300
     14 C14         3.1780   -0.2380    6.7680 cd        1 EHF     -0.114000
     15 C15         3.3330   -0.3480    8.2040 cd        1 EHF      0.005800
     16 C16         2.2230   -0.3250    9.0050 cc        1 EHF     -0.180400
     17 C17         0.8640   -0.2290    8.4230 c         1 EHF      0.704700
     18 O18        -0.2070   -0.2410    9.0690 o         1 EHF     -0.674500
     19 C19         2.2090   -0.4160   10.5050 c3        1 EHF      0.175600
     20 C20         4.7800   -0.4450    8.6640 c3        1 EHF      0.057000
     21 C21         4.9830   -1.3880    9.9000 c         1 EHF      0.908600
     22 O22         5.0170   -0.8960   11.0610 o         1 EHF     -0.818800
     23 O23         5.1480   -2.6090    9.6310 o         1 EHF     -0.818800
     24 O24         5.5570   -0.9750    7.5870 oh        1 EHF     -0.633800
     25 C25         5.3020    0.9760    8.9130 c3        1 EHF     -0.051400
     26 C26         6.7550    0.9850    9.3100 c3        1 EHF     -0.089100
     27 O27         2.7410    0.7370   11.1190 oh        1 EHF     -0.631800
     28 H1         -0.1870    0.5470   -0.9600 ha        1 EHF      0.126000
     29 H2          2.2880    0.4070   -0.8310 ha        1 EHF      0.129000
     30 H3          3.4350    0.1750    1.3660 ha        1 EHF      0.152000
     31 H4         -1.5620    0.4560    1.1230 ha        1 EHF      0.128000
     32 H5         -1.7160    0.2720    3.5790 ha        1 EHF      0.137000
     33 H6         -1.0980   -0.9010    6.4090 h1        1 EHF      0.072200
     34 H7          4.0750   -0.2470    6.1290 ha        1 EHF      0.185000
     35 H9          1.1470   -0.4740   10.8760 h1        1 EHF      0.072200
     36 H10         2.7650   -1.3420   10.8250 h1        1 EHF      0.072200
     37 H12         5.6180   -1.9340    7.7290 ho        1 EHF      0.432000
     38 H13         5.1630    1.5760    7.9760 hc        1 EHF      0.037200
     39 H14         4.6810    1.4390    9.7230 hc        1 EHF      0.037200
     40 H15         7.1090    2.0340    9.4540 hc        1 EHF      0.034367
     41 H16         6.8910    0.4190   10.2650 hc        1 EHF      0.034367
     42 H17         7.3760    0.4990    8.5180 hc        1 EHF      0.034367
     43 H18         3.6910    0.5810   11.2550 ho        1 EHF      0.443000
     44 H8         -1.0080    0.9170    6.5510 h1        1 EHF      0.072200
@<TRIPOS>BOND
     1    1    2 ar  
     2    1    6 ar  
     3    1   28 1   
     4    2    3 ar  
     5    2   29 1   
     6    3    4 ar  
     7    3   30 1   
     8    4    5 ar  
     9    4    7 ar  
    10    5    6 ar  
    11    5   10 ar  
    12    6   31 1   
    13    7    8 ar  
    14    8    9 ar  
    15    8   11 1   
    16    9   10 ar  
    17    9   13 1   
    18   10   32 1   
    19   11   12 1   
    20   11   14 2   
    21   12   13 1   
    22   12   17 1   
    23   13   33 1   
    24   13   44 1   
    25   14   15 1   
    26   14   34 1   
    27   15   16 2   
    28   15   20 1   
    29   16   17 1   
    30   16   19 1   
    31   17   18 2   
    32   19   27 1   
    33   19   35 1   
    34   19   36 1   
    35   20   21 1   
    36   20   24 1   
    37   20   25 1   
    38   21   22 1   
    39   21   23 1   
    40   24   37 1   
    41   25   26 1   
    42   25   38 1   
    43   25   39 1   
    44   26   40 1   
    45   26   41 1   
    46   26   42 1   
    47   27   43 1   
@<TRIPOS>SUBSTRUCTURE
     1 EHF         1 TEMP              0 ****  ****    0 ROOT
