@<TRIPOS>MOLECULE
EHF
   44    41     1     0     0
SMALL
bcc


@<TRIPOS>ATOM
      1 C1         -2.4220   -0.1460   -6.3500 c1        1 EHF     -0.118750
      2 C2         -1.0310   -0.1160   -6.3390 c1        1 EHF     -0.118750
      3 C3         -0.3400   -0.1290   -5.1220 c1        1 EHF     -0.118750
      4 C4         -1.0510   -0.1720   -3.9080 c1        1 EHF      0.005000
      5 C5         -2.4400   -0.2010   -3.9190 c1        1 EHF     -0.080000
      6 C6         -3.1330   -0.1880   -5.1420 c1        1 EHF     -0.118750
      7 N7         -0.3620   -0.1480   -2.6950 n2        1 EHF     -0.102000
      8 C8         -1.0550   -0.1540   -1.5090 c1        1 EHF      0.051000
      9 C9         -2.4590   -0.1840   -1.5170 c1        1 EHF     -0.141000
     10 C10        -3.1440   -0.2070   -2.7200 c2        1 EHF     -0.077000
     11 C11        -0.5840   -0.5630   -0.1030 c2        1 EHF      0.020000
     12 N12        -1.7640   -0.6640    0.7540 n3        1 EHF     -0.257000
     13 C13        -2.9350   -0.5050   -0.0820 c3        1 EHF      0.026000
     14 C14         0.7350    0.0030    0.4700 c1        1 EHF     -0.115000
     15 C15         0.8850    0.1750    1.9340 c1        1 EHF      0.027000
     16 C16        -0.2760   -0.0770    2.8260 c1        1 EHF     -0.189000
     17 C17        -1.6360   -0.4560    2.2210 c1        1 EHF      0.338000
     18 O18        -2.5720   -0.6590    2.9380 o         1 EHF     -0.420000
     19 C19        -0.1380    0.1170    4.3330 c3        1 EHF      0.012000
     20 C20         2.2840    0.4230    2.5450 c3        1 EHF     -0.001000
     21 C21         2.3520    1.8520    3.1100 c2        1 EHF      0.365000
     22 O22         1.4290    2.6870    2.8390 o         1 EHF     -0.534500
     23 O23         3.3030    2.1840    3.8900 o         1 EHF     -0.534500
     24 O24         2.5070   -0.4700    3.5480 oh        1 EHF     -0.290000
     25 C25         3.3640    0.2440    1.4490 c3        1 EHF     -0.165000
     26 C26         4.7190   -0.0240    2.1060 c3        1 EHF     -0.195000
     27 O27        -1.1530   -0.6370    5.0070 oh        1 EHF     -0.342000
     28 H1         -2.9050   -0.1370   -7.2020 ha        1 EHF      0.134500
     29 H2         -0.5350   -0.0870   -7.1820 ha        1 EHF      0.134500
     30 H3          0.6490   -0.1080   -5.1140 ha        1 EHF      0.134500
     31 H4         -4.1150   -0.2080   -5.1500 ha        1 EHF      0.134500
     32 H5         -4.1410   -0.1310   -2.7280 ha        1 EHF      0.138000
     33 H6         -3.4610   -1.3430   -0.0830 h1        1 EHF      0.112000
     34 H7          1.4660    0.2740   -0.1370 ha        1 EHF      0.179000
     35 H9         -0.2380    1.0660    4.5510 h1        1 EHF      0.132000
     36 H10         0.7610   -0.1970    4.6270 h1        1 EHF      0.132000
     37 H12         2.5790   -1.2910    3.2040 ho        1 EHF      0.173000
     38 H13         3.1270   -0.5080    0.8810 hc        1 EHF      0.076000
     39 H14         3.4180    1.0570    0.9080 hc        1 EHF      0.076000
     40 H15         5.3370   -0.4110    1.4390 hc        1 EHF      0.069000
     41 H16         5.0910    0.8230    2.4490 hc        1 EHF      0.069000
     42 H17         4.6000   -0.6630    2.8580 hc        1 EHF      0.069000
     43 H18        -1.2230   -0.3540    5.8530 ho        1 EHF      0.198000
     44 H8         -3.4910    0.2360    0.2590 h1        1 EHF      0.112000
@<TRIPOS>BOND
     1    1    6 1   
     2    1   28 1   
     3    2    3 1   
     4    2   29 1   
     5    3   30 1   
     6    4    5 1   
     7    4    7 1   
     8    5   10 1   
     9    6   31 1   
    10    7    8 1   
    11    8   11 1   
    12    9   10 1   
    13    9   13 1   
    14   10   32 1   
    15   11   12 1   
    16   11   14 1   
    17   12   13 1   
    18   12   17 1   
    19   13   33 1   
    20   13   44 1   
    21   14   34 1   
    22   15   16 1   
    23   15   20 1   
    24   16   19 1   
    25   17   18 1   
    26   19   27 1   
    27   19   35 1   
    28   19   36 1   
    29   20   21 1   
    30   20   24 1   
    31   20   25 1   
    32   21   22 1   
    33   21   23 1   
    34   24   37 1   
    35   25   26 1   
    36   25   38 1   
    37   25   39 1   
    38   26   40 1   
    39   26   41 1   
    40   26   42 1   
    41   27   43 1   
@<TRIPOS>SUBSTRUCTURE
     1 EHF         1 TEMP              0 ****  ****    0 ROOT
