@<TRIPOS>MOLECULE
EHF
   44    47     1     0     0
SMALL
bcc


@<TRIPOS>ATOM
      1 C1          0.2810    0.3970    0.0280 ca        1 EHF     -0.137000
      2 C2          1.6900    0.3970    0.1040 ca        1 EHF     -0.133000
      3 C3          2.3310    0.2880    1.3150 ca        1 EHF     -0.161300
      4 C4          1.5780    0.1720    2.5260 ca        1 EHF      0.398600
      5 C5          0.1500    0.1740    2.4380 ca        1 EHF     -0.146300
      6 C6         -0.4730    0.2880    1.1730 ca        1 EHF     -0.113000
      7 N7          2.2590    0.0640    3.7340 nb        1 EHF     -0.632000
      8 C8          1.5130   -0.0410    4.8150 ca        1 EHF      0.492100
      9 C9          0.0460   -0.0480    4.8180 ca        1 EHF     -0.212600
     10 C10        -0.6210    0.0590    3.6400 ca        1 EHF     -0.079000
     11 C11         1.9460   -0.1700    6.2260 cc        1 EHF     -0.093200
     12 N12         0.7920   -0.2460    7.0300 n         1 EHF     -0.371000
     13 C13        -0.4320   -0.1810    6.2390 c3        1 EHF      0.150300
     14 C14         3.1930   -0.2170    6.7670 cd        1 EHF     -0.114000
     15 C15         3.3530   -0.3370    8.2020 cd        1 EHF      0.005800
     16 C16         2.2430   -0.3890    9.0010 cc        1 EHF     -0.180400
     17 C17         0.8800   -0.3620    8.4180 c         1 EHF      0.704700
     18 O18        -0.1890   -0.4450    9.0610 o         1 EHF     -0.674500
     19 C19         2.2330   -0.5030   10.4990 c3        1 EHF      0.175600
     20 C20         4.8020   -0.3590    8.6630 c3        1 EHF      0.057000
     21 C21         5.0580   -1.3060    9.8850 c         1 EHF      0.908600
     22 O22         5.0620   -0.8300   11.0530 o         1 EHF     -0.818800
     23 O23         5.2930   -2.5120    9.5990 o         1 EHF     -0.818800
     24 O24         5.6100   -0.8280    7.5800 oh        1 EHF     -0.633800
     25 C25         5.2420    1.0860    8.9330 c3        1 EHF     -0.051400
     26 C26         6.6920    1.1720    9.3330 c3        1 EHF     -0.089100
     27 O27         2.6970    0.6700   11.1310 oh        1 EHF     -0.631800
     28 H1         -0.2040    0.4860   -0.9550 ha        1 EHF      0.126000
     29 H2          2.2760    0.4850   -0.8230 ha        1 EHF      0.129000
     30 H3          3.4320    0.2870    1.3710 ha        1 EHF      0.152000
     31 H4         -1.5730    0.2870    1.1240 ha        1 EHF      0.128000
     32 H5         -1.7180    0.0590    3.5770 ha        1 EHF      0.137000
     33 H6         -1.0380   -1.1160    6.3920 h1        1 EHF      0.072200
     34 H7          4.0900   -0.1660    6.1300 ha        1 EHF      0.185000
     35 H9          1.1750   -0.6260   10.8680 h1        1 EHF      0.072200
     36 H10         2.8400   -1.4000   10.8070 h1        1 EHF      0.072200
     37 H12         5.7250   -1.7840    7.7080 ho        1 EHF      0.432000
     38 H13         4.5950    1.5010    9.7480 hc        1 EHF      0.037200
     39 H14         5.0710    1.6910    8.0040 hc        1 EHF      0.037200
     40 H15         6.8580    0.6020   10.2810 hc        1 EHF      0.034367
     41 H16         6.9850    2.2380    9.4930 hc        1 EHF      0.034367
     42 H17         7.3410    0.7350    8.5360 hc        1 EHF      0.034367
     43 H18         3.6540    0.5660   11.2660 ho        1 EHF      0.443000
     44 H8         -1.0510    0.7020    6.5590 h1        1 EHF      0.072200
@<TRIPOS>BOND
     1    1    2 ar  
     2    1    6 ar  
     3    1   28 1   
     4    2    3 ar  
     5    2   29 1   
     6    3    4 ar  
     7    3   30 1   
     8    4    5 ar  
     9    4    7 ar  
    10    5    6 ar  
    11    5   10 ar  
    12    6   31 1   
    13    7    8 ar  
    14    8    9 ar  
    15    8   11 1   
    16    9   10 ar  
    17    9   13 1   
    18   10   32 1   
    19   11   12 1   
    20   11   14 2   
    21   12   13 1   
    22   12   17 1   
    23   13   33 1   
    24   13   44 1   
    25   14   15 1   
    26   14   34 1   
    27   15   16 2   
    28   15   20 1   
    29   16   17 1   
    30   16   19 1   
    31   17   18 2   
    32   19   27 1   
    33   19   35 1   
    34   19   36 1   
    35   20   21 1   
    36   20   24 1   
    37   20   25 1   
    38   21   22 1   
    39   21   23 1   
    40   24   37 1   
    41   25   26 1   
    42   25   38 1   
    43   25   39 1   
    44   26   40 1   
    45   26   41 1   
    46   26   42 1   
    47   27   43 1   
@<TRIPOS>SUBSTRUCTURE
     1 EHF         1 TEMP              0 ****  ****    0 ROOT
