@<TRIPOS>MOLECULE
EHG
   42    39     1     0     0
SMALL
bcc


@<TRIPOS>ATOM
      1 OP2        -1.2980   -2.0860    4.6440 o         1 EHG     -1.053000
      2 P          -0.1120   -2.7190    5.3200 p3        1 EHG      2.548000
      3 OP1        -0.4140   -4.1860    5.6120 o         1 EHG     -1.053000
      4 O5'         1.1600   -2.6190    4.3660 o         1 EHG     -0.741000
      5 C5'         1.5350   -1.3760    3.8860 c3        1 EHG      0.048000
      6 C4'         2.5080   -1.5530    2.7440 c3        1 EHG     -0.026000
      7 C3'         3.1650   -0.4420    2.5340 c3        1 EHG      0.030000
      8 O3'         4.4740   -0.7380    2.0060 oh        1 EHG     -0.372000
      9 C2'         2.3120    0.3850    1.4460 c3        1 EHG     -0.187000
     10 O4'         1.7100   -1.8240    1.3890 os        1 EHG     -0.293000
     11 C1'         1.8240   -0.5240    0.5820 c3        1 EHG      0.185000
     12 N9          0.5140   -0.1130    0.0960 n3        1 EHG     -0.217000
     13 C8         -0.7070   -0.4670    0.5950 c1        1 EHG     -0.133000
     14 N7         -1.6310   -0.1830   -0.3320 n2        1 EHG     -0.344000
     15 C5         -0.9900    0.3530   -1.4230 c1        1 EHG     -0.148000
     16 C4          0.3260    0.3940   -1.1560 c1        1 EHG      0.022000
     17 C6         -1.4630    0.8150   -2.6450 c1        1 EHG      0.110000
     18 N1         -0.6160    1.2950   -3.5460 n1        1 EHG     -0.247000
     19 C2          0.7180    1.3360   -3.2740 c1        1 EHG      0.044000
     20 N2          1.5850    1.8370   -4.2980 n2        1 EHG     -0.281000
     21 N3          1.1860    0.8830   -2.0750 n2        1 EHG     -0.213000
     22 O6         -2.8670    0.6960   -2.7680 os        1 EHG     -0.219000
     23 C1X        -3.4310    1.5710   -3.7100 c3        1 EHG     -0.040000
     24 C2X        -4.9410    1.3160   -3.8060 c3        1 EHG     -0.022000
     25 OX         -5.4870    2.0990   -4.8640 oh        1 EHG     -0.366000
     26 H5'         1.9670   -0.8570    4.6130 h1        1 EHG      0.069500
     27 H5''        0.7240   -0.8860    3.5590 h1        1 EHG      0.069500
     28 H4'         3.1240   -2.2850    2.9290 h1        1 EHG      0.101000
     29 H3'         3.2420    0.0600    3.3490 h1        1 EHG      0.094000
     30 HO3'        5.0990   -0.3890    2.5430 ho        1 EHG      0.258000
     31 H2'         1.5780    0.8560    1.8850 hc        1 EHG      0.110000
     32 H2''        2.8760    1.0090    0.9860 hc        1 EHG      0.110000
     33 H1'         2.4610   -0.6460   -0.1910 h2        1 EHG      0.086000
     34 H8         -0.8830   -0.7860    1.4950 DU        1 EHG      0.224000
     35 H21         1.2310    2.2380   -5.0390 hn        1 EHG      0.159000
     36 H22         2.4850    1.7390   -4.2180 hn        1 EHG      0.159000
     37 H1X1       -3.0170    1.4180   -4.5870 h1        1 EHG      0.089500
     38 H1X2       -3.2750    2.4930   -3.4310 h1        1 EHG      0.089500
     39 H2X2       -5.3720    1.5670   -2.9540 h1        1 EHG      0.080500
     40 H2X1       -5.1070    0.3400   -3.9900 h1        1 EHG      0.080500
     41 HOX        -6.3700    1.9620   -4.9120 ho        1 EHG      0.244000
     42 OP3         0.1770   -1.9820    6.6400 o         1 EHG     -1.053000
@<TRIPOS>BOND
     1    1    2 1   
     2    2    3 1   
     3    2   42 1   
     4    4    5 1   
     5    5    6 1   
     6    5   26 1   
     7    5   27 1   
     8    6    7 1   
     9    6   10 1   
    10    6   28 1   
    11    7    8 1   
    12    7    9 1   
    13    7   29 1   
    14    8   30 1   
    15    9   11 1   
    16    9   31 1   
    17    9   32 1   
    18   10   11 1   
    19   11   12 1   
    20   11   33 1   
    21   12   13 1   
    22   12   16 1   
    23   13   14 1   
    24   14   15 1   
    25   15   17 1   
    26   16   21 1   
    27   17   22 1   
    28   18   19 1   
    29   19   21 1   
    30   20   35 1   
    31   20   36 1   
    32   22   23 1   
    33   23   24 1   
    34   23   37 1   
    35   23   38 1   
    36   24   25 1   
    37   24   39 1   
    38   24   40 1   
    39   25   41 1   
@<TRIPOS>SUBSTRUCTURE
     1 EHG         1 TEMP              0 ****  ****    0 ROOT
