@<TRIPOS>MOLECULE
EHG
   42    44     1     0     0
SMALL
bcc


@<TRIPOS>ATOM
      1 OP2         4.6980   -0.2460   -1.8030 o         1 EHG     -0.929833
      2 P           5.0270    1.0630   -1.1140 p5        1 EHG      1.330900
      3 OP1         4.1830    2.2190   -1.5700 o         1 EHG     -0.929833
      4 O5'         4.2960    0.7040    0.4340 os        1 EHG     -0.553200
      5 C5'         2.9480    0.5000    0.3670 c3        1 EHG      0.227400
      6 C4'         2.6210   -1.0120    0.4230 c3        1 EHG      0.052100
      7 C3'         2.4130   -1.6570   -0.9620 c3        1 EHG      0.156100
      8 O3'         3.4120   -2.6130   -1.2350 oh        1 EHG     -0.671800
      9 C2'         1.0580   -2.3760   -0.8770 c3        1 EHG     -0.130400
     10 O4'         1.4100   -1.2270    1.1980 os        1 EHG     -0.434600
     11 C1'         0.4060   -1.8480    0.4170 c3        1 EHG      0.253800
     12 N9         -0.6870   -0.8980    0.1830 na        1 EHG     -0.260000
     13 C8         -0.5750    0.4810   -0.1170 cc        1 EHG      0.456700
     14 N7         -1.7580    1.1180   -0.2000 nd        1 EHG     -0.558100
     15 C5         -2.7160    0.1330    0.0700 ca        1 EHG     -0.187200
     16 C4         -2.0520   -1.1550    0.3240 ca        1 EHG      0.451800
     17 C6         -4.1270    0.1130    0.1670 ca        1 EHG      0.717600
     18 N1         -4.8170   -1.0070    0.4690 nb        1 EHG     -0.840000
     19 C2         -4.0810   -2.1760    0.6640 ca        1 EHG      0.847900
     20 N2         -4.8390   -3.3650    0.8650 nh        1 EHG     -0.900500
     21 N3         -2.7130   -2.3090    0.6270 nb        1 EHG     -0.747000
     22 O6         -4.7660    1.3160   -0.0460 os        1 EHG     -0.437100
     23 C1X        -6.1990    1.3210    0.0070 c3        1 EHG      0.095400
     24 C2X        -6.5940    2.7690   -0.2740 c3        1 EHG      0.129400
     25 OX         -6.3450    3.1300   -1.6160 oh        1 EHG     -0.611800
     26 H5'         2.4420    0.9760    1.2600 h1        1 EHG     -0.004800
     27 H5''        2.5180    0.9490   -0.5760 h1        1 EHG     -0.004800
     28 H4'         3.4290   -1.5470    0.9910 h1        1 EHG      0.082700
     29 H3'         2.4140   -0.8740   -1.7700 h1        1 EHG      0.104700
     30 HO3'        4.2040   -2.0870   -1.4970 ho        1 EHG      0.501000
     31 H2'         0.4440   -2.1840   -1.7860 hc        1 EHG      0.054700
     32 H2''        1.2090   -3.4790   -0.7800 hc        1 EHG      0.054700
     33 H1'        -0.0280   -2.6790    1.0470 h2        1 EHG      0.070700
     34 H8          0.4260    0.9390   -0.2530 h5        1 EHG      0.129800
     35 H21        -4.3190   -4.0910    1.3090 hn        1 EHG      0.390800
     36 H22        -5.7190   -3.2000    1.3040 hn        1 EHG      0.390800
     37 H1X1       -6.6110    0.6330   -0.7740 h1        1 EHG      0.054200
     38 H1X2       -6.5480    1.0080    1.0240 h1        1 EHG      0.054200
     39 H2X2       -7.7010    2.8880   -0.1380 h1        1 EHG      0.047700
     40 H2X1       -6.0440    3.4600    0.4190 h1        1 EHG      0.047700
     41 HOX        -5.4040    2.9770   -1.7780 ho        1 EHG      0.426000
     42 OP3         6.4630    1.3150   -0.7780 o         1 EHG     -0.929833
@<TRIPOS>BOND
     1    1    2 1   
     2    2    3 1   
     3    2    4 1   
     4    2   42 1   
     5    4    5 1   
     6    5    6 1   
     7    5   26 1   
     8    5   27 1   
     9    6    7 1   
    10    6   10 1   
    11    6   28 1   
    12    7    8 1   
    13    7    9 1   
    14    7   29 1   
    15    8   30 1   
    16    9   11 1   
    17    9   31 1   
    18    9   32 1   
    19   10   11 1   
    20   11   12 1   
    21   11   33 1   
    22   12   13 1   
    23   12   16 1   
    24   13   14 2   
    25   13   34 1   
    26   14   15 1   
    27   15   16 ar  
    28   15   17 ar  
    29   16   21 ar  
    30   17   18 ar  
    31   17   22 1   
    32   18   19 ar  
    33   19   20 1   
    34   19   21 ar  
    35   20   35 1   
    36   20   36 1   
    37   22   23 1   
    38   23   24 1   
    39   23   37 1   
    40   23   38 1   
    41   24   25 1   
    42   24   39 1   
    43   24   40 1   
    44   25   41 1   
@<TRIPOS>SUBSTRUCTURE
     1 EHG         1 TEMP              0 ****  ****    0 ROOT
