@<TRIPOS>MOLECULE
EHM
   20    19     1     0     0
SMALL
bcc


@<TRIPOS>ATOM
      1 O4          0.3190   -0.6990   -0.0500 oh        1 EHM     -0.587800
      2 C4          1.4870    0.0820    0.0360 c3        1 EHM      0.107400
      3 C3          2.1830   -0.2310    1.3730 c3        1 EHM      0.102100
      4 O3          2.1640   -1.6140    1.6740 oh        1 EHM     -0.672800
      5 C2          3.6630    0.2060    1.2950 c3        1 EHM      0.097100
      6 O2          3.6540    1.5810    1.0190 oh        1 EHM     -0.540800
      7 C1          4.4330    0.0120    2.6060 c         1 EHM      0.491100
      8 O1          5.2880    0.7430    3.0720 o         1 EHM     -0.397100
      9 N           4.1280   -1.2430    3.4190 n4        1 EHM     -0.451300
     10 ON          5.0570   -1.5620    4.3440 oh        1 EHM     -0.355300
     11 HO4        -0.4100   -0.2030    0.3470 ho        1 EHM      0.429000
     12 H41         1.2890    1.1820   -0.0370 h1        1 EHM      0.085700
     13 H42         2.1280   -0.2510   -0.8250 h1        1 EHM      0.085700
     14 H3          1.6700    0.3130    2.2150 h1        1 EHM      0.078700
     15 HO3         1.5180   -2.0550    1.0950 ho        1 EHM      0.484000
     16 H2          4.2130   -0.3950    0.5130 h1        1 EHM      0.111700
     17 HO2         4.5370    1.8440    0.7140 ho        1 EHM      0.451000
     18 HN          3.1970   -1.1380    3.8720 hn        1 EHM      0.497800
     19 HON         5.4530   -0.7330    4.7080 ho        1 EHM      0.484000
     20 HN3         4.0620   -2.0630    2.7730 hn        1 EHM      0.497800
@<TRIPOS>BOND
     1    1    2 1   
     2    1   11 1   
     3    2    3 1   
     4    2   12 1   
     5    2   13 1   
     6    3    4 1   
     7    3    5 1   
     8    3   14 1   
     9    4   15 1   
    10    5    6 1   
    11    5    7 1   
    12    5   16 1   
    13    6   17 1   
    14    7    8 2   
    15    7    9 1   
    16    9   10 1   
    17    9   18 1   
    18    9   20 1   
    19   10   19 1   
@<TRIPOS>SUBSTRUCTURE
     1 EHM         1 TEMP              0 ****  ****    0 ROOT
