@<TRIPOS>MOLECULE
EHM
   19    18     1     0     0
SMALL
bcc


@<TRIPOS>ATOM
      1 O4         -0.7060    2.4200   -2.2070 oh        1 EHM     -0.616800
      2 C4         -0.3230    1.0990   -1.9070 c3        1 EHM      0.097400
      3 C3         -0.0330    0.9830   -0.4240 c3        1 EHM      0.116100
      4 O3         -1.2110    1.2360    0.3050 oh        1 EHM     -0.623800
      5 C2          0.4650   -0.4160   -0.1100 c3        1 EHM      0.073100
      6 O2          1.7910   -0.5460   -0.5370 oh        1 EHM     -0.584800
      7 C1          0.3900   -0.6560    1.3870 c         1 EHM      0.571100
      8 O1          0.6770    0.2310    2.1540 o         1 EHM     -0.572100
      9 N          -0.1330   -1.8990    1.8900 n         1 EHM     -0.338400
     10 ON         -0.1880   -2.1230    3.2390 oh        1 EHM     -0.433100
     11 HO4        -0.5280    2.5940   -3.0620 ho        1 EHM      0.414000
     12 H41        -1.0450    0.4890   -2.1470 h1        1 EHM      0.049200
     13 H42         0.4820    0.8680   -2.4160 h1        1 EHM      0.049200
     14 H3          0.6520    1.6360   -0.1730 h1        1 EHM      0.062700
     15 HO3        -1.1950    2.0550    0.6100 ho        1 EHM      0.438000
     16 H2         -0.0940   -1.0750   -0.5760 h1        1 EHM      0.108700
     17 HO2         1.9640   -1.4070   -0.7180 ho        1 EHM      0.430000
     18 HN         -0.4350   -2.5480    1.3000 hn        1 EHM      0.327500
     19 HON        -0.5300   -2.9400    3.3930 ho        1 EHM      0.432000
@<TRIPOS>BOND
     1    1    2 1   
     2    1   11 1   
     3    2    3 1   
     4    2   12 1   
     5    2   13 1   
     6    3    4 1   
     7    3    5 1   
     8    3   14 1   
     9    4   15 1   
    10    5    6 1   
    11    5    7 1   
    12    5   16 1   
    13    6   17 1   
    14    7    8 2   
    15    7    9 1   
    16    9   10 1   
    17    9   18 1   
    18   10   19 1   
@<TRIPOS>SUBSTRUCTURE
     1 EHM         1 TEMP              0 ****  ****    0 ROOT
