@<TRIPOS>MOLECULE
EHM
   20    19     1     0     0
SMALL
bcc


@<TRIPOS>ATOM
      1 O4          0.2540   -0.6490    0.1880 oh        1 EHM     -0.617800
      2 C4          1.4900    0.0310    0.0710 c3        1 EHM      0.109400
      3 C3          2.2080   -0.2160    1.4050 c3        1 EHM      0.141100
      4 O3          2.2520   -1.5950    1.7400 oh        1 EHM     -0.679800
      5 C2          3.6730    0.2630    1.2960 c3        1 EHM      0.095100
      6 O2          3.6200    1.6090    0.9060 oh        1 EHM     -0.540800
      7 C1          4.4290    0.2100    2.6320 c         1 EHM      0.508100
      8 O1          5.1790    1.0450    3.0860 o         1 EHM     -0.343100
      9 N           4.2080   -1.0760    3.4540 ny        1 EHM     -0.455300
     10 ON          5.2100   -1.1980    4.3490 oh        1 EHM     -0.346300
     11 HO4        -0.3050   -0.3630   -0.5470 ho        1 EHM      0.446000
     12 H41         1.3480    1.1330   -0.0800 h1        1 EHM      0.065200
     13 H42         2.0820   -0.4000   -0.7800 h1        1 EHM      0.065200
     14 H3          1.6760    0.3370    2.2280 h1        1 EHM      0.085700
     15 HO3         1.4740   -2.0290    1.3550 ho        1 EHM      0.487000
     16 H2          4.2490   -0.3790    0.5680 h1        1 EHM      0.108700
     17 HO2         4.5060    1.8870    0.6250 ho        1 EHM      0.450000
     18 HN          3.2800   -1.0050    3.9110 hn        1 EHM      0.476300
     19 HON         5.0110   -1.9470    4.9560 ho        1 EHM      0.470000
     20 HN3         4.1840   -1.8850    2.8010 hn        1 EHM      0.476300
@<TRIPOS>BOND
     1    1    2 1   
     2    1   11 1   
     3    2    3 1   
     4    2   12 1   
     5    2   13 1   
     6    3    4 1   
     7    3    5 1   
     8    3   14 1   
     9    4   15 1   
    10    5    6 1   
    11    5    7 1   
    12    5   16 1   
    13    6   17 1   
    14    7    8 2   
    15    7    9 1   
    16    9   10 1   
    17    9   18 1   
    18    9   20 1   
    19   10   19 1   
@<TRIPOS>SUBSTRUCTURE
     1 EHM         1 TEMP              0 ****  ****    0 ROOT
