@<TRIPOS>MOLECULE
EHM
   19    18     1     0     0
SMALL
bcc


@<TRIPOS>ATOM
      1 O4         -0.1540    1.1510    1.4100 oh        1 EHM     -0.598800
      2 C4          0.8150    0.9640    0.3990 c3        1 EHM      0.101400
      3 C3          0.8010    2.1510   -0.5750 c3        1 EHM      0.081100
      4 O3          0.0310    3.2210   -0.0550 oh        1 EHM     -0.609800
      5 C2          2.2290    2.6510   -0.8690 c3        1 EHM      0.046100
      6 O2          3.1330    1.5660   -0.9060 oh        1 EHM     -0.587800
      7 C1          2.2980    3.4740   -2.1550 c         1 EHM      0.570100
      8 O1          3.1830    3.2430   -2.9980 o         1 EHM     -0.568100
      9 N           1.2560    4.3960   -2.4170 n         1 EHM     -0.350400
     10 ON          1.5810    5.4260   -3.1950 oh        1 EHM     -0.426100
     11 HO4        -1.0180    1.1920    0.9800 ho        1 EHM      0.409000
     12 H41         0.6350    0.0080   -0.1580 h1        1 EHM      0.069700
     13 H42         1.7930    0.8960    0.9480 h1        1 EHM      0.069700
     14 H3          0.2820    1.8680   -1.5320 h1        1 EHM      0.085700
     15 HO3         0.2140    3.2870    0.8940 ho        1 EHM      0.423000
     16 H2          2.5760    3.3050   -0.0150 h1        1 EHM      0.089700
     17 HO2         3.3580    1.3760   -1.8290 ho        1 EHM      0.433000
     18 HN          0.7900    4.7440   -1.5840 hn        1 EHM      0.327500
     19 HON         1.6250    5.0710   -4.1060 ho        1 EHM      0.435000
@<TRIPOS>BOND
     1    1    2 1   
     2    1   11 1   
     3    2    3 1   
     4    2   12 1   
     5    2   13 1   
     6    3    4 1   
     7    3    5 1   
     8    3   14 1   
     9    4   15 1   
    10    5    6 1   
    11    5    7 1   
    12    5   16 1   
    13    6   17 1   
    14    7    8 2   
    15    7    9 1   
    16    9   10 1   
    17    9   18 1   
    18   10   19 1   
@<TRIPOS>SUBSTRUCTURE
     1 EHM         1 TEMP              0 ****  ****    0 ROOT
