@<TRIPOS>MOLECULE
EHM
   20    19     1     0     0
SMALL
bcc


@<TRIPOS>ATOM
      1 O4          0.3540   -0.8340   -0.0370 oh        1 EHM     -0.588800
      2 C4          1.5100   -0.0300   -0.0070 c3        1 EHM      0.107400
      3 C3          2.1840   -0.1960    1.3670 c3        1 EHM      0.103100
      4 O3          2.1750   -1.5430    1.8050 oh        1 EHM     -0.676800
      5 C2          3.6590    0.2540    1.2720 c3        1 EHM      0.093100
      6 O2          3.6330    1.5810    0.8160 oh        1 EHM     -0.541800
      7 C1          4.3770    0.2550    2.6280 c         1 EHM      0.510100
      8 O1          5.0680    1.1300    3.1000 o         1 EHM     -0.344100
      9 N           4.1970   -1.0330    3.4610 n4        1 EHM     -0.457300
     10 ON          5.2930   -1.2020    4.2310 oh        1 EHM     -0.348300
     11 HO4        -0.3880   -0.3140    0.2960 ho        1 EHM      0.429000
     12 H41         1.2970    1.0540   -0.1950 h1        1 EHM      0.086200
     13 H42         2.1730   -0.4350   -0.8190 h1        1 EHM      0.086200
     14 H3          1.6470    0.4210    2.1410 h1        1 EHM      0.081700
     15 HO3         1.5490   -2.0480    1.2580 ho        1 EHM      0.482000
     16 H2          4.2430   -0.4280    0.5890 h1        1 EHM      0.105700
     17 HO2         4.5290    1.8330    0.5400 ho        1 EHM      0.450000
     18 HN          4.0680   -1.8360    2.8120 hn        1 EHM      0.475300
     19 HON         5.1250   -1.9250    4.8780 ho        1 EHM      0.470000
     20 HN3         3.3350   -0.9300    4.0260 hn        1 EHM      0.475300
@<TRIPOS>BOND
     1    1    2 1   
     2    1   11 1   
     3    2    3 1   
     4    2   12 1   
     5    2   13 1   
     6    3    4 1   
     7    3    5 1   
     8    3   14 1   
     9    4   15 1   
    10    5    6 1   
    11    5    7 1   
    12    5   16 1   
    13    6   17 1   
    14    7    8 2   
    15    7    9 1   
    16    9   10 1   
    17    9   18 1   
    18    9   20 1   
    19   10   19 1   
@<TRIPOS>SUBSTRUCTURE
     1 EHM         1 TEMP              0 ****  ****    0 ROOT
