@<TRIPOS>MOLECULE
EHN
    8     7     1     0     0
SMALL
bcc


@<TRIPOS>ATOM
      1 C1         -0.0000    0.0000    0.7500 c3        1 EHN     -0.094100
      2 C2          0.0000   -0.0000   -0.7500 c3        1 EHN     -0.094100
      3 H1         -0.0100    1.0450    1.1450 hc        1 EHN      0.031700
      4 H2         -0.9000   -0.5310    1.1450 hc        1 EHN      0.031700
      5 H3          0.9090   -0.5140    1.1450 hc        1 EHN      0.031700
      6 H4          0.0100   -1.0450   -1.1450 hc        1 EHN      0.031700
      7 H5         -0.9090    0.5140   -1.1450 hc        1 EHN      0.031700
      8 H6          0.9000    0.5310   -1.1450 hc        1 EHN      0.031700
@<TRIPOS>BOND
     1    1    2 1   
     2    1    3 1   
     3    1    4 1   
     4    1    5 1   
     5    2    6 1   
     6    2    7 1   
     7    2    8 1   
@<TRIPOS>SUBSTRUCTURE
     1 EHN         1 TEMP              0 ****  ****    0 ROOT
