@<TRIPOS>MOLECULE
EHP
   23    23     1     0     0
SMALL
bcc


@<TRIPOS>ATOM
      1 N           1.1890    1.2310    1.6580 n3        1 EHP     -0.885800
      2 CA          0.0340    0.3520    1.5390 c3        1 EHP      0.023500
      3 C          -0.5530   -0.1400    2.9060 c         1 EHP      0.886600
      4 O          -0.0280    0.2970    3.9690 o         1 EHP     -0.840300
      5 OXT        -1.5370   -0.9300    2.8630 o         1 EHP     -0.840300
      6 CB          0.3000   -0.8800    0.6660 c3        1 EHP     -0.040100
      7 CG          0.3820   -0.5600   -0.7840 ca        1 EHP      0.009700
      8 CD1         1.5890   -0.6810   -1.4860 ca        1 EHP     -0.166000
      9 CD2        -0.7680   -0.1540   -1.4710 ca        1 EHP     -0.209000
     10 CE1         1.6470   -0.4000   -2.8500 ca        1 EHP     -0.108000
     11 CE2        -0.6960    0.1270   -2.8400 ca        1 EHP      0.112100
     12 CZ          0.5100    0.0040   -3.5450 ca        1 EHP     -0.185000
     13 OH         -1.8000    0.5280   -3.5680 oh        1 EHP     -0.519100
     14 HN1         1.9690    0.6900    1.9880 hn        1 EHP      0.330800
     15 HN2         0.9810    1.8950    2.3870 hn        1 EHP      0.330800
     16 HA         -0.7820    0.9600    1.0480 h1        1 EHP      0.042700
     17 HB1         1.2380   -1.3950    1.0020 hc        1 EHP      0.062700
     18 HB2        -0.5580   -1.5900    0.8410 hc        1 EHP      0.062700
     19 HD1         2.4980   -0.9880   -0.9490 ha        1 EHP      0.129000
     20 HD2        -1.7180   -0.0500   -0.9250 ha        1 EHP      0.146000
     21 HE1         2.6020   -0.4950   -3.3870 ha        1 EHP      0.114000
     22 HZ          0.5430    0.2280   -4.6180 ha        1 EHP      0.130000
     23 HOH        -2.5380    0.6160   -2.9480 ho        1 EHP      0.414000
@<TRIPOS>BOND
     1    1    2 1   
     2    1   14 1   
     3    1   15 1   
     4    2    3 1   
     5    2    6 1   
     6    2   16 1   
     7    3    4 1   
     8    3    5 1   
     9    6    7 1   
    10    6   17 1   
    11    6   18 1   
    12    7    8 ar  
    13    7    9 ar  
    14    8   10 ar  
    15    8   19 1   
    16    9   11 ar  
    17    9   20 1   
    18   10   12 ar  
    19   10   21 1   
    20   11   12 ar  
    21   11   13 1   
    22   12   22 1   
    23   13   23 1   
@<TRIPOS>SUBSTRUCTURE
     1 EHP         1 TEMP              0 ****  ****    0 ROOT
