@<TRIPOS>MOLECULE
EI1
   33    35     1     0     0
SMALL
bcc


@<TRIPOS>ATOM
      1 CAA        -0.2240   -2.6260    1.2870 c3        1 EI1     -0.094100
      2 CAK         0.1470   -2.1650   -0.1030 c3        1 EI1     -0.011200
      3 CAP         0.6020   -0.7590   -0.1220 cc        1 EI1     -0.106300
      4 CAR         1.9280   -0.2670   -0.1380 ca        1 EI1     -0.098000
      5 CAJ         3.2080   -0.8600   -0.1740 ca        1 EI1     -0.183000
      6 CAN         4.3010   -0.0220   -0.1790 ca        1 EI1      0.113100
      7 OAC         5.6000   -0.4810   -0.2130 oh        1 EI1     -0.501100
      8 CAH         4.1810    1.4100   -0.1500 ca        1 EI1     -0.132000
      9 CAI         2.9550    2.0100   -0.1160 ca        1 EI1     -0.065000
     10 CAQ         1.7880    1.1900   -0.1100 ca        1 EI1     -0.100000
     11 NAL         0.4590    1.5320   -0.0810 nc        1 EI1     -0.252400
     12 NAS        -0.2230    0.3790   -0.0940 na        1 EI1      0.223700
     13 CAO        -1.6540    0.3510   -0.0830 ca        1 EI1     -0.035200
     14 CAF        -2.3610    0.9610    0.9740 ca        1 EI1     -0.076000
     15 CAD        -3.7490    0.9380    0.9900 ca        1 EI1     -0.183500
     16 CAM        -4.4420    0.3070   -0.0570 ca        1 EI1      0.135100
     17 OAB        -5.8140    0.3140    0.0260 oh        1 EI1     -0.491100
     18 CAE        -3.7490   -0.2880   -1.1200 ca        1 EI1     -0.183500
     19 CAG        -2.3590   -0.2590   -1.1380 ca        1 EI1     -0.076000
     20 HAA1       -1.0730   -2.0230    1.6900 hc        1 EI1      0.040700
     21 HAA2       -0.5320   -3.6990    1.2600 hc        1 EI1      0.040700
     22 HAA3        0.6430   -2.5220    1.9830 hc        1 EI1      0.040700
     23 HAK1        0.9860   -2.8000   -0.5000 hc        1 EI1      0.054700
     24 HAK2       -0.7320   -2.3020   -0.7900 hc        1 EI1      0.054700
     25 HAJ         3.3090   -1.9520   -0.1970 ha        1 EI1      0.134000
     26 HOAC        5.5740   -1.4480   -0.2300 ho        1 EI1      0.416000
     27 HAH         5.1100    1.9980   -0.1560 ha        1 EI1      0.150000
     28 HAI         2.8490    3.1040   -0.0940 ha        1 EI1      0.148000
     29 HAF        -1.8170    1.4660    1.7890 ha        1 EI1      0.154000
     30 HAD        -4.3130    1.4080    1.8090 ha        1 EI1      0.150000
     31 HOAB       -6.1650   -0.1260   -0.7630 ho        1 EI1      0.423000
     32 HAE        -4.2990   -0.7680   -1.9410 ha        1 EI1      0.150000
     33 HAG        -1.8200   -0.7120   -1.9860 ha        1 EI1      0.154000
@<TRIPOS>BOND
     1    1    2 1   
     2    1   20 1   
     3    1   21 1   
     4    1   22 1   
     5    2    3 1   
     6    2   23 1   
     7    2   24 1   
     8    3    4 2   
     9    3   12 1   
    10    4    5 ar  
    11    4   10 ar  
    12    5    6 ar  
    13    5   25 1   
    14    6    7 1   
    15    6    8 ar  
    16    7   26 1   
    17    8    9 ar  
    18    8   27 1   
    19    9   10 ar  
    20    9   28 1   
    21   10   11 2   
    22   11   12 1   
    23   12   13 1   
    24   13   14 ar  
    25   13   19 ar  
    26   14   15 ar  
    27   14   29 1   
    28   15   16 ar  
    29   15   30 1   
    30   16   17 1   
    31   16   18 ar  
    32   17   31 1   
    33   18   19 ar  
    34   18   32 1   
    35   19   33 1   
@<TRIPOS>SUBSTRUCTURE
     1 EI1         1 TEMP              0 ****  ****    0 ROOT
