@<TRIPOS>MOLECULE
EI1
   33    28     1     0     0
SMALL
bcc


@<TRIPOS>ATOM
      1 CAA        -2.9810    0.2760   -1.5970 c3        1 EI1     -0.211000
      2 CAK        -1.5070   -0.0620   -1.6190 c3        1 EI1     -0.101000
      3 CAP        -0.9240    0.1390   -0.2400 c2        1 EI1     -0.071000
      4 CAR        -1.2900    0.1510    1.0950 c1        1 EI1     -0.104000
      5 CAJ        -2.4230   -0.3480    1.7670 c1        1 EI1     -0.120000
      6 CAN        -2.5200   -0.2270    3.1440 c1        1 EI1      0.070000
      7 OAC        -3.4470   -0.7880    4.0420 oh        1 EI1     -0.251000
      8 CAH        -1.5040    0.3830    3.8590 c1        1 EI1     -0.166000
      9 CAI        -0.3900    0.8740    3.1970 c1        1 EI1     -0.057000
     10 CAQ        -0.2910    0.7520    1.7980 c1        1 EI1     -0.098000
     11 NAL         0.6900    1.1120    0.9140 n1        1 EI1     -0.082000
     12 NAS         0.2900    0.7290   -0.3460 n3        1 EI1     -0.020000
     13 CAO         1.4320    0.3330   -0.9340 c1        1 EI1      0.009000
     14 CAF         1.8970   -0.9590   -0.7440 c1        1 EI1     -0.137500
     15 CAD         3.0480   -1.3840   -1.3910 c1        1 EI1     -0.137500
     16 CAM         3.7330   -0.5160   -2.2280 c1        1 EI1      0.070000
     17 OAB         4.8810   -0.9590   -2.9130 oh        1 EI1     -0.251000
     18 CAE         3.2680    0.7750   -2.4180 c1        1 EI1     -0.166000
     19 CAG         2.1170    1.2000   -1.7710 c1        1 EI1     -0.092000
     20 HAA1       -3.3050    0.3860   -2.5160 hc        1 EI1      0.080333
     21 HAA2       -3.4760   -0.4500   -1.1620 hc        1 EI1      0.080333
     22 HAA3       -3.1190    1.1100   -1.1000 hc        1 EI1      0.080333
     23 HAK1       -1.0480    0.5230   -2.2550 hc        1 EI1      0.099500
     24 HAK2       -1.3900   -0.9950   -1.8900 hc        1 EI1      0.099500
     25 HAJ        -3.1360   -0.7850    1.2640 ha        1 EI1      0.150000
     26 HOAC       -3.2470   -1.6440    4.1790 ho        1 EI1      0.219000
     27 HAH        -1.5730    0.4680    4.8290 ha        1 EI1      0.144500
     28 HAI         0.3250    1.3040    3.7010 ha        1 EI1      0.146000
     29 HAF         1.4150   -1.5690   -0.1550 ha        1 EI1      0.151000
     30 HAD         3.3750   -2.2930   -1.2580 ha        1 EI1      0.151000
     31 HOAB        5.5600   -1.0300   -2.3400 ho        1 EI1      0.219000
     32 HAE         3.7500    1.3860   -3.0070 ha        1 EI1      0.144500
     33 HAG         1.7900    2.1090   -1.9050 ha        1 EI1      0.152000
@<TRIPOS>BOND
     1    1    2 1   
     2    1   20 1   
     3    1   21 1   
     4    1   22 1   
     5    2    3 1   
     6    2   23 1   
     7    2   24 1   
     8    3    4 1   
     9    3   12 1   
    10    4    5 1   
    11    5   25 1   
    12    6    7 1   
    13    6    8 1   
    14    7   26 1   
    15    8   27 1   
    16    9   10 1   
    17    9   28 1   
    18   11   12 1   
    19   12   13 1   
    20   13   19 1   
    21   14   15 1   
    22   14   29 1   
    23   15   30 1   
    24   16   17 1   
    25   16   18 1   
    26   17   31 1   
    27   18   32 1   
    28   19   33 1   
@<TRIPOS>SUBSTRUCTURE
     1 EI1         1 TEMP              0 ****  ****    0 ROOT
