@<TRIPOS>MOLECULE
EI1
   33    35     1     0     0
SMALL
bcc


@<TRIPOS>ATOM
      1 CAA        -0.1090    0.1720   -0.0100 c3        1 EI1     -0.094100
      2 CAK         1.3930    0.0100   -0.0220 c3        1 EI1     -0.012200
      3 CAP         1.9580   -0.0580    1.3410 cc        1 EI1     -0.103300
      4 CAR         2.3410   -1.2090    2.0730 ca        1 EI1     -0.103000
      5 CAJ         2.3640   -2.5920    1.8030 ca        1 EI1     -0.121000
      6 CAN         2.8190   -3.4300    2.7990 ca        1 EI1      0.097100
      7 OAC         2.8360   -4.7820    2.5200 oh        1 EI1     -0.503100
      8 CAH         3.2590   -2.9410    4.0740 ca        1 EI1     -0.180000
      9 CAI         3.2490   -1.6060    4.3640 ca        1 EI1     -0.056000
     10 CAQ         2.7890   -0.6960    3.3690 ca        1 EI1     -0.101000
     11 NAL         2.6790    0.6730    3.3950 nc        1 EI1     -0.255400
     12 NAS         2.1960    1.0300    2.1980 na        1 EI1      0.227700
     13 CAO         1.9610    2.4010    1.8590 ca        1 EI1     -0.036200
     14 CAF         1.0830    3.1780    2.6430 ca        1 EI1     -0.075000
     15 CAD         0.8520    4.5080    2.3200 ca        1 EI1     -0.183500
     16 CAM         1.5040    5.0750    1.2120 ca        1 EI1      0.136100
     17 OAB         1.2240    6.3930    0.9450 oh        1 EI1     -0.491100
     18 CAE         2.3900    4.3150    0.4370 ca        1 EI1     -0.183500
     19 CAG         2.6260    2.9840    0.7640 ca        1 EI1     -0.075000
     20 HAA1       -0.5930   -0.6750    0.5330 hc        1 EI1      0.041367
     21 HAA2       -0.4950    0.1900   -1.0580 hc        1 EI1      0.041367
     22 HAA3       -0.4000    1.1250    0.4920 hc        1 EI1      0.041367
     23 HAK1        1.6650   -0.9440   -0.5520 hc        1 EI1      0.056700
     24 HAK2        1.8570    0.8580   -0.5960 hc        1 EI1      0.056700
     25 HAJ         2.0310   -2.9840    0.8330 ha        1 EI1      0.149000
     26 HOAC        3.1730   -5.2410    3.3010 ho        1 EI1      0.416000
     27 HAH         3.6090   -3.6720    4.8190 ha        1 EI1      0.131000
     28 HAI         3.5860   -1.2220    5.3380 ha        1 EI1      0.146000
     29 HAF         0.5800    2.7370    3.5200 ha        1 EI1      0.154500
     30 HAD         0.1680    5.1250    2.9210 ha        1 EI1      0.150000
     31 HOAB        1.7510    6.6630    0.1780 ho        1 EI1      0.423000
     32 HAE         2.9060    4.7690   -0.4220 ha        1 EI1      0.150000
     33 HAG         3.3380    2.3970    0.1620 ha        1 EI1      0.154500
@<TRIPOS>BOND
     1    1    2 1   
     2    1   20 1   
     3    1   21 1   
     4    1   22 1   
     5    2    3 1   
     6    2   23 1   
     7    2   24 1   
     8    3    4 2   
     9    3   12 1   
    10    4    5 ar  
    11    4   10 ar  
    12    5    6 ar  
    13    5   25 1   
    14    6    7 1   
    15    6    8 ar  
    16    7   26 1   
    17    8    9 ar  
    18    8   27 1   
    19    9   10 ar  
    20    9   28 1   
    21   10   11 2   
    22   11   12 1   
    23   12   13 1   
    24   13   14 ar  
    25   13   19 ar  
    26   14   15 ar  
    27   14   29 1   
    28   15   16 ar  
    29   15   30 1   
    30   16   17 1   
    31   16   18 ar  
    32   17   31 1   
    33   18   19 ar  
    34   18   32 1   
    35   19   33 1   
@<TRIPOS>SUBSTRUCTURE
     1 EI1         1 TEMP              0 ****  ****    0 ROOT
