@<TRIPOS>MOLECULE
EI1
   33    35     1     0     0
SMALL
bcc


@<TRIPOS>ATOM
      1 CAA        -0.1220    0.1090    0.0810 c3        1 EI1     -0.094100
      2 CAK         1.3820   -0.0360    0.0440 c3        1 EI1     -0.011200
      3 CAP         1.9730   -0.0720    1.3970 cc        1 EI1     -0.106300
      4 CAR         2.3750   -1.2020    2.1480 ca        1 EI1     -0.098000
      5 CAJ         2.4030   -2.5930    1.9130 ca        1 EI1     -0.183000
      6 CAN         2.8810   -3.4020    2.9190 ca        1 EI1      0.113100
      7 OAC         2.9570   -4.7740    2.8090 oh        1 EI1     -0.501100
      8 CAH         3.3450   -2.8840    4.1770 ca        1 EI1     -0.132000
      9 CAI         3.3310   -1.5430    4.4310 ca        1 EI1     -0.065000
     10 CAQ         2.8460   -0.6580    3.4230 ca        1 EI1     -0.100000
     11 NAL         2.7280    0.7100    3.4200 nc        1 EI1     -0.252400
     12 NAS         2.2200    1.0380    2.2250 na        1 EI1      0.223700
     13 CAO         1.9710    2.3990    1.8600 ca        1 EI1     -0.035200
     14 CAF         1.1020    3.1880    2.6430 ca        1 EI1     -0.076000
     15 CAD         0.8560    4.5090    2.2950 ca        1 EI1     -0.183500
     16 CAM         1.4840    5.0550    1.1630 ca        1 EI1      0.135100
     17 OAB         1.1910    6.3650    0.8710 oh        1 EI1     -0.491100
     18 CAE         2.3610    4.2840    0.3880 ca        1 EI1     -0.183500
     19 CAG         2.6110    2.9620    0.7400 ca        1 EI1     -0.076000
     20 HAA1       -0.5860   -0.7310    0.6510 hc        1 EI1      0.040700
     21 HAA2       -0.5290    0.1020   -0.9590 hc        1 EI1      0.040700
     22 HAA3       -0.4140    1.0700    0.5710 hc        1 EI1      0.040700
     23 HAK1        1.6550   -0.9960   -0.4730 hc        1 EI1      0.054700
     24 HAK2        1.8240    0.8060   -0.5540 hc        1 EI1      0.054700
     25 HAJ         2.0510   -2.9980    0.9550 ha        1 EI1      0.134000
     26 HOAC        2.6240   -5.0220    1.9350 ho        1 EI1      0.416000
     27 HAH         3.7090   -3.6080    4.9210 ha        1 EI1      0.150000
     28 HAI         3.6840   -1.1330    5.3880 ha        1 EI1      0.148000
     29 HAF         0.6190    2.7630    3.5380 ha        1 EI1      0.154000
     30 HAD         0.1800    5.1360    2.8950 ha        1 EI1      0.150000
     31 HOAB        1.7040    6.6220    0.0910 ho        1 EI1      0.423000
     32 HAE         2.8580    4.7210   -0.4900 ha        1 EI1      0.150000
     33 HAG         3.3170    2.3660    0.1390 ha        1 EI1      0.154000
@<TRIPOS>BOND
     1    1    2 1   
     2    1   20 1   
     3    1   21 1   
     4    1   22 1   
     5    2    3 1   
     6    2   23 1   
     7    2   24 1   
     8    3    4 2   
     9    3   12 1   
    10    4    5 ar  
    11    4   10 ar  
    12    5    6 ar  
    13    5   25 1   
    14    6    7 1   
    15    6    8 ar  
    16    7   26 1   
    17    8    9 ar  
    18    8   27 1   
    19    9   10 ar  
    20    9   28 1   
    21   10   11 2   
    22   11   12 1   
    23   12   13 1   
    24   13   14 ar  
    25   13   19 ar  
    26   14   15 ar  
    27   14   29 1   
    28   15   16 ar  
    29   15   30 1   
    30   16   17 1   
    31   16   18 ar  
    32   17   31 1   
    33   18   19 ar  
    34   18   32 1   
    35   19   33 1   
@<TRIPOS>SUBSTRUCTURE
     1 EI1         1 TEMP              0 ****  ****    0 ROOT
