@<TRIPOS>MOLECULE
EIC
   51    50     1     0     0
SMALL
bcc


@<TRIPOS>ATOM
      1 C1          0.9030    0.0920    8.0920 c         1 EIC      0.907600
      2 C2          1.1490   -0.1440    6.5910 c3        1 EIC     -0.194400
      3 C3         -0.1290   -0.0180    5.7990 c3        1 EIC     -0.065400
      4 C4          0.1250   -0.0610    4.3070 c3        1 EIC     -0.078400
      5 C5         -1.1650    0.0480    3.5220 c3        1 EIC     -0.078400
      6 C6         -0.9110    0.0140    2.0300 c3        1 EIC     -0.079400
      7 C7         -2.2020    0.1210    1.2460 c3        1 EIC     -0.077400
      8 C8         -1.9420    0.0870   -0.2450 c3        1 EIC     -0.053200
      9 C9         -3.1890    0.1900   -1.0400 c2        1 EIC     -0.160200
     10 C10        -3.2230    0.1890   -2.3770 c2        1 EIC     -0.187200
     11 C11        -2.0100    0.0870   -3.2230 c3        1 EIC     -0.019000
     12 C12        -2.2930    0.0860   -4.6780 c2        1 EIC     -0.162200
     13 C13        -1.3400    0.0230   -5.6150 c2        1 EIC     -0.183200
     14 C14         0.1080   -0.0500   -5.3110 c3        1 EIC     -0.049200
     15 C15         0.9560   -0.1310   -6.5640 c3        1 EIC     -0.076400
     16 C16         2.4290   -0.2060   -6.2240 c3        1 EIC     -0.080400
     17 C17         3.2800   -0.2870   -7.4740 c3        1 EIC     -0.079400
     18 C18         4.7470   -0.3610   -7.1390 c3        1 EIC     -0.093100
     19 O1          0.1990    1.0830    8.4410 o         1 EIC     -0.852800
     20 O2          1.4370   -0.7130    8.9090 o         1 EIC     -0.852800
     21 H21         1.6010   -1.1560    6.4440 hc        1 EIC      0.018700
     22 H22         1.8910    0.6190    6.2440 hc        1 EIC      0.018700
     23 H31        -0.6310    0.9470    6.0780 hc        1 EIC      0.044200
     24 H32        -0.8280   -0.8470    6.0840 hc        1 EIC      0.044200
     25 H41         0.6460   -1.0180    4.0410 hc        1 EIC      0.025700
     26 H42         0.8100    0.7790    4.0190 hc        1 EIC      0.025700
     27 H51        -1.6880    1.0020    3.7930 hc        1 EIC      0.036700
     28 H52        -1.8490   -0.7950    3.8060 hc        1 EIC      0.036700
     29 H61        -0.3850   -0.9400    1.7600 hc        1 EIC      0.034200
     30 H62        -0.2280    0.8580    1.7470 hc        1 EIC      0.034200
     31 H71        -2.7270    1.0750    1.5160 hc        1 EIC      0.040200
     32 H72        -2.8840   -0.7230    1.5290 hc        1 EIC      0.040200
     33 H81        -1.4080   -0.8670   -0.5120 hc        1 EIC      0.046700
     34 H82        -1.2520    0.9300   -0.5250 hc        1 EIC      0.046700
     35 H91        -4.1240    0.2690   -0.4600 ha        1 EIC      0.123000
     36 H1O1       -4.1850    0.2690   -2.9080 ha        1 EIC      0.117000
     37 H111       -1.4480   -0.8530   -2.9540 hc        1 EIC      0.057700
     38 H112       -1.3160    0.9440   -2.9810 hc        1 EIC      0.057700
     39 H121       -3.3540    0.1390   -4.9700 ha        1 EIC      0.120000
     40 H131       -1.6100    0.0240   -6.6840 ha        1 EIC      0.118000
     41 H141        0.3100   -0.9480   -4.6630 hc        1 EIC      0.049700
     42 H142        0.4100    0.8520   -4.7110 hc        1 EIC      0.049700
     43 H151        0.7630    0.7670   -7.2080 hc        1 EIC      0.038700
     44 H152        0.6610   -1.0350   -7.1600 hc        1 EIC      0.038700
     45 H161        2.6210   -1.1040   -5.5800 hc        1 EIC      0.041700
     46 H162        2.7230    0.6980   -5.6270 hc        1 EIC      0.041700
     47 H171        3.0840    0.6120   -8.1170 hc        1 EIC      0.036700
     48 H172        2.9830   -1.1900   -8.0700 hc        1 EIC      0.036700
     49 H181        5.3560   -0.4200   -8.0730 hc        1 EIC      0.032033
     50 H182        5.0670    0.5430   -6.5660 hc        1 EIC      0.032033
     51 H183        4.9650   -1.2630   -6.5180 hc        1 EIC      0.032033
@<TRIPOS>BOND
     1    1    2 1   
     2    1   19 1   
     3    1   20 1   
     4    2    3 1   
     5    2   21 1   
     6    2   22 1   
     7    3    4 1   
     8    3   23 1   
     9    3   24 1   
    10    4    5 1   
    11    4   25 1   
    12    4   26 1   
    13    5    6 1   
    14    5   27 1   
    15    5   28 1   
    16    6    7 1   
    17    6   29 1   
    18    6   30 1   
    19    7    8 1   
    20    7   31 1   
    21    7   32 1   
    22    8    9 1   
    23    8   33 1   
    24    8   34 1   
    25    9   10 2   
    26    9   35 1   
    27   10   11 1   
    28   10   36 1   
    29   11   12 1   
    30   11   37 1   
    31   11   38 1   
    32   12   13 2   
    33   12   39 1   
    34   13   14 1   
    35   13   40 1   
    36   14   15 1   
    37   14   41 1   
    38   14   42 1   
    39   15   16 1   
    40   15   43 1   
    41   15   44 1   
    42   16   17 1   
    43   16   45 1   
    44   16   46 1   
    45   17   18 1   
    46   17   47 1   
    47   17   48 1   
    48   18   49 1   
    49   18   50 1   
    50   18   51 1   
@<TRIPOS>SUBSTRUCTURE
     1 EIC         1 TEMP              0 ****  ****    0 ROOT
