@<TRIPOS>MOLECULE
EIC
   51    47     1     0     0
SMALL
bcc


@<TRIPOS>ATOM
      1 C1         -8.7550   -4.2320   -0.2600 c1        1 EIC      0.327000
      2 C2         -7.2610   -4.2410   -0.4980 c2        1 EIC     -0.223000
      3 C3         -6.8160   -2.8700   -0.9580 c3        1 EIC     -0.144000
      4 C4         -5.3340   -2.7080   -0.6980 c3        1 EIC     -0.157000
      5 C5         -4.8330   -1.4620   -1.3960 c3        1 EIC     -0.157000
      6 C6         -3.4260   -1.1560   -0.9320 c3        1 EIC     -0.158000
      7 C7         -2.8020   -0.1340   -1.8570 c3        1 EIC     -0.156000
      8 C8         -1.5050    0.3630   -1.2570 c3        1 EIC     -0.136000
      9 C9         -0.6700    1.0200   -2.3340 c2        1 EIC     -0.155000
     10 C10         0.5300    1.5500   -2.0270 c1        1 EIC     -0.183000
     11 C11         1.0430    1.4870   -0.6060 c2        1 EIC     -0.104000
     12 C12         2.4710    1.9860   -0.5620 c2        1 EIC     -0.155000
     13 C13         3.2080    1.8250    0.5540 c1        1 EIC     -0.176000
     14 C14         4.6350    2.3240    0.5980 c2        1 EIC     -0.129000
     15 C15         5.3350    1.7470    1.8090 c3        1 EIC     -0.155000
     16 C16         6.7590    2.2540    1.8580 c3        1 EIC     -0.158000
     17 C17         7.5270    1.4980    2.9200 c3        1 EIC     -0.159000
     18 C18         8.8750    2.1530    3.1300 c3        1 EIC     -0.210000
     19 O1         -9.2060   -4.0540    0.9020 o         1 EIC     -0.588000
     20 O2         -9.5470   -4.4000   -1.2240 o         1 EIC     -0.588000
     21 H21        -6.8000   -4.4720    0.3330 ha        1 EIC      0.058000
     22 H22        -7.0450   -4.9010   -1.1860 ha        1 EIC      0.058000
     23 H31        -7.3100   -2.1840   -0.4650 hc        1 EIC      0.083500
     24 H32        -6.9910   -2.7740   -1.9150 hc        1 EIC      0.083500
     25 H41        -4.8560   -3.4880   -1.0410 hc        1 EIC      0.065000
     26 H42        -5.1790   -2.6270    0.2640 hc        1 EIC      0.065000
     27 H51        -4.8340   -1.6080   -2.3630 hc        1 EIC      0.076000
     28 H52        -5.4190   -0.7090   -1.1790 hc        1 EIC      0.076000
     29 H61        -2.8930   -1.9760   -0.9450 hc        1 EIC      0.073500
     30 H62        -3.4530   -0.7980   -0.0220 hc        1 EIC      0.073500
     31 H71        -3.4160    0.6180   -1.9740 hc        1 EIC      0.079000
     32 H72        -2.6220   -0.5470   -2.7250 hc        1 EIC      0.079000
     33 H81        -1.0110   -0.3910   -0.8770 hc        1 EIC      0.086000
     34 H82        -1.6990    1.0130   -0.5530 hc        1 EIC      0.086000
     35 H91        -1.0010    1.0600   -3.2520 ha        1 EIC      0.123000
     36 H1O1        1.0690    1.9740   -2.7220 ha        1 EIC      0.118000
     37 H111        1.0110    0.5630   -0.2880 ha        1 EIC      0.094500
     38 H112        0.4840    2.0490   -0.0320 ha        1 EIC      0.094500
     39 H121        2.8570    2.4290   -1.3420 ha        1 EIC      0.118000
     40 H131        2.8180    1.3910    1.3370 ha        1 EIC      0.121000
     41 H141        5.1040    2.0430   -0.2140 ha        1 EIC      0.082500
     42 H142        4.6380    3.3000    0.6540 ha        1 EIC      0.082500
     43 H151        4.8620    2.0220    2.6200 hc        1 EIC      0.081500
     44 H152        5.3380    0.7710    1.7490 hc        1 EIC      0.081500
     45 H161        6.7580    3.2080    2.0730 hc        1 EIC      0.077500
     46 H162        7.1840    2.1170    0.9880 hc        1 EIC      0.077500
     47 H171        7.0240    1.5120    3.7580 hc        1 EIC      0.078500
     48 H172        7.6560    0.5720    2.6320 hc        1 EIC      0.078500
     49 H181        9.4160    1.6010    3.7320 hc        1 EIC      0.070667
     50 H182        8.7480    3.0410    3.5260 hc        1 EIC      0.070667
     51 H183        9.3330    2.2430    2.2680 hc        1 EIC      0.070667
@<TRIPOS>BOND
     1    1   19 1   
     2    1   20 1   
     3    2    3 1   
     4    2   21 1   
     5    2   22 1   
     6    3    4 1   
     7    3   23 1   
     8    3   24 1   
     9    4    5 1   
    10    4   25 1   
    11    4   26 1   
    12    5    6 1   
    13    5   27 1   
    14    5   28 1   
    15    6    7 1   
    16    6   29 1   
    17    6   30 1   
    18    7    8 1   
    19    7   31 1   
    20    7   32 1   
    21    8    9 1   
    22    8   33 1   
    23    8   34 1   
    24    9   10 1   
    25    9   35 1   
    26   10   36 1   
    27   11   12 1   
    28   11   37 1   
    29   11   38 1   
    30   12   13 1   
    31   12   39 1   
    32   13   40 1   
    33   14   15 1   
    34   14   41 1   
    35   14   42 1   
    36   15   16 1   
    37   15   43 1   
    38   15   44 1   
    39   16   17 1   
    40   16   45 1   
    41   16   46 1   
    42   17   18 1   
    43   17   47 1   
    44   17   48 1   
    45   18   49 1   
    46   18   50 1   
    47   18   51 1   
@<TRIPOS>SUBSTRUCTURE
     1 EIC         1 TEMP              0 ****  ****    0 ROOT
