@<TRIPOS>MOLECULE
EIC
   51    50     1     0     0
SMALL
bcc


@<TRIPOS>ATOM
      1 C1         -0.4390    0.6120    0.1670 c         1 EIC      0.907600
      2 C2          0.9390   -0.0640    0.2840 c3        1 EIC     -0.194400
      3 C3          1.7560    0.5440    1.3980 c3        1 EIC     -0.065400
      4 C4          3.0340   -0.2290    1.6490 c3        1 EIC     -0.078400
      5 C5          3.8540    0.4010    2.7540 c3        1 EIC     -0.078400
      6 C6          5.1270   -0.3780    3.0130 c3        1 EIC     -0.079400
      7 C7          5.9470    0.2550    4.1160 c3        1 EIC     -0.077400
      8 C8          7.2180   -0.5280    4.3720 c3        1 EIC     -0.053200
      9 C9          8.0440    0.0680    5.4480 c2        1 EIC     -0.159200
     10 C10         9.1790   -0.4730    5.9040 c2        1 EIC     -0.187200
     11 C11         9.7420   -1.7440    5.3880 c3        1 EIC     -0.019000
     12 C12        11.0660   -2.0880    5.9580 c2        1 EIC     -0.162200
     13 C13        11.7110   -3.2290    5.6920 c2        1 EIC     -0.183200
     14 C14        11.1780   -4.2880    4.8040 c3        1 EIC     -0.049200
     15 C15        12.1500   -5.4360    4.6290 c3        1 EIC     -0.076400
     16 C16        11.5800   -6.5000    3.7170 c3        1 EIC     -0.080400
     17 C17        12.5480   -7.6510    3.5390 c3        1 EIC     -0.079400
     18 C18        11.9840   -8.7130    2.6310 c3        1 EIC     -0.093100
     19 O1         -1.1080    0.8060    1.2230 o         1 EIC     -0.852800
     20 O2         -0.8440    0.9230   -0.9900 o         1 EIC     -0.852800
     21 H21         0.7700   -1.1530    0.4850 hc        1 EIC      0.018700
     22 H22         1.4810    0.0250   -0.6900 hc        1 EIC      0.018700
     23 H31         1.1300    0.5700    2.3300 hc        1 EIC      0.044200
     24 H32         2.0060    1.6070    1.1400 hc        1 EIC      0.044200
     25 H41         3.6410   -0.2690    0.7070 hc        1 EIC      0.025700
     26 H42         2.7840   -1.2870    1.9250 hc        1 EIC      0.025700
     27 H51         3.2430    0.4460    3.6940 hc        1 EIC      0.036700
     28 H52         4.1100    1.4570    2.4760 hc        1 EIC      0.036700
     29 H61         5.7350   -0.4250    2.0710 hc        1 EIC      0.034200
     30 H62         4.8700   -1.4330    3.2930 hc        1 EIC      0.034200
     31 H71         5.3380    0.3010    5.0570 hc        1 EIC      0.040200
     32 H72         6.2050    1.3100    3.8360 hc        1 EIC      0.040200
     33 H81         6.9580   -1.5890    4.6440 hc        1 EIC      0.046700
     34 H82         7.8240   -0.5790    3.4250 hc        1 EIC      0.046700
     35 H91         7.6700    1.0130    5.8740 ha        1 EIC      0.123000
     36 H1O1        9.7470    0.0220    6.7080 ha        1 EIC      0.117000
     37 H111        9.8290   -1.6850    4.2640 hc        1 EIC      0.057700
     38 H112        9.0160   -2.5820    5.5990 hc        1 EIC      0.057700
     39 H121       11.5180   -1.3390    6.6300 ha        1 EIC      0.120000
     40 H131       12.6970   -3.4280    6.1430 ha        1 EIC      0.118000
     41 H141       10.2100   -4.6760    5.2260 hc        1 EIC      0.049700
     42 H142       10.9340   -3.8450    3.7980 hc        1 EIC      0.049700
     43 H151       12.3860   -5.8850    5.6300 hc        1 EIC      0.038700
     44 H152       13.1140   -5.0510    4.2020 hc        1 EIC      0.038700
     45 H161       10.6150   -6.8840    4.1430 hc        1 EIC      0.042200
     46 H162       11.3430   -6.0510    2.7160 hc        1 EIC      0.042200
     47 H171       13.5120   -7.2640    3.1140 hc        1 EIC      0.036700
     48 H172       12.7850   -8.0970    4.5410 hc        1 EIC      0.036700
     49 H181       11.0350   -9.1270    3.0510 hc        1 EIC      0.032033
     50 H182       11.7640   -8.2920    1.6210 hc        1 EIC      0.032033
     51 H183       12.7130   -9.5510    2.5140 hc        1 EIC      0.032033
@<TRIPOS>BOND
     1    1    2 1   
     2    1   19 1   
     3    1   20 1   
     4    2    3 1   
     5    2   21 1   
     6    2   22 1   
     7    3    4 1   
     8    3   23 1   
     9    3   24 1   
    10    4    5 1   
    11    4   25 1   
    12    4   26 1   
    13    5    6 1   
    14    5   27 1   
    15    5   28 1   
    16    6    7 1   
    17    6   29 1   
    18    6   30 1   
    19    7    8 1   
    20    7   31 1   
    21    7   32 1   
    22    8    9 1   
    23    8   33 1   
    24    8   34 1   
    25    9   10 2   
    26    9   35 1   
    27   10   11 1   
    28   10   36 1   
    29   11   12 1   
    30   11   37 1   
    31   11   38 1   
    32   12   13 2   
    33   12   39 1   
    34   13   14 1   
    35   13   40 1   
    36   14   15 1   
    37   14   41 1   
    38   14   42 1   
    39   15   16 1   
    40   15   43 1   
    41   15   44 1   
    42   16   17 1   
    43   16   45 1   
    44   16   46 1   
    45   17   18 1   
    46   17   47 1   
    47   17   48 1   
    48   18   49 1   
    49   18   50 1   
    50   18   51 1   
@<TRIPOS>SUBSTRUCTURE
     1 EIC         1 TEMP              0 ****  ****    0 ROOT
