@<TRIPOS>MOLECULE
EIC
   51    50     1     0     0
SMALL
bcc


@<TRIPOS>ATOM
      1 C1         -0.2620    0.7950   -0.0830 c         1 EIC      0.907600
      2 C2          0.9040   -0.1170    0.3380 c3        1 EIC     -0.194400
      3 C3          1.7560    0.5350    1.3980 c3        1 EIC     -0.065400
      4 C4          3.0090   -0.2660    1.6880 c3        1 EIC     -0.078400
      5 C5          3.8470    0.3870    2.7670 c3        1 EIC     -0.078400
      6 C6          5.1030   -0.4090    3.0500 c3        1 EIC     -0.079400
      7 C7          5.9390    0.2450    4.1300 c3        1 EIC     -0.077400
      8 C8          7.1950   -0.5540    4.4100 c3        1 EIC     -0.053200
      9 C9          8.0340    0.0600    5.4660 c2        1 EIC     -0.159200
     10 C10         9.1690   -0.4780    5.9240 c2        1 EIC     -0.187200
     11 C11         9.7200   -1.7620    5.4280 c3        1 EIC     -0.019000
     12 C12        11.0220   -2.1300    6.0340 c2        1 EIC     -0.162200
     13 C13        11.6740   -3.2640    5.7530 c2        1 EIC     -0.183200
     14 C14        11.1720   -4.2870    4.8070 c3        1 EIC     -0.049200
     15 C15        12.1290   -5.4530    4.6600 c3        1 EIC     -0.076400
     16 C16        11.5910   -6.4810    3.6870 c3        1 EIC     -0.080400
     17 C17        12.5440   -7.6480    3.5370 c3        1 EIC     -0.079400
     18 C18        12.0130   -8.6740    2.5700 c3        1 EIC     -0.093100
     19 O1         -0.0190    2.0140   -0.3210 o         1 EIC     -0.852800
     20 O2         -1.4090    0.2730   -0.1890 o         1 EIC     -0.852800
     21 H21         0.4980   -1.0910    0.7080 hc        1 EIC      0.018700
     22 H22         1.5210   -0.3260   -0.5740 hc        1 EIC      0.018700
     23 H31         1.1580    0.6480    2.3400 hc        1 EIC      0.044200
     24 H32         2.0290    1.5690    1.0540 hc        1 EIC      0.044200
     25 H41         3.6160   -0.3650    0.7500 hc        1 EIC      0.025700
     26 H42         2.7270   -1.3030    2.0090 hc        1 EIC      0.025700
     27 H51         3.2410    0.4810    3.7060 hc        1 EIC      0.036700
     28 H52         4.1230    1.4260    2.4470 hc        1 EIC      0.036700
     29 H61         5.7090   -0.5010    2.1110 hc        1 EIC      0.034200
     30 H62         4.8250   -1.4480    3.3680 hc        1 EIC      0.034200
     31 H71         5.3340    0.3370    5.0700 hc        1 EIC      0.040200
     32 H72         6.2170    1.2840    3.8120 hc        1 EIC      0.040200
     33 H81         6.9140   -1.6000    4.7170 hc        1 EIC      0.046200
     34 H82         7.7980   -0.6490    3.4650 hc        1 EIC      0.046200
     35 H91         7.6700    1.0180    5.8730 ha        1 EIC      0.123000
     36 H1O1        9.7480    0.0310    6.7110 ha        1 EIC      0.117000
     37 H111        9.8360   -1.7100    4.3070 hc        1 EIC      0.057700
     38 H112        8.9740   -2.5860    5.6250 hc        1 EIC      0.057700
     39 H121       11.4500   -1.4080    6.7490 ha        1 EIC      0.120000
     40 H131       12.6410   -3.4830    6.2340 ha        1 EIC      0.118000
     41 H141       10.1720   -4.6640    5.1600 hc        1 EIC      0.049700
     42 H142       10.9990   -3.8140    3.8010 hc        1 EIC      0.049700
     43 H151       12.2960   -5.9310    5.6600 hc        1 EIC      0.038700
     44 H152       13.1240   -5.0800    4.3010 hc        1 EIC      0.038700
     45 H161       10.5950   -6.8530    4.0460 hc        1 EIC      0.041700
     46 H162       11.4240   -6.0020    2.6870 hc        1 EIC      0.041700
     47 H171       13.5400   -7.2730    3.1800 hc        1 EIC      0.036700
     48 H172       12.7110   -8.1250    4.5390 hc        1 EIC      0.036700
     49 H181       11.0320   -9.0770    2.9210 hc        1 EIC      0.032033
     50 H182       11.8630   -8.2230    1.5590 hc        1 EIC      0.032033
     51 H183       12.7290   -9.5250    2.4730 hc        1 EIC      0.032033
@<TRIPOS>BOND
     1    1    2 1   
     2    1   19 1   
     3    1   20 1   
     4    2    3 1   
     5    2   21 1   
     6    2   22 1   
     7    3    4 1   
     8    3   23 1   
     9    3   24 1   
    10    4    5 1   
    11    4   25 1   
    12    4   26 1   
    13    5    6 1   
    14    5   27 1   
    15    5   28 1   
    16    6    7 1   
    17    6   29 1   
    18    6   30 1   
    19    7    8 1   
    20    7   31 1   
    21    7   32 1   
    22    8    9 1   
    23    8   33 1   
    24    8   34 1   
    25    9   10 2   
    26    9   35 1   
    27   10   11 1   
    28   10   36 1   
    29   11   12 1   
    30   11   37 1   
    31   11   38 1   
    32   12   13 2   
    33   12   39 1   
    34   13   14 1   
    35   13   40 1   
    36   14   15 1   
    37   14   41 1   
    38   14   42 1   
    39   15   16 1   
    40   15   43 1   
    41   15   44 1   
    42   16   17 1   
    43   16   45 1   
    44   16   46 1   
    45   17   18 1   
    46   17   47 1   
    47   17   48 1   
    48   18   49 1   
    49   18   50 1   
    50   18   51 1   
@<TRIPOS>SUBSTRUCTURE
     1 EIC         1 TEMP              0 ****  ****    0 ROOT
