@<TRIPOS>MOLECULE
EIM
   78    77     1     0     0
SMALL
bcc


@<TRIPOS>ATOM
      1 C1          1.0280    0.7120   -1.7290 c3        1 EIM     -0.148000
      2 C2          1.6880    1.8230   -1.4830 c3        1 EIM     -0.156000
      3 C3          1.8460    2.1000    0.0360 c3        1 EIM     -0.119000
      4 C4          1.5680    0.6400    0.8930 c2        1 EIM     -0.040000
      5 C5          0.0240    0.4360    0.3870 c3        1 EIM     -0.068000
      6 C6         -0.0920    0.2350   -1.0220 c3        1 EIM     -0.031000
      7 C7         -0.7270    1.7580    0.6800 c3        1 EIM      0.032000
      8 C8         -1.7240    1.9790   -0.4650 c3        1 EIM     -0.183000
      9 C9         -1.4410    0.9740   -1.4660 c3        1 EIM     -0.093000
     10 C10         2.4780   -0.4110    0.7980 c1        1 EIM     -0.170000
     11 C11         3.7470   -0.2620   -0.0830 c1        1 EIM     -0.104000
     12 C12         4.9480   -0.8430    0.3210 c1        1 EIM     -0.073000
     13 C13         5.0460   -1.5840    1.5430 c2        1 EIM     -0.116000
     14 C14         6.5730   -1.4260    2.2390 c3        1 EIM      0.035000
     15 C15         7.5460   -1.6470    1.4660 c3        1 EIM     -0.225000
     16 C16         7.6000   -0.7080    0.1120 c3        1 EIM      0.072000
     17 C17         6.3350   -0.7060   -0.5980 c2        1 EIM     -0.064000
     18 C18         6.2820   -0.5990   -1.9340 c1        1 EIM     -0.198000
     19 C19        -2.5660   -0.0120   -1.5370 c3        1 EIM     -0.095000
     20 C20        -0.2390   -1.2510   -1.2910 c3        1 EIM     -0.206000
     21 O21         8.0460    0.6410    0.4140 oh        1 EIM     -0.316000
     22 O22         6.6640   -2.3890    3.3890 oh        1 EIM     -0.328000
     23 C23        -3.0400   -0.1320   -2.9650 c3        1 EIM     -0.211000
     24 C24        -3.7310    0.4710   -0.6460 c3        1 EIM     -0.156000
     25 C25        -4.8240   -0.6370   -0.5750 c3        1 EIM     -0.158000
     26 C26        -6.0230   -0.1300    0.2740 c3        1 EIM     -0.143000
     27 C27        -6.8430   -1.3520    0.8020 c3        1 EIM      0.076000
     28 C28        -7.1060   -1.1810    2.3000 c3        1 EIM     -0.241000
     29 C29        -8.1800   -1.4330    0.0530 c3        1 EIM     -0.241000
     30 O30        -6.1140   -2.5330    0.5870 oh        1 EIM     -0.325000
     31 O31         0.1540    2.7920    0.7330 os        1 EIM     -0.268000
     32 C33        -0.2510    3.8540    1.5900 c3        1 EIM     -0.074000
     33 H1          0.7420    0.7750   -2.6660 hc        1 EIM      0.080500
     34 H1A         1.6960   -0.0100   -1.6870 hc        1 EIM      0.080500
     35 H2          2.5780    1.7580   -1.8870 hc        1 EIM      0.088000
     36 H2A         1.2070    2.5760   -1.8940 hc        1 EIM      0.088000
     37 H3          1.3960    2.8810    0.4120 hc        1 EIM      0.092000
     38 H3A         2.7790    2.3620    0.1690 hc        1 EIM      0.092000
     39 H5         -0.3940   -0.3030    0.8700 hc        1 EIM      0.094000
     40 H7         -1.2050    1.6870    1.5250 h1        1 EIM      0.082000
     41 H8         -2.6390    1.8750   -0.1360 hc        1 EIM      0.089500
     42 H8A        -1.6040    2.8710   -0.8440 hc        1 EIM      0.089500
     43 H9         -1.3160    1.3970   -2.3340 hc        1 EIM      0.097000
     44 H10         2.3160   -1.2440    1.2880 ha        1 EIM      0.121000
     45 H11         3.7040    0.2400   -0.9210 ha        1 EIM      0.126000
     46 H13         4.6480   -2.4640    1.3810 ha        1 EIM      0.102000
     47 H13A        4.4410   -1.2450    2.2260 ha        1 EIM      0.102000
     48 H14         6.6590   -0.5180    2.5890 h1        1 EIM      0.088000
     49 H15         7.5090   -2.5790    1.1890 hc        1 EIM      0.091500
     50 H15A        8.3780   -1.5070    1.9710 hc        1 EIM      0.091500
     51 H16         8.3170   -1.0100   -0.4790 h1        1 EIM      0.074000
     52 H18         7.1100   -0.5190   -2.4530 DU        1 EIM      0.115000
     53 H18A        5.4220   -0.5990   -2.3880 ha        1 EIM      0.120000
     54 H19        -2.2590   -0.8730   -1.2260 hc        1 EIM      0.092000
     55 H20        -0.8340   -1.6490   -0.6180 hc        1 EIM      0.076000
     56 H20A       -0.6200   -1.3850   -2.1840 hc        1 EIM      0.076000
     57 H20B        0.6360   -1.6780   -1.2440 hc        1 EIM      0.076000
     58 HO21        8.9040    0.7230    0.2050 ho        1 EIM      0.194000
     59 HO22        7.1040   -2.0070    4.0620 ho        1 EIM      0.196000
     60 H23        -3.6600   -0.8830   -3.0400 hc        1 EIM      0.073667
     61 H23A       -2.2700   -0.2850   -3.5530 hc        1 EIM      0.073667
     62 H23B       -3.4950    0.6960   -3.2300 hc        1 EIM      0.073667
     63 H24        -4.1170    1.2860   -1.0280 hc        1 EIM      0.077500
     64 H24A       -3.3970    0.6590    0.2530 hc        1 EIM      0.077500
     65 H25        -4.4480   -1.4410   -0.1610 hc        1 EIM      0.088500
     66 H25A       -5.1320   -0.8500   -1.4790 hc        1 EIM      0.088500
     67 H26        -6.5980    0.4330   -0.2800 hc        1 EIM      0.086000
     68 H26A       -5.6890    0.3890    1.0310 hc        1 EIM      0.086000
     69 H28        -7.7060   -0.4160    2.4420 hc        1 EIM      0.081833
     70 H28A       -6.2620   -1.0230    2.7630 hc        1 EIM      0.081833
     71 H28B       -7.5270   -1.9980    2.6560 hc        1 EIM      0.081833
     72 H29        -8.0120   -1.5480   -0.9000 hc        1 EIM      0.081833
     73 H29A       -8.6860   -0.6070    0.1980 hc        1 EIM      0.081833
     74 H29B       -8.7010   -2.2010    0.3900 hc        1 EIM      0.081833
     75 HO30       -6.6110   -3.2380    0.8290 ho        1 EIM      0.196000
     76 H33        -1.2120    4.0280    1.4650 h1        1 EIM      0.070667
     77 H33A        0.2580    4.6630    1.3710 h1        1 EIM      0.070667
     78 H33B       -0.0820    3.6020    2.5250 h1        1 EIM      0.070667
@<TRIPOS>BOND
     1    1    2 1   
     2    1    6 1   
     3    1   33 1   
     4    1   34 1   
     5    2    3 1   
     6    2   35 1   
     7    2   36 1   
     8    3    4 1   
     9    3   37 1   
    10    3   38 1   
    11    4    5 1   
    12    4   10 1   
    13    5    6 1   
    14    5    7 1   
    15    5   39 1   
    16    6    9 1   
    17    6   20 1   
    18    7    8 1   
    19    7   31 1   
    20    7   40 1   
    21    8    9 1   
    22    8   41 1   
    23    8   42 1   
    24    9   19 1   
    25    9   43 1   
    26   10   44 1   
    27   11   12 1   
    28   11   45 1   
    29   12   17 1   
    30   13   14 1   
    31   13   46 1   
    32   13   47 1   
    33   14   15 1   
    34   14   22 1   
    35   14   48 1   
    36   15   16 1   
    37   15   49 1   
    38   15   50 1   
    39   16   17 1   
    40   16   21 1   
    41   16   51 1   
    42   17   18 1   
    43   18   53 1   
    44   19   23 1   
    45   19   24 1   
    46   19   54 1   
    47   20   55 1   
    48   20   56 1   
    49   20   57 1   
    50   21   58 1   
    51   22   59 1   
    52   23   60 1   
    53   23   61 1   
    54   23   62 1   
    55   24   25 1   
    56   24   63 1   
    57   24   64 1   
    58   25   26 1   
    59   25   65 1   
    60   25   66 1   
    61   26   27 1   
    62   26   67 1   
    63   26   68 1   
    64   27   28 1   
    65   27   29 1   
    66   27   30 1   
    67   28   69 1   
    68   28   70 1   
    69   28   71 1   
    70   29   72 1   
    71   29   73 1   
    72   29   74 1   
    73   30   75 1   
    74   31   32 1   
    75   32   76 1   
    76   32   77 1   
    77   32   78 1   
@<TRIPOS>SUBSTRUCTURE
     1 EIM         1 TEMP              0 ****  ****    0 ROOT
