@<TRIPOS>MOLECULE
EIM
   78    80     1     0     0
SMALL
bcc


@<TRIPOS>ATOM
      1 C1         -0.0050   -0.1150    0.0260 c3        1 EIM     -0.066400
      2 C2          1.4780    0.1750    0.1740 c3        1 EIM     -0.074400
      3 C3          2.0410   -0.1530    1.5470 c3        1 EIM     -0.044200
      4 C4          1.5910   -1.4730    2.0850 c2        1 EIM     -0.081400
      5 C5          0.1210   -1.6470    1.9550 c3        1 EIM     -0.033500
      6 C6         -0.3250   -1.5350    0.4700 c3        1 EIM     -0.040000
      7 C7         -0.5660   -2.9300    2.4350 c3        1 EIM      0.140100
      8 C8         -1.8890   -2.9770    1.6480 c3        1 EIM     -0.108400
      9 C9         -1.8280   -1.8820    0.5670 c3        1 EIM     -0.050700
     10 C10         2.3900   -2.3640    2.6970 ce        1 EIM     -0.144000
     11 C11         3.8240   -2.2530    2.8350 ce        1 EIM     -0.110000
     12 C12         4.5590   -2.8510    3.7960 cf        1 EIM     -0.071200
     13 C13         6.0430   -2.6890    3.8090 c3        1 EIM     -0.036200
     14 C14         6.7360   -4.0340    4.0150 c3        1 EIM      0.146100
     15 C15         6.2400   -4.7040    5.2900 c3        1 EIM     -0.146400
     16 C16         4.7310   -4.9220    5.2390 c3        1 EIM      0.187300
     17 C17         3.9960   -3.6550    4.8780 cf        1 EIM     -0.076200
     18 C18         2.8940   -3.3030    5.5530 c2        1 EIM     -0.187000
     19 C19        -2.5160   -2.3210   -0.7220 c3        1 EIM     -0.056700
     20 C20         0.4050   -2.5470   -0.3980 c3        1 EIM     -0.085100
     21 O21         4.3770   -5.9070    4.2710 oh        1 EIM     -0.590800
     22 O22         8.1300   -3.7590    4.0930 oh        1 EIM     -0.599800
     23 C23        -2.4270   -1.2580   -1.8000 c3        1 EIM     -0.091100
     24 C24        -3.9850   -2.6460   -0.4520 c3        1 EIM     -0.079400
     25 C25        -4.5480   -3.6090   -1.4770 c3        1 EIM     -0.079400
     26 C26        -6.0190   -3.8620   -1.2290 c3        1 EIM     -0.064400
     27 C27        -6.5900   -4.9760   -2.1120 c3        1 EIM      0.147800
     28 C28        -8.0780   -5.1470   -1.8190 c3        1 EIM     -0.123100
     29 C29        -6.3840   -4.6850   -3.5930 c3        1 EIM     -0.123100
     30 O30        -5.8900   -6.1680   -1.7470 oh        1 EIM     -0.597800
     31 O31        -0.7950   -2.8050    3.8380 os        1 EIM     -0.419600
     32 C33        -1.1720   -4.0270    4.4480 c3        1 EIM      0.114700
     33 H1         -0.5970    0.6100    0.6450 hc        1 EIM      0.042700
     34 H1A        -0.3010    0.0360   -1.0440 hc        1 EIM      0.042700
     35 H2          2.0430   -0.4080   -0.6020 hc        1 EIM      0.040200
     36 H2A         1.6580    1.2630   -0.0340 hc        1 EIM      0.040200
     37 H3          3.1600   -0.1030    1.4940 hc        1 EIM      0.048200
     38 H3A         1.7110    0.6380    2.2770 hc        1 EIM      0.048200
     39 H5         -0.3550   -0.7960    2.5300 hc        1 EIM      0.074700
     40 H7          0.0570   -3.8410    2.2280 h1        1 EIM      0.050700
     41 H8         -2.0210   -3.9850    1.1840 hc        1 EIM      0.052200
     42 H8A        -2.7480   -2.7940    2.3400 hc        1 EIM      0.052200
     43 H9         -2.3650   -0.9680    0.9470 hc        1 EIM      0.050700
     44 H10         1.9440   -3.2750    3.1420 ha        1 EIM      0.138000
     45 H11         4.3430   -1.6560    2.0630 ha        1 EIM      0.123000
     46 H13         6.3360   -1.9950    4.6420 hc        1 EIM      0.061700
     47 H13A        6.4110   -2.2360    2.8520 hc        1 EIM      0.061700
     48 H14         6.5330   -4.7080    3.1350 h1        1 EIM      0.047700
     49 H15         6.7590   -5.6890    5.4250 hc        1 EIM      0.052200
     50 H15A        6.4910   -4.0600    6.1710 hc        1 EIM      0.052200
     51 H16         4.3870   -5.2840    6.2530 h1        1 EIM      0.033700
     52 H18         2.3440   -2.3770    5.3340 ha        1 EIM      0.123000
     53 H18A        2.4800   -3.9180    6.3620 ha        1 EIM      0.123000
     54 H19        -2.0100   -3.2560   -1.0970 hc        1 EIM      0.052700
     55 H20         0.2070   -2.3490   -1.4790 hc        1 EIM      0.038367
     56 H20A        1.5070   -2.4920   -0.2230 hc        1 EIM      0.038367
     57 H20B        0.0650   -3.5830   -0.1570 hc        1 EIM      0.038367
     58 HO21        4.9070   -6.6890    4.4690 ho        1 EIM      0.395000
     59 HO22        8.5720   -4.6070    4.2120 ho        1 EIM      0.398000
     60 H23        -1.4050   -1.2340   -2.2480 hc        1 EIM      0.033700
     61 H23A       -3.1550   -1.4720   -2.6200 hc        1 EIM      0.033700
     62 H23B       -2.6570   -0.2500   -1.3800 hc        1 EIM      0.033700
     63 H24        -4.1010   -3.1000    0.5670 hc        1 EIM      0.040700
     64 H24A       -4.5810   -1.6950   -0.4570 hc        1 EIM      0.040700
     65 H25        -3.9940   -4.5840   -1.4290 hc        1 EIM      0.048200
     66 H25A       -4.4060   -3.1940   -2.5100 hc        1 EIM      0.048200
     67 H26        -6.1700   -4.1550   -0.1560 hc        1 EIM      0.047200
     68 H26A       -6.6080   -2.9280   -1.4190 hc        1 EIM      0.047200
     69 H28        -8.5000   -5.9790   -2.4310 hc        1 EIM      0.042367
     70 H28A       -8.6260   -4.2070   -2.0640 hc        1 EIM      0.042367
     71 H28B       -8.2290   -5.3880   -0.7400 hc        1 EIM      0.042367
     72 H29        -5.2990   -4.7500   -3.8480 hc        1 EIM      0.042367
     73 H29A       -6.7550   -3.6620   -3.8370 hc        1 EIM      0.042367
     74 H29B       -6.9400   -5.4270   -4.2150 hc        1 EIM      0.042367
     75 HO30       -6.2420   -6.8760   -2.2990 ho        1 EIM      0.397000
     76 H33        -1.3500   -3.7610    5.5200 h1        1 EIM      0.032367
     77 H33A       -0.3490   -4.7800    4.3620 h1        1 EIM      0.032367
     78 H33B       -2.1060   -4.4300    3.9850 h1        1 EIM      0.032367
@<TRIPOS>BOND
     1    1    2 1   
     2    1    6 1   
     3    1   33 1   
     4    1   34 1   
     5    2    3 1   
     6    2   35 1   
     7    2   36 1   
     8    3    4 1   
     9    3   37 1   
    10    3   38 1   
    11    4    5 1   
    12    4   10 2   
    13    5    6 1   
    14    5    7 1   
    15    5   39 1   
    16    6    9 1   
    17    6   20 1   
    18    7    8 1   
    19    7   31 1   
    20    7   40 1   
    21    8    9 1   
    22    8   41 1   
    23    8   42 1   
    24    9   19 1   
    25    9   43 1   
    26   10   11 1   
    27   10   44 1   
    28   11   12 2   
    29   11   45 1   
    30   12   13 1   
    31   12   17 1   
    32   13   14 1   
    33   13   46 1   
    34   13   47 1   
    35   14   15 1   
    36   14   22 1   
    37   14   48 1   
    38   15   16 1   
    39   15   49 1   
    40   15   50 1   
    41   16   17 1   
    42   16   21 1   
    43   16   51 1   
    44   17   18 2   
    45   18   52 1   
    46   18   53 1   
    47   19   23 1   
    48   19   24 1   
    49   19   54 1   
    50   20   55 1   
    51   20   56 1   
    52   20   57 1   
    53   21   58 1   
    54   22   59 1   
    55   23   60 1   
    56   23   61 1   
    57   23   62 1   
    58   24   25 1   
    59   24   63 1   
    60   24   64 1   
    61   25   26 1   
    62   25   65 1   
    63   25   66 1   
    64   26   27 1   
    65   26   67 1   
    66   26   68 1   
    67   27   28 1   
    68   27   29 1   
    69   27   30 1   
    70   28   69 1   
    71   28   70 1   
    72   28   71 1   
    73   29   72 1   
    74   29   73 1   
    75   29   74 1   
    76   30   75 1   
    77   31   32 1   
    78   32   76 1   
    79   32   77 1   
    80   32   78 1   
@<TRIPOS>SUBSTRUCTURE
     1 EIM         1 TEMP              0 ****  ****    0 ROOT
