@<TRIPOS>MOLECULE
EIM
   78    80     1     0     0
SMALL
bcc


@<TRIPOS>ATOM
      1 C1          0.6970   -3.1500   -0.8820 c3        1 EIM     -0.067400
      2 C2         -0.6990   -3.4520   -1.3990 c3        1 EIM     -0.074400
      3 C3         -1.8170   -2.9960   -0.4760 c3        1 EIM     -0.045200
      4 C4         -1.6240   -1.6150    0.0610 c2        1 EIM     -0.069400
      5 C5         -0.2540   -1.4320    0.6090 c3        1 EIM     -0.045500
      6 C6          0.8220   -1.6870   -0.4830 c3        1 EIM     -0.039000
      7 C7          0.1750   -0.1010    1.2350 c3        1 EIM      0.141100
      8 C8          1.7130   -0.1070    1.1390 c3        1 EIM     -0.101400
      9 C9          2.1210   -1.3070    0.2650 c3        1 EIM     -0.051700
     10 C10        -2.5760   -0.6690    0.1270 ce        1 EIM     -0.152000
     11 C11        -3.9260   -0.7840   -0.3720 ce        1 EIM     -0.114000
     12 C12        -4.9500    0.0260   -0.0320 cf        1 EIM     -0.069200
     13 C13        -6.3030   -0.1770   -0.6270 c3        1 EIM     -0.075200
     14 C14        -6.8940    1.1380   -1.1340 c3        1 EIM      0.145100
     15 C15        -6.9200    2.1890   -0.0320 c3        1 EIM     -0.069400
     16 C16        -5.5190    2.4220    0.5230 c3        1 EIM      0.183300
     17 C17        -4.8510    1.1290    0.9240 cf        1 EIM     -0.120200
     18 C18        -4.2380    1.0180    2.1080 c2        1 EIM     -0.197000
     19 C19         3.3400   -0.9900   -0.5970 c3        1 EIM     -0.055700
     20 C20         0.6080   -0.7810   -1.6840 c3        1 EIM     -0.085100
     21 O21        -4.7840    3.1150   -0.4830 oh        1 EIM     -0.596800
     22 O22        -8.2430    0.9490   -1.5440 oh        1 EIM     -0.599800
     23 C23         3.7230   -2.1600   -1.4840 c3        1 EIM     -0.091100
     24 C24         4.5290   -0.6170    0.2890 c3        1 EIM     -0.080400
     25 C25         5.5350    0.2410   -0.4500 c3        1 EIM     -0.080400
     26 C26         6.7390    0.5360    0.4170 c3        1 EIM     -0.104400
     27 C27         7.6640    1.5930   -0.1960 c3        1 EIM      0.147800
     28 C28         8.8120    1.8760    0.7690 c3        1 EIM     -0.103600
     29 C29         8.2090    1.1470   -1.5470 c3        1 EIM     -0.103600
     30 O30         6.9440    2.8000   -0.4510 oh        1 EIM     -0.596800
     31 O31        -0.2290   -0.0970    2.6060 os        1 EIM     -0.419600
     32 C33        -0.6580    1.1700    3.0690 c3        1 EIM      0.115700
     33 H1          0.9210   -3.7970    0.0060 hc        1 EIM      0.044200
     34 H1A         1.4430   -3.4030   -1.6780 hc        1 EIM      0.044200
     35 H2         -0.8300   -2.9640   -2.4010 hc        1 EIM      0.041200
     36 H2A        -0.7950   -4.5590   -1.5550 hc        1 EIM      0.041200
     37 H3         -2.7890   -3.0820   -1.0290 hc        1 EIM      0.049700
     38 H3A        -1.8760   -3.6960    0.4030 hc        1 EIM      0.049700
     39 H5         -0.1270   -2.2160    1.4170 hc        1 EIM      0.077700
     40 H7         -0.2580    0.7750    0.6850 h1        1 EIM      0.049700
     41 H8          2.0680    0.8510    0.6870 hc        1 EIM      0.053200
     42 H8A         2.1540   -0.1990    2.1620 hc        1 EIM      0.053200
     43 H9          2.3910   -2.1680    0.9370 hc        1 EIM      0.051700
     44 H10        -2.3340    0.2990    0.6060 ha        1 EIM      0.124000
     45 H11        -4.1110   -1.5890   -1.1070 ha        1 EIM      0.124000
     46 H13        -6.2600   -0.9120   -1.4740 hc        1 EIM      0.053700
     47 H13A       -6.9870   -0.6070    0.1540 hc        1 EIM      0.053700
     48 H14        -6.2840    1.5200   -2.0010 h1        1 EIM      0.053700
     49 H15        -7.3200    3.1490   -0.4490 hc        1 EIM      0.067200
     50 H15A       -7.5940    1.8550    0.7960 hc        1 EIM      0.067200
     51 H16        -5.5910    3.1020    1.4240 h1        1 EIM      0.038700
     52 H18        -3.7640    0.0840    2.4410 ha        1 EIM      0.122500
     53 H18A       -4.1850    1.8520    2.8210 ha        1 EIM      0.122500
     54 H19         3.0950   -0.1070   -1.2520 hc        1 EIM      0.052700
     55 H20        -0.4500   -0.8410   -2.0390 hc        1 EIM      0.038367
     56 H20A        0.8250    0.2810   -1.4140 hc        1 EIM      0.038367
     57 H20B        1.2810   -1.0800   -2.5230 hc        1 EIM      0.038367
     58 HO21       -3.8500    3.0270   -0.2640 ho        1 EIM      0.403000
     59 HO22       -8.2240    0.3160   -2.2710 ho        1 EIM      0.399000
     60 H23         3.0230   -2.2450   -2.3490 hc        1 EIM      0.034367
     61 H23A        4.7540   -2.0200   -1.8890 hc        1 EIM      0.034367
     62 H23B        3.6980   -3.1160   -0.9080 hc        1 EIM      0.034367
     63 H24         4.1770   -0.0580    1.1950 hc        1 EIM      0.040200
     64 H24A        5.0260   -1.5540    0.6550 hc        1 EIM      0.040200
     65 H25         5.8670   -0.2780   -1.3870 hc        1 EIM      0.049700
     66 H25A        5.0570    1.2090   -0.7600 hc        1 EIM      0.049700
     67 H26         6.3950    0.9000    1.4210 hc        1 EIM      0.042700
     68 H26A        7.3290   -0.4030    0.5830 hc        1 EIM      0.042700
     69 H28         9.4410    0.9630    0.8900 hc        1 EIM      0.043367
     70 H28A        9.4450    2.7040    0.3710 hc        1 EIM      0.043367
     71 H28B        8.4170    2.1780    1.7680 hc        1 EIM      0.043367
     72 H29         7.3840    1.1040   -2.2960 hc        1 EIM      0.043367
     73 H29A        8.9750    1.8750   -1.9060 hc        1 EIM      0.043367
     74 H29B        8.6740    0.1390   -1.4480 hc        1 EIM      0.043367
     75 HO30        6.5800    3.0910    0.3930 ho        1 EIM      0.397000
     76 H33         0.1220    1.9500    2.8880 h1        1 EIM      0.032033
     77 H33A       -1.6170    1.4630    2.5700 h1        1 EIM      0.032033
     78 H33B       -0.8200    1.0260    4.1660 h1        1 EIM      0.032033
@<TRIPOS>BOND
     1    1    2 1   
     2    1    6 1   
     3    1   33 1   
     4    1   34 1   
     5    2    3 1   
     6    2   35 1   
     7    2   36 1   
     8    3    4 1   
     9    3   37 1   
    10    3   38 1   
    11    4    5 1   
    12    4   10 2   
    13    5    6 1   
    14    5    7 1   
    15    5   39 1   
    16    6    9 1   
    17    6   20 1   
    18    7    8 1   
    19    7   31 1   
    20    7   40 1   
    21    8    9 1   
    22    8   41 1   
    23    8   42 1   
    24    9   19 1   
    25    9   43 1   
    26   10   11 1   
    27   10   44 1   
    28   11   12 2   
    29   11   45 1   
    30   12   13 1   
    31   12   17 1   
    32   13   14 1   
    33   13   46 1   
    34   13   47 1   
    35   14   15 1   
    36   14   22 1   
    37   14   48 1   
    38   15   16 1   
    39   15   49 1   
    40   15   50 1   
    41   16   17 1   
    42   16   21 1   
    43   16   51 1   
    44   17   18 2   
    45   18   52 1   
    46   18   53 1   
    47   19   23 1   
    48   19   24 1   
    49   19   54 1   
    50   20   55 1   
    51   20   56 1   
    52   20   57 1   
    53   21   58 1   
    54   22   59 1   
    55   23   60 1   
    56   23   61 1   
    57   23   62 1   
    58   24   25 1   
    59   24   63 1   
    60   24   64 1   
    61   25   26 1   
    62   25   65 1   
    63   25   66 1   
    64   26   27 1   
    65   26   67 1   
    66   26   68 1   
    67   27   28 1   
    68   27   29 1   
    69   27   30 1   
    70   28   69 1   
    71   28   70 1   
    72   28   71 1   
    73   29   72 1   
    74   29   73 1   
    75   29   74 1   
    76   30   75 1   
    77   31   32 1   
    78   32   76 1   
    79   32   77 1   
    80   32   78 1   
@<TRIPOS>SUBSTRUCTURE
     1 EIM         1 TEMP              0 ****  ****    0 ROOT
