@<TRIPOS>MOLECULE
EIM
   78    80     1     0     0
SMALL
bcc


@<TRIPOS>ATOM
      1 C1         -0.0040   -0.1140    0.0250 c3        1 EIM     -0.066400
      2 C2          1.4790    0.1750    0.1720 c3        1 EIM     -0.074400
      3 C3          2.0430   -0.1530    1.5440 c3        1 EIM     -0.044200
      4 C4          1.5940   -1.4730    2.0830 c2        1 EIM     -0.081400
      5 C5          0.1230   -1.6470    1.9530 c3        1 EIM     -0.033500
      6 C6         -0.3230   -1.5340    0.4690 c3        1 EIM     -0.040000
      7 C7         -0.5630   -2.9300    2.4330 c3        1 EIM      0.140100
      8 C8         -1.8880   -2.9760    1.6480 c3        1 EIM     -0.108400
      9 C9         -1.8270   -1.8810    0.5670 c3        1 EIM     -0.050700
     10 C10         2.3930   -2.3640    2.6940 ce        1 EIM     -0.144000
     11 C11         3.8270   -2.2540    2.8310 ce        1 EIM     -0.110000
     12 C12         4.5630   -2.8500    3.7920 cf        1 EIM     -0.071200
     13 C13         6.0470   -2.6880    3.8040 c3        1 EIM     -0.036200
     14 C14         6.7400   -4.0320    4.0110 c3        1 EIM      0.146100
     15 C15         6.2440   -4.7020    5.2870 c3        1 EIM     -0.146400
     16 C16         4.7350   -4.9200    5.2370 c3        1 EIM      0.187300
     17 C17         4.0000   -3.6530    4.8750 cf        1 EIM     -0.076200
     18 C18         2.8980   -3.3000    5.5500 c2        1 EIM     -0.186000
     19 C19        -2.5160   -2.3200   -0.7220 c3        1 EIM     -0.056700
     20 C20         0.4050   -2.5460   -0.4000 c3        1 EIM     -0.085100
     21 O21         4.3810   -5.9060    4.2710 oh        1 EIM     -0.590800
     22 O22         8.1330   -3.7570    4.0890 oh        1 EIM     -0.599800
     23 C23        -2.4280   -1.2560   -1.7990 c3        1 EIM     -0.091100
     24 C24        -3.9850   -2.6430   -0.4500 c3        1 EIM     -0.079400
     25 C25        -4.5500   -3.6050   -1.4760 c3        1 EIM     -0.079400
     26 C26        -6.0200   -3.8580   -1.2260 c3        1 EIM     -0.064400
     27 C27        -6.5930   -4.9710   -2.1100 c3        1 EIM      0.147800
     28 C28        -8.0810   -5.1410   -1.8150 c3        1 EIM     -0.123100
     29 C29        -6.3900   -4.6770   -3.5910 c3        1 EIM     -0.123100
     30 O30        -5.8930   -6.1630   -1.7480 oh        1 EIM     -0.597800
     31 O31        -0.7910   -2.8050    3.8370 os        1 EIM     -0.419600
     32 C33        -1.1680   -4.0280    4.4470 c3        1 EIM      0.114700
     33 H1         -0.5960    0.6100    0.6440 hc        1 EIM      0.042700
     34 H1A        -0.3010    0.0380   -1.0440 hc        1 EIM      0.042700
     35 H2          2.0430   -0.4070   -0.6040 hc        1 EIM      0.040200
     36 H2A         1.6590    1.2630   -0.0360 hc        1 EIM      0.040200
     37 H3          3.1630   -0.1030    1.4910 hc        1 EIM      0.048200
     38 H3A         1.7140    0.6370    2.2750 hc        1 EIM      0.048200
     39 H5         -0.3520   -0.7960    2.5300 hc        1 EIM      0.074700
     40 H7          0.0590   -3.8410    2.2260 h1        1 EIM      0.050700
     41 H8         -2.7460   -2.7940    2.3410 hc        1 EIM      0.052200
     42 H8A        -2.0200   -3.9840    1.1830 hc        1 EIM      0.052200
     43 H9         -2.3630   -0.9670    0.9480 hc        1 EIM      0.050700
     44 H10         1.9470   -3.2750    3.1390 ha        1 EIM      0.138000
     45 H11         4.3460   -1.6570    2.0580 ha        1 EIM      0.123000
     46 H13         6.3400   -1.9930    4.6360 hc        1 EIM      0.061700
     47 H13A        6.4140   -2.2360    2.8460 hc        1 EIM      0.061700
     48 H14         6.5360   -4.7080    3.1320 h1        1 EIM      0.047700
     49 H15         6.7630   -5.6860    5.4240 hc        1 EIM      0.052200
     50 H15A        6.4960   -4.0560    6.1680 hc        1 EIM      0.052200
     51 H16         4.3920   -5.2810    6.2520 h1        1 EIM      0.033700
     52 H18         2.4850   -3.9140    6.3600 ha        1 EIM      0.123000
     53 H18A        2.3470   -2.3760    5.3300 ha        1 EIM      0.123000
     54 H19        -2.0100   -3.2540   -1.0970 hc        1 EIM      0.052700
     55 H20         1.5070   -2.4920   -0.2260 hc        1 EIM      0.038367
     56 H20A        0.0650   -3.5830   -0.1590 hc        1 EIM      0.038367
     57 H20B        0.2060   -2.3480   -1.4810 hc        1 EIM      0.038367
     58 HO21        4.9110   -6.6870    4.4690 ho        1 EIM      0.395000
     59 HO22        8.5760   -4.6050    4.2090 ho        1 EIM      0.398000
     60 H23        -1.4060   -1.2320   -2.2480 hc        1 EIM      0.033700
     61 H23A       -3.1570   -1.4700   -2.6190 hc        1 EIM      0.033700
     62 H23B       -2.6570   -0.2480   -1.3790 hc        1 EIM      0.033700
     63 H24        -4.1010   -3.0980    0.5680 hc        1 EIM      0.040700
     64 H24A       -4.5810   -1.6930   -0.4540 hc        1 EIM      0.040700
     65 H25        -3.9960   -4.5810   -1.4290 hc        1 EIM      0.048200
     66 H25A       -4.4080   -3.1900   -2.5080 hc        1 EIM      0.048200
     67 H26        -6.1700   -4.1530   -0.1540 hc        1 EIM      0.047200
     68 H26A       -6.6090   -2.9240   -1.4150 hc        1 EIM      0.047200
     69 H28        -8.2300   -5.3840   -0.7360 hc        1 EIM      0.042367
     70 H28A       -8.6280   -4.2010   -2.0580 hc        1 EIM      0.042367
     71 H28B       -8.5040   -5.9730   -2.4280 hc        1 EIM      0.042367
     72 H29        -6.9470   -5.4180   -4.2130 hc        1 EIM      0.042367
     73 H29A       -6.7600   -3.6540   -3.8320 hc        1 EIM      0.042367
     74 H29B       -5.3050   -4.7430   -3.8480 hc        1 EIM      0.042367
     75 HO30       -6.2460   -6.8700   -2.3010 ho        1 EIM      0.397000
     76 H33        -2.1030   -4.4300    3.9840 h1        1 EIM      0.032367
     77 H33A       -0.3460   -4.7810    4.3600 h1        1 EIM      0.032367
     78 H33B       -1.3450   -3.7620    5.5190 h1        1 EIM      0.032367
@<TRIPOS>BOND
     1    1    2 1   
     2    1    6 1   
     3    1   33 1   
     4    1   34 1   
     5    2    3 1   
     6    2   35 1   
     7    2   36 1   
     8    3    4 1   
     9    3   37 1   
    10    3   38 1   
    11    4    5 1   
    12    4   10 2   
    13    5    6 1   
    14    5    7 1   
    15    5   39 1   
    16    6    9 1   
    17    6   20 1   
    18    7    8 1   
    19    7   31 1   
    20    7   40 1   
    21    8    9 1   
    22    8   41 1   
    23    8   42 1   
    24    9   19 1   
    25    9   43 1   
    26   10   11 1   
    27   10   44 1   
    28   11   12 2   
    29   11   45 1   
    30   12   13 1   
    31   12   17 1   
    32   13   14 1   
    33   13   46 1   
    34   13   47 1   
    35   14   15 1   
    36   14   22 1   
    37   14   48 1   
    38   15   16 1   
    39   15   49 1   
    40   15   50 1   
    41   16   17 1   
    42   16   21 1   
    43   16   51 1   
    44   17   18 2   
    45   18   52 1   
    46   18   53 1   
    47   19   23 1   
    48   19   24 1   
    49   19   54 1   
    50   20   55 1   
    51   20   56 1   
    52   20   57 1   
    53   21   58 1   
    54   22   59 1   
    55   23   60 1   
    56   23   61 1   
    57   23   62 1   
    58   24   25 1   
    59   24   63 1   
    60   24   64 1   
    61   25   26 1   
    62   25   65 1   
    63   25   66 1   
    64   26   27 1   
    65   26   67 1   
    66   26   68 1   
    67   27   28 1   
    68   27   29 1   
    69   27   30 1   
    70   28   69 1   
    71   28   70 1   
    72   28   71 1   
    73   29   72 1   
    74   29   73 1   
    75   29   74 1   
    76   30   75 1   
    77   31   32 1   
    78   32   76 1   
    79   32   77 1   
    80   32   78 1   
@<TRIPOS>SUBSTRUCTURE
     1 EIM         1 TEMP              0 ****  ****    0 ROOT
