@<TRIPOS>MOLECULE
EIN
   47    47     1     0     0
SMALL
bcc


@<TRIPOS>ATOM
      1 C14        -0.1810    0.1270    0.2020 cp        1 EIN     -0.065000
      2 C15         1.0940   -0.3940    0.4510 ca        1 EIN     -0.085500
      3 C16         1.6560   -0.3360    1.7250 ca        1 EIN     -0.182000
      4 C17         0.9310    0.2570    2.7650 ca        1 EIN      0.072000
      5 C1         -0.3510    0.7880    2.5330 ca        1 EIN     -0.182000
      6 C2         -0.8950    0.7170    1.2580 ca        1 EIN     -0.085500
      7 O1          1.3830    0.3760    4.0670 os        1 EIN     -0.214000
      8 C3          2.6730   -0.1610    4.3320 c3        1 EIN     -0.074000
      9 C4         -0.7620    0.0580   -1.1380 cq        1 EIN     -0.005000
     10 C5         -2.1210   -0.2430   -1.3090 ca        1 EIN     -0.152000
     11 C6         -2.6650   -0.3150   -2.5880 ca        1 EIN     -0.031500
     12 C7         -1.8750   -0.0910   -3.7190 ca        1 EIN     -0.670000
     13 C8         -0.5250    0.2200   -3.5430 ca        1 EIN     -0.031500
     14 C9          0.0320    0.2940   -2.2690 ca        1 EIN     -0.152000
     15 S1         -2.5650   -0.1640   -5.2860 s6        1 EIN      2.184000
     16 O2         -1.7860    0.6550   -6.1860 o         1 EIN     -0.918500
     17 O3         -3.9590    0.2010   -5.1850 o         1 EIN     -0.918500
     18 N1         -2.4050   -1.9480   -5.7570 n4        1 EIN     -0.180000
     19 C10        -1.4980   -2.6350   -4.9970 c2        1 EIN     -0.465000
     20 C11        -0.0660   -2.7740   -5.3570 c3        1 EIN     -0.022000
     21 C12         0.5500   -3.8880   -4.5300 c3        1 EIN     -0.208500
     22 C13         0.1480   -3.0390   -6.8370 c3        1 EIN     -0.208500
     23 P1         -4.6870   -3.6650   -8.6910 p3        1 EIN      2.420000
     24 O4         -4.3140   -3.6300  -10.1100 o         1 EIN     -1.135000
     25 O5         -5.8390   -4.4320   -8.2030 o         1 EIN     -1.135000
     26 O6         -3.8550   -2.9310   -7.7090 o         1 EIN     -1.135000
     27 H15         1.6590   -0.8640   -0.3690 ha        1 EIN      0.141000
     28 H16         2.6560   -0.7560    1.8970 ha        1 EIN      0.139500
     29 H1         -0.9020    1.2520    3.3620 ha        1 EIN      0.139500
     30 H2         -1.8960    1.1350    1.0680 ha        1 EIN      0.141000
     31 H31         2.6930   -1.2600    4.1280 h1        1 EIN      0.081000
     32 H32         3.4510    0.3620    3.7250 h1        1 EIN      0.081000
     33 H33         2.8220    0.0400    5.4230 h1        1 EIN      0.081000
     34 H5         -2.7550   -0.4290   -0.4310 ha        1 EIN      0.129000
     35 H6         -3.7400   -0.5330   -2.7180 ha        1 EIN      0.152000
     36 H8          0.0990    0.4240   -4.4320 ha        1 EIN      0.152000
     37 H9          1.0950    0.5470   -2.1480 ha        1 EIN      0.129000
     38 HN1        -3.3580   -2.3390   -5.6970 hn        1 EIN      0.285500
     39 H10        -1.8420   -3.0330   -4.0360 hx        1 EIN      0.148000
     40 H11         0.4700   -1.8100   -5.0970 hc        1 EIN      0.064000
     41 H121        1.6430   -3.9660   -4.7470 hc        1 EIN      0.072167
     42 H122        0.4160   -3.6870   -3.4410 hc        1 EIN      0.072167
     43 H123        0.0680   -4.8650   -4.7740 hc        1 EIN      0.072167
     44 H131       -0.5150   -3.8670   -7.1870 hc        1 EIN      0.072167
     45 H132        1.2100   -3.3290   -7.0260 hc        1 EIN      0.072167
     46 H133       -0.0740   -2.1270   -7.4410 hc        1 EIN      0.072167
     47 H12        -2.1710   -1.9500   -6.7630 hn        1 EIN      0.285500
@<TRIPOS>BOND
     1    1    2 1   
     2    1    6 1   
     3    1    9 1   
     4    2    3 1   
     5    2   27 1   
     6    3    4 1   
     7    3   28 1   
     8    4    5 1   
     9    4    7 1   
    10    5    6 1   
    11    5   29 1   
    12    6   30 1   
    13    7    8 1   
    14    8   31 1   
    15    8   32 1   
    16    8   33 1   
    17    9   10 1   
    18    9   14 1   
    19   10   11 1   
    20   10   34 1   
    21   11   12 1   
    22   11   35 1   
    23   12   13 1   
    24   12   15 1   
    25   13   14 1   
    26   13   36 1   
    27   14   37 1   
    28   15   16 1   
    29   15   17 1   
    30   15   18 1   
    31   18   19 1   
    32   18   38 1   
    33   18   47 1   
    34   19   20 1   
    35   19   39 1   
    36   20   21 1   
    37   20   22 1   
    38   20   40 1   
    39   21   41 1   
    40   21   42 1   
    41   21   43 1   
    42   22   44 1   
    43   22   45 1   
    44   22   46 1   
    45   23   24 1   
    46   23   25 1   
    47   23   26 1   
@<TRIPOS>SUBSTRUCTURE
     1 EIN         1 TEMP              0 ****  ****    0 ROOT
