@<TRIPOS>MOLECULE
EIN
   46    46     1     0     0
SMALL
bcc


@<TRIPOS>ATOM
      1 C14         3.8320    0.3200    0.0060 cp        1 EIN     -0.013000
      2 C15         4.3700   -0.2300   -1.1660 ca        1 EIN     -0.102000
      3 C16         5.7100   -0.6060   -1.2350 ca        1 EIN     -0.180500
      4 C17         6.5280   -0.4320   -0.1150 ca        1 EIN      0.042000
      5 C1          6.0110    0.1150    1.0710 ca        1 EIN     -0.180500
      6 C2          4.6720    0.4850    1.1210 ca        1 EIN     -0.102000
      7 O1          7.8770   -0.7610   -0.0680 os        1 EIN     -0.224000
      8 C3          8.3940   -1.4020   -1.2240 c3        1 EIN     -0.070000
      9 C4          2.4270    0.7100    0.0670 cq        1 EIN     -0.077000
     10 C5          1.6730    0.4890    1.2290 ca        1 EIN     -0.146500
     11 C6          0.3300    0.8570    1.2740 ca        1 EIN     -0.063500
     12 C7         -0.2880    1.4520    0.1740 ca        1 EIN     -0.597000
     13 C8          0.4670    1.6840   -0.9750 ca        1 EIN     -0.063500
     14 C9          1.8090    1.3140   -1.0380 ca        1 EIN     -0.146500
     15 S1         -2.0190    1.8910    0.2220 s6        1 EIN      2.204000
     16 O2         -2.0760    3.1150   -0.5860 o         1 EIN     -0.957000
     17 O3         -2.2770    2.2030    1.6320 o         1 EIN     -0.957000
     18 N1         -2.8820    0.5800   -0.4140 n3        1 EIN     -0.497000
     19 C10        -3.2060   -0.4800    0.3530 c2        1 EIN     -0.454000
     20 C11        -2.2980   -1.6410    0.6380 c3        1 EIN     -0.036000
     21 C12        -3.0510   -2.7040    1.4140 c3        1 EIN     -0.202500
     22 C13        -1.6670   -2.2490   -0.5970 c3        1 EIN     -0.202500
     23 P1         -5.0750   -0.6720   -1.2450 p3        1 EIN      2.467000
     24 O4         -5.9230    0.4700   -0.8470 o         1 EIN     -1.165333
     25 O5         -4.2660   -0.6150   -2.4910 o         1 EIN     -1.165333
     26 O6         -5.4300   -2.0150   -0.7210 o         1 EIN     -1.165333
     27 H15         3.7190   -0.3740   -2.0420 ha        1 EIN      0.142500
     28 H16         6.1040   -1.0370   -2.1650 ha        1 EIN      0.127500
     29 H1          6.6680    0.2450    1.9400 ha        1 EIN      0.127500
     30 H2          4.2600    0.9180    2.0450 ha        1 EIN      0.142500
     31 H31         9.4590   -1.6170   -0.9550 h1        1 EIN      0.072667
     32 H32         7.8440   -2.3520   -1.4340 h1        1 EIN      0.072667
     33 H33         8.3440   -0.7230   -2.1090 h1        1 EIN      0.072667
     34 H5          2.1430    0.0120    2.1010 ha        1 EIN      0.105500
     35 H6         -0.2630    0.6870    2.1890 ha        1 EIN      0.149500
     36 H8         -0.0110    2.1840   -1.8340 ha        1 EIN      0.149500
     37 H9          2.3900    1.5070   -1.9510 ha        1 EIN      0.105500
     38 HN1        -2.5800    0.3290   -1.3420 hn        1 EIN      0.236000
     39 H10        -3.9520   -0.2800    1.1430 h4        1 EIN      0.135000
     40 H11        -1.4520   -1.2610    1.2940 hc        1 EIN      0.027000
     41 H121       -3.9400   -3.0500    0.8280 hc        1 EIN      0.064167
     42 H122       -2.3840   -3.5760    1.6230 hc        1 EIN      0.064167
     43 H123       -3.4080   -2.2920    2.3880 hc        1 EIN      0.064167
     44 H131       -2.4410   -2.7280   -1.2430 hc        1 EIN      0.064167
     45 H132       -1.1370   -1.4720   -1.1980 hc        1 EIN      0.064167
     46 H133       -0.9200   -3.0290   -0.3020 hc        1 EIN      0.064167
@<TRIPOS>BOND
     1    1    2 1   
     2    1    6 1   
     3    1    9 1   
     4    2    3 1   
     5    2   27 1   
     6    3    4 1   
     7    3   28 1   
     8    4    5 1   
     9    4    7 1   
    10    5    6 1   
    11    5   29 1   
    12    6   30 1   
    13    7    8 1   
    14    8   31 1   
    15    8   32 1   
    16    8   33 1   
    17    9   10 1   
    18    9   14 1   
    19   10   11 1   
    20   10   34 1   
    21   11   12 1   
    22   11   35 1   
    23   12   13 1   
    24   12   15 1   
    25   13   14 1   
    26   13   36 1   
    27   14   37 1   
    28   15   16 1   
    29   15   17 1   
    30   15   18 1   
    31   18   19 1   
    32   18   38 1   
    33   19   20 1   
    34   19   39 1   
    35   20   21 1   
    36   20   22 1   
    37   20   40 1   
    38   21   41 1   
    39   21   42 1   
    40   21   43 1   
    41   22   44 1   
    42   22   45 1   
    43   22   46 1   
    44   23   24 1   
    45   23   25 1   
    46   23   26 1   
@<TRIPOS>SUBSTRUCTURE
     1 EIN         1 TEMP              0 ****  ****    0 ROOT
