@<TRIPOS>MOLECULE
EIN
   47    47     1     0     0
SMALL
bcc


@<TRIPOS>ATOM
      1 C14         0.6660    0.5970    0.2240 cp        1 EIN     -0.066000
      2 C15         2.0440    0.4880   -0.0050 ca        1 EIN     -0.084000
      3 C16         2.9620    1.0750    0.8640 ca        1 EIN     -0.183500
      4 C17         2.4950    1.7860    1.9750 ca        1 EIN      0.071000
      5 C1          1.1150    1.9090    2.2190 ca        1 EIN     -0.183500
      6 C2          0.2150    1.3130    1.3440 ca        1 EIN     -0.084000
      7 O1          3.3080    2.4100    2.9040 os        1 EIN     -0.216000
      8 C3          4.7070    2.3170    2.6710 c3        1 EIN     -0.074000
      9 C4         -0.2870   -0.0260   -0.6930 cq        1 EIN      0.003000
     10 C5         -1.4370   -0.6610   -0.1990 ca        1 EIN     -0.152500
     11 C6         -2.3320   -1.2600   -1.0760 ca        1 EIN     -0.026500
     12 C7         -2.1140   -1.2410   -2.4600 ca        1 EIN     -0.762000
     13 C8         -0.9660   -0.6090   -2.9490 ca        1 EIN     -0.026500
     14 C9         -0.0610   -0.0070   -2.0740 ca        1 EIN     -0.152500
     15 S1         -3.2360   -1.9700   -3.4980 s6        1 EIN      2.313000
     16 O2         -3.9040   -0.9910   -4.3000 o         1 EIN     -0.911000
     17 O3         -4.1300   -2.7980   -2.7230 o         1 EIN     -0.911000
     18 N1         -2.1950   -3.0550   -4.5160 ny        1 EIN     -0.249000
     19 C10        -2.4580   -2.8970   -5.8750 c2        1 EIN     -0.548000
     20 C11        -3.5740   -3.6370   -6.5310 c3        1 EIN     -0.033000
     21 C12        -3.5170   -3.4170   -8.0310 c3        1 EIN     -0.210000
     22 C13        -3.5690   -5.1200   -6.2100 c3        1 EIN     -0.210000
     23 P1         -0.0060   -3.2040   -6.3400 p3        1 EIN      2.444000
     24 O4         -0.0460   -4.4450   -5.5370 o         1 EIN     -1.141333
     25 O5          0.1290   -3.1860   -7.8010 o         1 EIN     -1.141333
     26 O6          0.1070   -1.9630   -5.5240 o         1 EIN     -1.141333
     27 H15         2.4070   -0.0760   -0.8790 ha        1 EIN      0.143500
     28 H16         4.0370    0.9720    0.6650 ha        1 EIN      0.139000
     29 H1          0.7680    2.4730    3.0950 ha        1 EIN      0.139000
     30 H2         -0.8660    1.4100    1.5270 ha        1 EIN      0.143500
     31 H31         5.0420    1.2510    2.6950 h1        1 EIN      0.080333
     32 H32         4.9780    2.7880    1.6950 h1        1 EIN      0.080333
     33 H33         5.1540    2.8890    3.5220 h1        1 EIN      0.080333
     34 H5         -1.6220   -0.6930    0.8840 ha        1 EIN      0.134000
     35 H6         -3.2310   -1.7690   -0.6840 ha        1 EIN      0.181500
     36 H8         -0.7380   -0.5990   -4.0380 ha        1 EIN      0.181500
     37 H9          0.8360    0.4830   -2.4820 ha        1 EIN      0.134000
     38 HN1        -1.1970   -2.8060   -4.3210 hn        1 EIN      0.273000
     39 H10        -2.1860   -1.9170   -6.3070 hx        1 EIN      0.177000
     40 H11        -4.5550   -3.2040   -6.1610 hc        1 EIN      0.064000
     41 H121       -2.6030   -3.8870   -8.4700 hc        1 EIN      0.075167
     42 H122       -3.4980   -2.3250   -8.2630 hc        1 EIN      0.075167
     43 H123       -4.4170   -3.8690   -8.5130 hc        1 EIN      0.075167
     44 H131       -2.5460   -5.5510   -6.3370 hc        1 EIN      0.075167
     45 H132       -4.2710   -5.6600   -6.8910 hc        1 EIN      0.075167
     46 H133       -3.9050   -5.3010   -5.1600 hc        1 EIN      0.075167
     47 H12        -2.3530   -4.0250   -4.2260 hn        1 EIN      0.273000
@<TRIPOS>BOND
     1    1    2 1   
     2    1    6 1   
     3    1    9 1   
     4    2    3 1   
     5    2   27 1   
     6    3    4 1   
     7    3   28 1   
     8    4    5 1   
     9    4    7 1   
    10    5    6 1   
    11    5   29 1   
    12    6   30 1   
    13    7    8 1   
    14    8   31 1   
    15    8   32 1   
    16    8   33 1   
    17    9   10 1   
    18    9   14 1   
    19   10   11 1   
    20   10   34 1   
    21   11   12 1   
    22   11   35 1   
    23   12   13 1   
    24   12   15 1   
    25   13   14 1   
    26   13   36 1   
    27   14   37 1   
    28   15   16 1   
    29   15   17 1   
    30   15   18 1   
    31   18   19 1   
    32   18   38 1   
    33   18   47 1   
    34   19   20 1   
    35   19   39 1   
    36   20   21 1   
    37   20   22 1   
    38   20   40 1   
    39   21   41 1   
    40   21   42 1   
    41   21   43 1   
    42   22   44 1   
    43   22   45 1   
    44   22   46 1   
    45   23   24 1   
    46   23   25 1   
    47   23   26 1   
@<TRIPOS>SUBSTRUCTURE
     1 EIN         1 TEMP              0 ****  ****    0 ROOT
