@<TRIPOS>MOLECULE
EIN
   47    47     1     0     0
SMALL
bcc


@<TRIPOS>ATOM
      1 C14        -0.1630    0.1550    0.1910 cp        1 EIN     -0.065000
      2 C15         1.0930   -0.4030    0.4590 ca        1 EIN     -0.085500
      3 C16         1.6460   -0.3400    1.7370 ca        1 EIN     -0.182000
      4 C17         0.9340    0.2940    2.7600 ca        1 EIN      0.072000
      5 C1         -0.3280    0.8630    2.5090 ca        1 EIN     -0.182000
      6 C2         -0.8650    0.7870    1.2310 ca        1 EIN     -0.085500
      7 O1          1.3800    0.4210    4.0640 os        1 EIN     -0.214000
      8 C3          2.6490   -0.1550    4.3480 c3        1 EIN     -0.074000
      9 C4         -0.7360    0.0810   -1.1520 cq        1 EIN     -0.005000
     10 C5         -2.1030   -0.1780   -1.3280 ca        1 EIN     -0.152500
     11 C6         -2.6410   -0.2550   -2.6100 ca        1 EIN     -0.031000
     12 C7         -1.8350   -0.0770   -3.7380 ca        1 EIN     -0.671000
     13 C8         -0.4770    0.1940   -3.5580 ca        1 EIN     -0.031000
     14 C9          0.0730    0.2710   -2.2810 ca        1 EIN     -0.152500
     15 S1         -2.5170   -0.1570   -5.3080 s6        1 EIN      2.184000
     16 O2         -1.7100    0.6250   -6.2180 o         1 EIN     -0.918500
     17 O3         -3.9010    0.2470   -5.2230 o         1 EIN     -0.918500
     18 N1         -2.4000   -1.9520   -5.7480 n4        1 EIN     -0.180000
     19 C10        -1.4910   -2.6420   -4.9920 c2        1 EIN     -0.465000
     20 C11        -0.0690   -2.8130   -5.3750 c3        1 EIN     -0.022000
     21 C12         0.5420   -3.9260   -4.5420 c3        1 EIN     -0.208500
     22 C13         0.1150   -3.1030   -6.8530 c3        1 EIN     -0.208500
     23 P1         -4.7710   -3.6810   -8.6030 p3        1 EIN      2.420000
     24 O4         -4.4330   -3.6790  -10.0310 o         1 EIN     -1.135000
     25 O5         -5.9250   -4.4180   -8.0720 o         1 EIN     -1.135000
     26 O6         -3.9020   -2.9460   -7.6550 o         1 EIN     -1.135000
     27 H15         1.6480   -0.9060   -0.3480 ha        1 EIN      0.141000
     28 H16         2.6310   -0.7900    1.9230 ha        1 EIN      0.139500
     29 H1         -0.8700    1.3590    3.3260 ha        1 EIN      0.139500
     30 H2         -1.8500    1.2340    1.0270 ha        1 EIN      0.141000
     31 H31         2.6330   -1.2570    4.1640 h1        1 EIN      0.081000
     32 H32         3.4490    0.3310    3.7390 h1        1 EIN      0.081000
     33 H33         2.7960    0.0600    5.4370 h1        1 EIN      0.081000
     34 H5         -2.7490   -0.3280   -0.4510 ha        1 EIN      0.129000
     35 H6         -3.7210   -0.4400   -2.7440 ha        1 EIN      0.152000
     36 H8          0.1590    0.3610   -4.4440 ha        1 EIN      0.152000
     37 H9          1.1430    0.4920   -2.1560 ha        1 EIN      0.129000
     38 HN1        -3.3580   -2.3250   -5.6640 hn        1 EIN      0.285000
     39 H10        -1.8250   -3.0170   -4.0180 hx        1 EIN      0.148000
     40 H11         0.4900   -1.8550   -5.1380 hc        1 EIN      0.064000
     41 H121        0.0380   -4.8970   -4.7630 hc        1 EIN      0.072333
     42 H122        0.4290   -3.7070   -3.4530 hc        1 EIN      0.072333
     43 H123        1.6290   -4.0270   -4.7750 hc        1 EIN      0.072333
     44 H131        1.1680   -3.4160   -7.0560 hc        1 EIN      0.072333
     45 H132       -0.5690   -3.9230   -7.1800 hc        1 EIN      0.072333
     46 H133       -0.1000   -2.1950   -7.4670 hc        1 EIN      0.072333
     47 H12        -2.1830   -1.9780   -6.7580 hn        1 EIN      0.285000
@<TRIPOS>BOND
     1    1    2 1   
     2    1    6 1   
     3    1    9 1   
     4    2    3 1   
     5    2   27 1   
     6    3    4 1   
     7    3   28 1   
     8    4    5 1   
     9    4    7 1   
    10    5    6 1   
    11    5   29 1   
    12    6   30 1   
    13    7    8 1   
    14    8   31 1   
    15    8   32 1   
    16    8   33 1   
    17    9   10 1   
    18    9   14 1   
    19   10   11 1   
    20   10   34 1   
    21   11   12 1   
    22   11   35 1   
    23   12   13 1   
    24   12   15 1   
    25   13   14 1   
    26   13   36 1   
    27   14   37 1   
    28   15   16 1   
    29   15   17 1   
    30   15   18 1   
    31   18   19 1   
    32   18   38 1   
    33   18   47 1   
    34   19   20 1   
    35   19   39 1   
    36   20   21 1   
    37   20   22 1   
    38   20   40 1   
    39   21   41 1   
    40   21   42 1   
    41   21   43 1   
    42   22   44 1   
    43   22   45 1   
    44   22   46 1   
    45   23   24 1   
    46   23   25 1   
    47   23   26 1   
@<TRIPOS>SUBSTRUCTURE
     1 EIN         1 TEMP              0 ****  ****    0 ROOT
