@<TRIPOS>MOLECULE
EIP
   26    25     1     0     0
SMALL
bcc


@<TRIPOS>ATOM
      1 O1         -1.8140   -1.2920   -5.3900 o         1 EIP     -0.959167
      2 O2         -0.3240    0.5720   -6.0120 o         1 EIP     -0.959167
      3 O3          0.4510   -1.7570   -6.2450 o         1 EIP     -0.959167
      4 P4         -0.3830   -0.8130   -5.4130 p5        1 EIP      1.460900
      5 O5          0.1830   -0.7720   -3.9370 os        1 EIP     -0.800800
      6 O6         -1.3540    0.9750   -2.9590 o         1 EIP     -0.933500
      7 O7         -1.7240   -1.3990   -2.4070 o         1 EIP     -0.933500
      8 P8         -0.6770   -0.3460   -2.6810 p5        1 EIP      1.576800
      9 O9          0.2660   -0.2000   -1.4220 os        1 EIP     -0.556200
     10 C10        -0.3260   -0.0220   -0.1560 c3        1 EIP      0.251400
     11 C11         0.7500    0.2500    0.8710 c3        1 EIP     -0.130400
     12 C12         0.1160    0.4160    2.2340 c3        1 EIP     -0.093700
     13 C13         0.6920   -0.6090    3.1870 c3        1 EIP      0.123400
     14 C14         0.4010    1.8070    2.7570 c3        1 EIP     -0.080100
     15 O15        -0.1690   -0.7580    4.2940 oh        1 EIP     -0.647800
     16 H101       -0.8170   -0.8330    0.0910 h1        1 EIP     -0.021300
     17 H102       -0.9450    0.7370   -0.1890 h1        1 EIP     -0.021300
     18 H111        1.2300    1.0680    0.6320 hc        1 EIP      0.054200
     19 H112        1.3770   -0.5010    0.8920 hc        1 EIP      0.054200
     20 H12        -0.8490    0.2870    2.1620 hc        1 EIP      0.049700
     21 H131        0.7820   -1.4690    2.7260 h1        1 EIP      0.040700
     22 H132        1.5720   -0.3100    3.4960 h1        1 EIP      0.040700
     23 H141        1.3710    1.9450    2.8040 hc        1 EIP      0.017700
     24 H142        0.0050    2.4700    2.1550 hc        1 EIP      0.017700
     25 H143        0.0140    1.9050    3.6520 hc        1 EIP      0.017700
     26 H15         0.1740   -1.3530    4.8580 ho        1 EIP      0.391000
@<TRIPOS>BOND
     1    1    4 1   
     2    2    4 1   
     3    3    4 1   
     4    4    5 1   
     5    5    8 1   
     6    6    8 1   
     7    7    8 1   
     8    8    9 1   
     9    9   10 1   
    10   10   11 1   
    11   10   16 1   
    12   10   17 1   
    13   11   12 1   
    14   11   18 1   
    15   11   19 1   
    16   12   13 1   
    17   12   14 1   
    18   12   20 1   
    19   13   15 1   
    20   13   21 1   
    21   13   22 1   
    22   14   23 1   
    23   14   24 1   
    24   14   25 1   
    25   15   26 1   
@<TRIPOS>SUBSTRUCTURE
     1 EIP         1 TEMP              0 ****  ****    0 ROOT
