@<TRIPOS>MOLECULE
EIT
   48    50     1     0     0
SMALL
bcc


@<TRIPOS>ATOM
      1 P           4.5610   -1.1820   -1.6160 p5        1 EIT      1.428800
      2 OP3         4.4990   -1.0040   -3.2420 oh        1 EIT     -0.782400
      3 OP2         3.3300   -1.8440   -1.1410 o         1 EIT     -0.840500
      4 O5'         4.4380    0.4150   -1.2140 os        1 EIT     -0.580200
      5 C5'         3.1680    0.9860   -1.2780 c3        1 EIT      0.186400
      6 C4'         2.7230    1.4510    0.1190 c3        1 EIT      0.084100
      7 O4'         1.9960    2.6850   -0.0250 os        1 EIT     -0.427600
      8 C1'         0.6620    2.5600    0.5170 c3        1 EIT      0.312500
      9 N1         -0.3290    3.2220   -0.3080 n         1 EIT     -0.322400
     10 C6         -1.3440    2.4960   -0.8830 c1        1 EIT     -0.121900
     11 C2         -0.2420    4.6320   -0.4440 c         1 EIT      0.728100
     12 O2          0.5900    5.3490    0.1730 o         1 EIT     -0.687100
     13 N3         -1.1810    5.2600   -1.2790 n         1 EIT     -0.597500
     14 C4         -2.2280    4.5570   -1.9220 c         1 EIT      0.678300
     15 O4         -3.0010    5.2450   -2.6360 o         1 EIT     -0.715100
     16 C5         -2.2910    3.1330   -1.6660 ce        1 EIT     -0.492500
     17 C5M        -3.3960    2.3760   -2.2780 c3        1 EIT      0.043100
     18 C2'         0.4120    1.0330    0.7100 c3        1 EIT      0.072100
     19 O2'        -0.2990    0.8350    1.9270 os        1 EIT     -0.419600
     20 CB'        -1.6870    0.5950    1.7340 c3        1 EIT      0.097400
     21 CC'        -1.9480   -0.9100    1.5680 c3        1 EIT      0.002300
     22 ND'        -1.6450   -1.7080    2.7220 na        1 EIT     -0.185900
     23 CE'        -2.5400   -2.5080    3.4470 cc        1 EIT      0.344400
     24 NF'        -1.9260   -3.1170    4.4870 nd        1 EIT     -0.697000
     25 CG'        -0.5990   -2.6950    4.4380 cd        1 EIT      0.240200
     26 CH'        -0.4060   -1.8170    3.3510 cc        1 EIT     -0.202600
     27 C3'         1.8240    0.4290    0.8420 c3        1 EIT      0.096100
     28 O3'         2.1970    0.2490    2.1950 oh        1 EIT     -0.592800
     29 OP1         5.9600   -1.6010   -1.3850 o         1 EIT     -0.840500
     30 H5'         3.2220    1.8960   -1.9410 h1        1 EIT      0.042200
     31 H5''        2.4270    0.2540   -1.7040 h1        1 EIT      0.042200
     32 H4'         3.6270    1.6930    0.7410 h1        1 EIT      0.071700
     33 H1'         0.6900    3.0890    1.5180 h2        1 EIT      0.053700
     34 H6          5.3670   -0.9120   -3.6160 ho        1 EIT      0.419000
     35 HN3        -1.0950    6.2400   -1.4040 hn        1 EIT      0.304500
     36 H71        -3.2250    1.2770   -2.1710 hc        1 EIT      0.001033
     37 H72        -3.4900    2.6220   -3.3660 hc        1 EIT      0.001033
     38 H73        -4.3740    2.6290   -1.7930 hc        1 EIT      0.001033
     39 H2'        -0.1250    0.5930   -0.1730 h1        1 EIT      0.120700
     40 HB'1       -2.0660    1.1330    0.8160 h1        1 EIT      0.086200
     41 HB'2       -2.1750    0.9970    2.6600 h1        1 EIT      0.086200
     42 HC'1       -1.3190   -1.2810    0.7060 h1        1 EIT      0.065200
     43 HC'2       -3.0350   -1.0560    1.3120 h1        1 EIT      0.065200
     44 HE'        -3.5910   -2.6120    3.1730 h5        1 EIT      0.041100
     45 HG'         0.1380   -3.0360    5.1610 h4        1 EIT      0.026100
     46 HH'         0.4730   -1.2670    2.9910 h4        1 EIT      0.224000
     47 H3'         1.9050   -0.5990    0.3850 h1        1 EIT      0.149700
     48 HO3'        2.0160    1.0800    2.6500 ho        1 EIT      0.392000
@<TRIPOS>BOND
     1    1    2 1   
     2    1    3 1   
     3    1    4 1   
     4    1   29 1   
     5    2   34 1   
     6    4    5 1   
     7    5    6 1   
     8    5   30 1   
     9    5   31 1   
    10    6    7 1   
    11    6   27 1   
    12    6   32 1   
    13    7    8 1   
    14    8    9 1   
    15    8   18 1   
    16    8   33 1   
    17    9   10 2   
    18    9   11 1   
    19   10   16 2   
    20   11   12 2   
    21   11   13 1   
    22   13   14 1   
    23   13   35 1   
    24   14   15 2   
    25   14   16 1   
    26   16   17 1   
    27   17   36 1   
    28   17   37 1   
    29   17   38 1   
    30   18   19 1   
    31   18   27 1   
    32   18   39 1   
    33   19   20 1   
    34   20   21 1   
    35   20   40 1   
    36   20   41 1   
    37   21   22 1   
    38   21   42 1   
    39   21   43 1   
    40   22   23 1   
    41   22   26 1   
    42   23   24 2   
    43   23   44 1   
    44   24   25 1   
    45   25   26 2   
    46   25   45 1   
    47   26   46 1   
    48   27   28 1   
    49   27   47 1   
    50   28   48 1   
@<TRIPOS>SUBSTRUCTURE
     1 EIT         1 TEMP              0 ****  ****    0 ROOT
