@<TRIPOS>MOLECULE
EIT
   48    46     1     0     0
SMALL
bcc


@<TRIPOS>ATOM
      1 P           3.0070   -5.7180   -0.1970 p4        1 EIT      1.712200
      2 OP3         4.4220   -5.2770   -0.5290 os        1 EIT     -0.811000
      3 OP2         2.9080   -6.0360    1.2860 o         1 EIT     -0.844500
      4 O5'         1.9840   -4.5420   -0.5610 os        1 EIT     -0.590200
      5 C5'         2.0910   -3.3050    0.1370 c3        1 EIT      0.159400
      6 C4'         1.3590   -2.1970   -0.6660 c3        1 EIT      0.024100
      7 O4'         0.0700   -2.3550   -0.5890 os        1 EIT     -0.401600
      8 C1'        -0.5560   -0.8960   -0.6060 c3        1 EIT      0.275500
      9 N1         -1.8490   -0.9090   -0.0000 n         1 EIT     -0.359000
     10 C6         -2.9850   -0.5460   -0.7620 cc        1 EIT      0.085600
     11 C2         -2.0200   -1.4770    1.3470 c         1 EIT      0.802500
     12 O2         -1.0540   -1.8460    1.9740 o         1 EIT     -0.687500
     13 N3         -3.3450   -1.6080    1.9210 n         1 EIT     -0.597500
     14 C4         -4.4810   -1.2730    1.1570 c         1 EIT      0.721700
     15 O4         -5.5780   -1.3990    1.6290 o         1 EIT     -0.685500
     16 C5         -4.3210   -0.6970   -0.1910 cd        1 EIT     -0.325400
     17 C5M        -5.5430   -0.3790   -1.0270 c3        1 EIT     -0.015900
     18 C2'         0.2680   -0.1280    0.0940 c3        1 EIT      0.020100
     19 O2'         0.3040    1.2450   -0.4760 os        1 EIT     -0.415600
     20 CB'         0.8460    2.2150    0.4090 c3        1 EIT      0.130400
     21 CC'         0.3060    3.6030    0.0430 c3        1 EIT     -0.016700
     22 ND'         1.3960    4.5720    0.0490 n3        1 EIT     -0.046400
     23 CE'         1.8360    5.2770    1.1370 c1        1 EIT      0.086400
     24 NF'         2.7940    6.1470    0.7160 ne        1 EIT     -0.448400
     25 CG'         2.9480    5.9870   -0.6130 cg        1 EIT     -0.172000
     26 CH'         2.0750    5.0040   -1.0270 c1        1 EIT     -0.198300
     27 C3'         1.6360   -0.7910   -0.0400 c3        1 EIT      0.303100
     28 O3'         2.4360   -0.0620   -0.8550 oh        1 EIT     -0.970800
     29 OP1         2.6590   -6.9680   -1.0110 o         1 EIT     -0.893300
     30 H5'         3.0420   -3.0650    0.2370 h1        1 EIT      0.027700
     31 H5''        1.6770   -3.3930    1.0340 h1        1 EIT      0.027700
     32 H4'         1.6450   -2.2120   -1.6010 h1        1 EIT      0.073700
     33 H1'        -0.6190   -0.5660   -1.5390 h2        1 EIT      0.076700
     34 H6         -2.8770   -0.2520   -1.7050 h4        1 EIT      0.249000
     35 HN3        -3.4470   -1.9610    2.7560 hn        1 EIT      0.325500
     36 H71        -6.1580    0.1480   -0.5060 hc        1 EIT      0.041367
     37 H72        -5.9720   -1.2050   -1.2970 hc        1 EIT      0.041367
     38 H73        -5.2750    0.1220   -1.8200 hc        1 EIT      0.041367
     39 H2'        -0.0080   -0.1000    1.0330 h1        1 EIT      0.054700
     40 HB'1        0.5820    1.9930    1.3440 h1        1 EIT      0.077200
     41 HB'2        1.8130    2.2120    0.3370 h1        1 EIT      0.077200
     42 HC'1       -0.3670    3.8700    0.6960 h1        1 EIT      0.070200
     43 HC'2       -0.1090    3.5700   -0.8710 h1        1 EIT      0.070200
     44 HE'         1.5230    5.1750    2.0390 DU        1 EIT      0.181000
     45 HG'         3.5690    6.4800   -1.1830 DU        1 EIT      0.181000
     46 HH'         2.0140    4.6430   -1.9150 DU        1 EIT      0.181000
     47 H3'         2.0570   -0.8910    0.8520 h1        1 EIT     -0.059300
     48 HO3'        3.2990   -0.2100   -0.6390 ho        1 EIT      0.422000
@<TRIPOS>BOND
     1    1    3 1   
     2    1    4 1   
     3    1   29 2   
     4    4    5 1   
     5    5    6 1   
     6    5   30 1   
     7    5   31 1   
     8    6    7 1   
     9    6   27 1   
    10    6   32 1   
    11    7    8 1   
    12    8    9 1   
    13    8   18 1   
    14    8   33 1   
    15    9   10 1   
    16    9   11 1   
    17   10   16 2   
    18   10   34 1   
    19   11   12 2   
    20   11   13 1   
    21   13   14 1   
    22   13   35 1   
    23   14   15 2   
    24   14   16 1   
    25   16   17 1   
    26   17   36 1   
    27   17   37 1   
    28   17   38 1   
    29   18   19 1   
    30   18   27 1   
    31   18   39 1   
    32   19   20 1   
    33   20   21 1   
    34   20   40 1   
    35   20   41 1   
    36   21   22 1   
    37   21   42 1   
    38   21   43 1   
    39   22   23 2   
    40   22   26 1   
    41   23   24 2   
    42   24   25 1   
    43   25   26 3   
    44   27   28 1   
    45   27   47 1   
    46   28   48 1   
@<TRIPOS>SUBSTRUCTURE
     1 EIT         1 TEMP              0 ****  ****    0 ROOT
