@<TRIPOS>MOLECULE
EJ4
   57    64     1     0     0
SMALL
bcc


@<TRIPOS>ATOM
      1 CAB         0.6430   -3.6810   -0.2660 ca        1 EJ4      0.114100
      2 CAC         0.4770   -2.4670    0.3950 ca        1 EJ4      0.037100
      3 CAE         0.9020   -0.5420    1.5810 c3        1 EJ4      0.221300
      4 CAF         1.9980    0.2160    0.9260 cc        1 EJ4     -0.095300
      5 CAG         1.8690    0.9800   -0.2390 cd        1 EJ4     -0.087400
      6 CAH         3.1730    1.5300   -0.5320 ca        1 EJ4     -0.088800
      7 CAI         3.6780    2.3650   -1.5300 ca        1 EJ4     -0.079000
      8 CAJ         5.0240    2.6950   -1.5130 ca        1 EJ4     -0.160000
      9 CAK         5.8830    2.2080   -0.5100 ca        1 EJ4     -0.110000
     10 CAL         5.4230    1.3850    0.5050 ca        1 EJ4     -0.147000
     11 CAM         4.0610    1.0410    0.5020 ca        1 EJ4     -0.037200
     12 CAO         0.6150    1.1490   -0.9870 c3        1 EJ4      0.001800
     13 CAP        -0.6000    0.9310   -0.0700 c3        1 EJ4      0.192800
     14 CAR        -1.9280    0.6970   -0.8830 c3        1 EJ4      0.161500
     15 CAV        -0.4460   -0.3200    0.8220 c3        1 EJ4     -0.037700
     16 CAW        -0.4510   -1.5220   -0.0790 ca        1 EJ4     -0.116300
     17 CAX        -1.1170   -1.6800   -1.2800 ca        1 EJ4     -0.063300
     18 CAY        -0.9610   -2.9110   -1.9420 ca        1 EJ4     -0.124000
     19 CAZ        -0.1200   -3.8980   -1.4360 ca        1 EJ4     -0.126000
     20 NAN         3.3150    0.2770    1.4050 na        1 EJ4     -0.168400
     21 NAS        -3.0590    0.6620    0.0480 n3        1 EJ4     -0.749600
     22 OAA         1.4940   -4.6790    0.1410 oh        1 EJ4     -0.491100
     23 OAD         1.2000   -1.9860    1.4850 os        1 EJ4     -0.339900
     24 OAQ        -0.6850    2.1320    0.6820 oh        1 EJ4     -0.586800
     25 CBA        -1.8390   -0.5110   -1.8450 c3        1 EJ4     -0.057100
     26 CBB        -4.3570    0.6870   -0.6090 c3        1 EJ4      0.207800
     27 CBC        -5.4570    1.2340    0.2680 cx        1 EJ4     -0.128700
     28 CBD        -5.5850    2.7190    0.4690 cx        1 EJ4     -0.126900
     29 CBE        -6.5770    1.9960   -0.3920 cx        1 EJ4     -0.126900
     30 H1          0.8240   -0.3450    2.6800 h1        1 EJ4      0.093700
     31 H2          3.0090    2.7530   -2.3120 ha        1 EJ4      0.133000
     32 H3          5.4360    3.3500   -2.2940 ha        1 EJ4      0.129000
     33 H4          6.9460    2.4930   -0.5350 ha        1 EJ4      0.129000
     34 H5          6.0980    1.0140    1.2870 ha        1 EJ4      0.132000
     35 H6          0.5580    2.1840   -1.4200 hc        1 EJ4      0.066700
     36 H7          0.5780    0.4100   -1.8310 hc        1 EJ4      0.066700
     37 H8         -2.0690    1.6210   -1.5210 h1        1 EJ4      0.069700
     38 H9         -3.1230   -1.3980    0.6300 h1        1 EJ4      0.041700
     39 H10        -3.7720   -0.1810    1.8220 h1        1 EJ4      0.041700
     40 H13        -1.4980   -3.0900   -2.8850 ha        1 EJ4      0.137000
     41 H14        -0.0070   -4.8600   -1.9580 ha        1 EJ4      0.152000
     42 H15         3.6930   -0.3460    2.0680 hn        1 EJ4      0.297700
     43 H17         2.0140   -4.3310    0.8810 ho        1 EJ4      0.431000
     44 H18        -1.5170    2.1340    1.1720 ho        1 EJ4      0.419000
     45 H19        -2.8710   -0.8150   -2.1670 hc        1 EJ4      0.058200
     46 H20        -1.2950   -0.1790   -2.7710 hc        1 EJ4      0.058200
     47 H21        -4.2730    1.3340   -1.5300 h1        1 EJ4      0.035200
     48 H22        -4.6720   -0.3450   -0.9490 h1        1 EJ4      0.035200
     49 H23        -5.7100    0.5690    1.1170 hc        1 EJ4      0.079700
     50 H24        -5.9040    3.0970    1.4570 hc        1 EJ4      0.071700
     51 H25        -4.8450    3.3870   -0.0070 hc        1 EJ4      0.071700
     52 H26        -6.5510    2.1500   -1.4860 hc        1 EJ4      0.071700
     53 H27        -7.6070    1.8490   -0.0230 hc        1 EJ4      0.071700
     54 CAT        -2.9550   -0.3700    1.0690 c3        1 EJ4      0.169800
     55 CAU        -1.6130   -0.3770    1.8030 c3        1 EJ4     -0.073400
     56 H11        -1.5460    0.4940    2.5060 hc        1 EJ4      0.058200
     57 H12        -1.5490   -1.3160    2.4110 hc        1 EJ4      0.058200
@<TRIPOS>BOND
     1    1    2 ar  
     2    1   19 ar  
     3    1   22 1   
     4    2   16 ar  
     5    2   23 1   
     6    3    4 1   
     7    3   15 1   
     8    3   23 1   
     9    3   30 1   
    10    4    5 2   
    11    4   20 1   
    12    5    6 1   
    13    5   12 1   
    14    6    7 ar  
    15    6   11 ar  
    16    7    8 ar  
    17    7   31 1   
    18    8    9 ar  
    19    8   32 1   
    20    9   10 ar  
    21    9   33 1   
    22   10   11 ar  
    23   10   34 1   
    24   11   20 1   
    25   12   13 1   
    26   12   35 1   
    27   12   36 1   
    28   13   14 1   
    29   13   15 1   
    30   13   24 1   
    31   14   21 1   
    32   14   25 1   
    33   14   37 1   
    34   15   16 1   
    35   15   55 1   
    36   16   17 ar  
    37   17   18 ar  
    38   17   25 1   
    39   18   19 ar  
    40   18   40 1   
    41   19   41 1   
    42   20   42 1   
    43   21   26 1   
    44   21   54 1   
    45   22   43 1   
    46   24   44 1   
    47   25   45 1   
    48   25   46 1   
    49   26   27 1   
    50   26   47 1   
    51   26   48 1   
    52   27   28 1   
    53   27   29 1   
    54   27   49 1   
    55   28   29 1   
    56   28   50 1   
    57   28   51 1   
    58   29   52 1   
    59   29   53 1   
    60   38   54 1   
    61   39   54 1   
    62   54   55 1   
    63   55   56 1   
    64   55   57 1   
@<TRIPOS>SUBSTRUCTURE
     1 EJ4         1 TEMP              0 ****  ****    0 ROOT
