@<TRIPOS>MOLECULE
EJ4
   57    59     1     0     0
SMALL
bcc


@<TRIPOS>ATOM
      1 CAB         0.0500    0.2700    0.3950 c2        1 EJ4      0.223000
      2 CAC         1.4860    0.3810    0.5220 c2        1 EJ4      0.021000
      3 CAE         3.6770    0.9490    0.1250 c3        1 EJ4      0.057000
      4 CAF         4.2400    2.3710    0.1490 c3        1 EJ4     -0.080000
      5 CAG         5.7720    2.3320    0.1910 c2        1 EJ4     -0.176000
      6 CAH         6.2360    3.0760   -0.8400 c2        1 EJ4     -0.168000
      7 CAI        -0.4460    5.2990   -0.1950 c1        1 EJ4     -0.226000
      8 CAJ         0.4300    4.6110   -0.6310 c1        1 EJ4     -0.226000
      9 CAK         5.3160    5.1360   -3.6520 c1        1 EJ4     -0.147000
     10 CAL         5.1790    4.4290   -2.6970 c1        1 EJ4     -0.128000
     11 CAM         5.0360    3.5950   -1.5730 c2        1 EJ4      0.083000
     12 CAO         3.2800    2.1730    3.2810 cx        1 EJ4     -0.221000
     13 CAP         4.0310    0.9780    2.7570 cx        1 EJ4      0.059000
     14 CAR         3.1840    0.8660    4.0590 cx        1 EJ4     -0.080000
     15 CAV         3.6070    0.2130    1.5190 c3        1 EJ4     -0.008000
     16 CAW         2.1360   -0.0620    1.6350 c2        1 EJ4     -0.173000
     17 CAX         1.4340   -0.5860    2.8180 c3        1 EJ4     -0.096000
     18 CAY        -0.0380   -0.6310    2.6780 c1        1 EJ4     -0.086000
     19 CAZ        -0.6500   -0.2380    1.4800 c2        1 EJ4     -0.328000
     20 NAN         3.9000    3.1930   -1.0370 n2        1 EJ4     -0.119000
     21 NAS         3.9350    0.7570    5.2910 n3        1 EJ4     -0.287000
     22 OAA        -0.4900    0.6840   -0.7730 oh        1 EJ4     -0.202000
     23 OAD         2.3160    0.9630   -0.4220 os        1 EJ4     -0.162000
     24 OAQ         5.4270    0.9610    2.8500 oh        1 EJ4     -0.309000
     25 CBA         1.8100    0.2090    4.0690 c3        1 EJ4     -0.112000
     26 CBB         3.3650    1.4780    6.4000 c3        1 EJ4     -0.128000
     27 CBC         5.8610   -4.4550    2.2130 c2        1 EJ4     -0.572000
     28 CBD         5.7270   -5.3630    3.3520 c3        1 EJ4     -0.102000
     29 CBE         6.4510   -4.4640    1.0650 c1        1 EJ4      0.068000
     30 H1          4.2610    0.3290   -0.6100 h1        1 EJ4      0.125000
     31 H2         -1.2210    5.9120    0.1890 ha        1 EJ4      0.226000
     32 H3          7.2580    3.2990   -1.1380 ha        1 EJ4      0.165000
     33 H4          1.2100    3.9990   -1.0200 ha        1 EJ4      0.226000
     34 H5          5.4410    5.7620   -4.5000 ha        1 EJ4      0.230000
     35 H6          3.8600    3.0140    3.7050 hc        1 EJ4      0.130500
     36 H7          6.3090    1.7840    0.9640 ha        1 EJ4      0.177000
     37 H8          2.3720    2.5150    2.7510 hc        1 EJ4      0.130500
     38 H9          4.0570   -1.6490    3.4850 ha        1 EJ4      0.076000
     39 H10         4.0540   -0.2140    5.5170 hn        1 EJ4      0.166000
     40 H13         1.7410   -1.6710    2.9690 hc        1 EJ4      0.150000
     41 H14        -1.7470   -0.3260    1.4180 ha        1 EJ4      0.153000
     42 H15         3.8440    2.9270    1.0460 h1        1 EJ4      0.151000
     43 H17        -1.4560    0.5780   -0.7240 ho        1 EJ4      0.243000
     44 H18         5.6850    1.4290    3.6580 ho        1 EJ4      0.237000
     45 H19         1.7090   -0.4870    4.9460 hc        1 EJ4      0.106000
     46 H20         1.0520    1.0260    4.2200 hc        1 EJ4      0.106000
     47 H21         3.2970    2.5660    6.1350 h1        1 EJ4      0.078000
     48 H22         2.3380    1.1230    6.6900 h1        1 EJ4      0.078000
     49 H23         4.0480    1.3610    7.2820 h1        1 EJ4      0.078000
     50 H24         4.6500   -5.6150    3.5270 hc        1 EJ4      0.067000
     51 H25         5.2770   -3.4210    2.3600 ha        1 EJ4      0.296000
     52 H26         6.1300   -4.8880    4.2820 hc        1 EJ4      0.067000
     53 H27         6.2840   -6.3170    3.1770 hc        1 EJ4      0.067000
     54 CAT         4.4910   -1.9670    2.5270 c1        1 EJ4     -0.032000
     55 CAU         4.4240   -1.0800    1.4020 c3        1 EJ4     -0.231000
     56 H11         5.5110   -0.8020    1.2010 hc        1 EJ4      0.178500
     57 H12         4.0790   -1.6710    0.5020 hc        1 EJ4      0.178500
@<TRIPOS>BOND
     1    1    2 1   
     2    1   19 1   
     3    1   22 1   
     4    2   16 1   
     5    2   23 1   
     6    3    4 1   
     7    3   15 1   
     8    3   23 1   
     9    3   30 1   
    10    4    5 1   
    11    4   20 1   
    12    4   42 1   
    13    5    6 1   
    14    5   36 1   
    15    6   11 1   
    16    6   32 1   
    17    7    8 1   
    18    7   31 1   
    19    8   33 1   
    20    9   10 1   
    21    9   34 1   
    22   10   11 1   
    23   11   20 1   
    24   12   13 1   
    25   12   14 1   
    26   12   35 1   
    27   12   37 1   
    28   13   14 1   
    29   13   15 1   
    30   13   24 1   
    31   14   21 1   
    32   14   25 1   
    33   15   16 1   
    34   15   55 1   
    35   16   17 1   
    36   17   18 1   
    37   17   25 1   
    38   17   40 1   
    39   18   19 1   
    40   19   41 1   
    41   21   26 1   
    42   21   39 1   
    43   22   43 1   
    44   24   44 1   
    45   25   45 1   
    46   25   46 1   
    47   26   47 1   
    48   26   48 1   
    49   26   49 1   
    50   27   28 1   
    51   27   29 1   
    52   27   51 1   
    53   28   50 1   
    54   28   52 1   
    55   28   53 1   
    56   38   54 1   
    57   54   55 1   
    58   55   56 1   
    59   55   57 1   
@<TRIPOS>SUBSTRUCTURE
     1 EJ4         1 TEMP              0 ****  ****    0 ROOT
