@<TRIPOS>MOLECULE
EJ5
   36    37     1     0     0
SMALL
bcc


@<TRIPOS>ATOM
      1 CAF        -0.2010    0.1110    0.6640 ca        1 EJ5     -0.148500
      2 CAH         1.1880    0.0430    0.6570 ca        1 EJ5     -0.067000
      3 CAR         1.8400   -0.9900    1.3470 ca        1 EJ5     -0.146600
      4 CAO         3.3040   -1.0370    1.3240 c         1 EJ5      0.652700
      5 OAD         3.8680   -2.0740    2.0140 oh        1 EJ5     -0.609100
      6 OAB         4.0950   -0.2670    0.7660 o         1 EJ5     -0.558000
      7 CAI         1.0910   -1.9480    2.0390 ca        1 EJ5     -0.067000
      8 CAG        -0.3000   -1.8730    2.0420 ca        1 EJ5     -0.148500
      9 CAQ        -0.9570   -0.8450    1.3550 ca        1 EJ5     -0.031300
     10 CAK        -2.4420   -0.7570    1.3660 c3        1 EJ5     -0.047100
     11 CAJ        -3.0400   -1.1320    0.0230 c3        1 EJ5     -0.070400
     12 CAL        -4.5580   -1.1680    0.0750 c3        1 EJ5     -0.001200
     13 CAT        -5.0850   -2.3900    0.7240 cc        1 EJ5     -0.305400
     14 CAS        -5.4750   -2.4570    2.0520 cd        1 EJ5      0.388700
     15 OAE        -5.3540   -1.3210    2.8170 oh        1 EJ5     -0.478100
     16 NAM        -5.9910   -3.5840    2.6750 nd        1 EJ5     -0.758300
     17 CAP        -6.0830   -4.7090    1.9280 cc        1 EJ5      0.709800
     18 NAA        -6.4830   -5.9060    2.5480 nh        1 EJ5     -0.901800
     19 NAN        -5.7400   -4.7470    0.5700 n         1 EJ5     -0.504400
     20 CAU        -5.2170   -3.5970   -0.0820 c         1 EJ5      0.718700
     21 OAC        -4.9300   -3.7240   -1.2850 o         1 EJ5     -0.625500
     22 HAF        -0.7130    0.9210    0.1220 ha        1 EJ5      0.140000
     23 HAH         1.7870    0.7920    0.1140 ha        1 EJ5      0.154500
     24 HAG        -0.8850   -2.6290    2.5870 ha        1 EJ5      0.140000
     25 HAK        -2.7490    0.2920    1.6290 hc        1 EJ5      0.055700
     26 HAKA       -2.8710   -1.4290    2.1590 hc        1 EJ5      0.055700
     27 HAJ        -2.7190   -0.3810   -0.7460 hc        1 EJ5      0.049700
     28 HAJA       -2.6550   -2.1330   -0.3050 hc        1 EJ5      0.049700
     29 HAL        -4.9380   -0.2640    0.6240 hc        1 EJ5      0.059200
     30 HNAA       -6.8360   -5.8130    3.4750 hn        1 EJ5      0.429300
     31 HNAB       -6.9560   -6.5680    1.9780 hn        1 EJ5      0.429300
     32 HAI         1.6080   -2.7580    2.5790 ha        1 EJ5      0.154500
     33 H13        -4.9500   -1.1270   -0.9780 hc        1 EJ5      0.059200
     34 H14        -5.6880   -1.4970    3.7130 ho        1 EJ5      0.443000
     35 HNAN       -5.7900   -5.5960    0.0500 hn        1 EJ5      0.336500
     36 HAA3        4.8350   -2.0170    1.9370 ho        1 EJ5      0.445000
@<TRIPOS>BOND
     1    1    2 ar  
     2    1    9 ar  
     3    1   22 1   
     4    2    3 ar  
     5    2   23 1   
     6    3    4 1   
     7    3    7 ar  
     8    4    5 1   
     9    4    6 2   
    10    5   36 1   
    11    7    8 ar  
    12    7   32 1   
    13    8    9 ar  
    14    8   24 1   
    15    9   10 1   
    16   10   11 1   
    17   10   25 1   
    18   10   26 1   
    19   11   12 1   
    20   11   27 1   
    21   11   28 1   
    22   12   13 1   
    23   12   29 1   
    24   12   33 1   
    25   13   14 2   
    26   13   20 1   
    27   14   15 1   
    28   14   16 1   
    29   15   34 1   
    30   16   17 2   
    31   17   18 1   
    32   17   19 1   
    33   18   30 1   
    34   18   31 1   
    35   19   20 1   
    36   19   35 1   
    37   20   21 2   
@<TRIPOS>SUBSTRUCTURE
     1 EJ5         1 TEMP              0 ****  ****    0 ROOT
