@<TRIPOS>MOLECULE
EJ5
   36    37     1     0     0
SMALL
bcc


@<TRIPOS>ATOM
      1 CAF        -0.1090   -0.2930    0.1480 ca        1 EJ5     -0.149000
      2 CAH         1.2520   -0.5240   -0.0290 ca        1 EJ5     -0.066500
      3 CAR         1.8910   -1.5230    0.7170 ca        1 EJ5     -0.146600
      4 CAO         3.3220   -1.7940    0.5580 c         1 EJ5      0.653700
      5 OAD         4.0200   -2.6330    1.1410 o         1 EJ5     -0.559000
      6 OAB         3.9690   -1.0120   -0.3580 oh        1 EJ5     -0.609100
      7 CAI         1.1590   -2.2870    1.6360 ca        1 EJ5     -0.066500
      8 CAG        -0.2020   -2.0490    1.8070 ca        1 EJ5     -0.149000
      9 CAQ        -0.8480   -1.0520    1.0650 ca        1 EJ5     -0.031300
     10 CAK        -2.3000   -0.7890    1.2540 c3        1 EJ5     -0.047100
     11 CAJ        -3.1170   -1.2370    0.0570 c3        1 EJ5     -0.070400
     12 CAL        -4.6080   -1.0990    0.3130 c3        1 EJ5     -0.001200
     13 CAT        -5.1520   -2.1820    1.1640 cc        1 EJ5     -0.305400
     14 CAS        -5.3510   -2.0680    2.5300 cd        1 EJ5      0.388700
     15 OAE        -5.0160   -0.8800    3.1340 oh        1 EJ5     -0.478100
     16 NAM        -5.8770   -3.0620    3.3440 nd        1 EJ5     -0.758300
     17 CAP        -6.1800   -4.2410    2.7520 cc        1 EJ5      0.709800
     18 NAA        -6.5970   -5.3170    3.5550 nv        1 EJ5     -0.902800
     19 NAN        -6.0410   -4.4560    1.3740 ns        1 EJ5     -0.504400
     20 CAU        -5.5110   -3.4430    0.5290 c         1 EJ5      0.718700
     21 OAC        -5.4140   -3.7230   -0.6790 o         1 EJ5     -0.625500
     22 HAF        -0.6130    0.4920   -0.4380 ha        1 EJ5      0.140000
     23 HAH         1.8320    0.0720   -0.7510 ha        1 EJ5      0.154500
     24 HAG        -0.7740   -2.6510    2.5290 ha        1 EJ5      0.140000
     25 HAK        -2.4570    0.3110    1.4200 hc        1 EJ5      0.055700
     26 HAKA       -2.6780   -1.3140    2.1740 hc        1 EJ5      0.055700
     27 HAJ        -2.8390   -0.6140   -0.8330 hc        1 EJ5      0.049200
     28 HAJA       -2.8800   -2.3040   -0.1940 hc        1 EJ5      0.049200
     29 HAL        -4.8170   -0.1070    0.7970 hc        1 EJ5      0.059200
     30 HNAA       -7.2060   -5.9800    3.1340 hn        1 EJ5      0.429300
     31 HNAB        4.9050   -1.2690   -0.3890 ho        1 EJ5      0.445000
     32 HAI         1.6710   -3.0710    2.2170 ha        1 EJ5      0.154500
     33 H13        -5.1410   -1.1220   -0.6770 hc        1 EJ5      0.059200
     34 H14        -5.2320   -0.9250    4.0810 ho        1 EJ5      0.443000
     35 HNAN       -6.2450   -5.3430    0.9680 hn        1 EJ5      0.336500
     36 HAA3       -6.8030   -5.0920    4.5040 hn        1 EJ5      0.429300
@<TRIPOS>BOND
     1    1    2 ar  
     2    1    9 ar  
     3    1   22 1   
     4    2    3 ar  
     5    2   23 1   
     6    3    4 1   
     7    3    7 ar  
     8    4    5 2   
     9    4    6 1   
    10    6   31 1   
    11    7    8 ar  
    12    7   32 1   
    13    8    9 ar  
    14    8   24 1   
    15    9   10 1   
    16   10   11 1   
    17   10   25 1   
    18   10   26 1   
    19   11   12 1   
    20   11   27 1   
    21   11   28 1   
    22   12   13 1   
    23   12   29 1   
    24   12   33 1   
    25   13   14 2   
    26   13   20 1   
    27   14   15 1   
    28   14   16 1   
    29   15   34 1   
    30   16   17 2   
    31   17   18 1   
    32   17   19 1   
    33   18   30 1   
    34   18   36 1   
    35   19   20 1   
    36   19   35 1   
    37   20   21 2   
@<TRIPOS>SUBSTRUCTURE
     1 EJ5         1 TEMP              0 ****  ****    0 ROOT
