@<TRIPOS>MOLECULE
EJ5
   35    36     1     0     0
SMALL
bcc


@<TRIPOS>ATOM
      1 CAF        -2.8460    1.0280   -1.1190 ca        1 EJ5     -0.156500
      2 CAH        -4.0640    1.0180   -0.4400 ca        1 EJ5     -0.110000
      3 CAR        -4.4820   -0.1210    0.2540 ca        1 EJ5     -0.122600
      4 CAO        -5.8070   -0.1300    0.9990 c         1 EJ5      0.906200
      5 OAD        -6.1330   -1.1820    1.6190 o         1 EJ5     -0.834300
      6 OAB        -6.5160    0.9170    0.9630 o         1 EJ5     -0.834300
      7 CAI        -3.6610   -1.2540    0.2550 ca        1 EJ5     -0.110000
      8 CAG        -2.4450   -1.2470   -0.4230 ca        1 EJ5     -0.156500
      9 CAQ        -2.0250   -0.1040   -1.1140 ca        1 EJ5     -0.116300
     10 CAK        -0.7240   -0.1030   -1.8360 c3        1 EJ5     -0.020100
     11 CAJ         0.4450   -0.0020   -0.8730 c3        1 EJ5     -0.074400
     12 CAL         1.7710   -0.1050   -1.6060 c3        1 EJ5     -0.009200
     13 CAT         2.9200   -0.0420   -0.6720 cc        1 EJ5     -0.278400
     14 CAS         3.2320   -1.0550    0.2200 cd        1 EJ5      0.376700
     15 OAE         2.4680   -2.1950    0.1920 oh        1 EJ5     -0.465100
     16 NAM         4.2650   -1.0060    1.1510 nd        1 EJ5     -0.747300
     17 CAP         5.0330    0.1030    1.1540 cc        1 EJ5      0.683800
     18 NAA         6.1530    0.1650    2.0210 nh        1 EJ5     -0.888800
     19 NAN         4.8130    1.1820    0.2870 n         1 EJ5     -0.502400
     20 CAU         3.7660    1.1440   -0.6740 c         1 EJ5      0.717700
     21 OAC         3.6800    2.1280   -1.4300 o         1 EJ5     -0.630500
     22 HAF        -2.5280    1.9300   -1.6610 ha        1 EJ5      0.104500
     23 HAH        -4.7210    1.9020   -0.4350 ha        1 EJ5      0.148500
     24 HAG        -1.8040   -2.1410   -0.4170 ha        1 EJ5      0.104500
     25 HAK        -0.6280   -1.0480   -2.4350 hc        1 EJ5      0.032200
     26 HAKA       -0.6820    0.7540   -2.5600 hc        1 EJ5      0.032200
     27 HAJ         0.3910    0.9720   -0.3210 hc        1 EJ5      0.049200
     28 HAJA        0.3750   -0.8260   -0.1140 hc        1 EJ5      0.049200
     29 HAL         1.8090   -1.0810   -2.1630 hc        1 EJ5      0.055200
     30 HNAA        6.1920   -0.5780    2.6860 hn        1 EJ5      0.412800
     31 HNAB        6.3180    1.0630    2.4210 hn        1 EJ5      0.412800
     32 HAI        -4.0040   -2.1460    0.8040 ha        1 EJ5      0.148500
     33 H13         1.8520    0.7250   -2.3590 hc        1 EJ5      0.055200
     34 H14         2.7550   -2.7960    0.9000 ho        1 EJ5      0.439000
     35 HNAN        5.4200    1.9710    0.2880 hn        1 EJ5      0.331500
@<TRIPOS>BOND
     1    1    2 ar  
     2    1    9 ar  
     3    1   22 1   
     4    2    3 ar  
     5    2   23 1   
     6    3    4 1   
     7    3    7 ar  
     8    4    5 1   
     9    4    6 1   
    10    7    8 ar  
    11    7   32 1   
    12    8    9 ar  
    13    8   24 1   
    14    9   10 1   
    15   10   11 1   
    16   10   25 1   
    17   10   26 1   
    18   11   12 1   
    19   11   27 1   
    20   11   28 1   
    21   12   13 1   
    22   12   29 1   
    23   12   33 1   
    24   13   14 2   
    25   13   20 1   
    26   14   15 1   
    27   14   16 1   
    28   15   34 1   
    29   16   17 2   
    30   17   18 1   
    31   17   19 1   
    32   18   30 1   
    33   18   31 1   
    34   19   20 1   
    35   19   35 1   
    36   20   21 2   
@<TRIPOS>SUBSTRUCTURE
     1 EJ5         1 TEMP              0 ****  ****    0 ROOT
