@<TRIPOS>MOLECULE
EJ5
   36    37     1     0     0
SMALL
bcc


@<TRIPOS>ATOM
      1 CAF        -0.1480    0.0630    0.6950 ca        1 EJ5     -0.148500
      2 CAH         1.2390   -0.0340    0.7130 ca        1 EJ5     -0.067000
      3 CAR         1.8570   -1.0730    1.4220 ca        1 EJ5     -0.146600
      4 CAO         3.3210   -1.1510    1.4250 c         1 EJ5      0.652700
      5 OAD         3.8510   -2.1930    2.1330 oh        1 EJ5     -0.609100
      6 OAB         4.1360   -0.4010    0.8740 o         1 EJ5     -0.558000
      7 CAI         1.0770   -2.0110    2.1080 ca        1 EJ5     -0.067000
      8 CAG        -0.3110   -1.9080    2.0860 ca        1 EJ5     -0.148500
      9 CAQ        -0.9360   -0.8720    1.3810 ca        1 EJ5     -0.031300
     10 CAK        -2.4190   -0.7540    1.3650 c3        1 EJ5     -0.047100
     11 CAJ        -3.0010   -1.1180    0.0120 c3        1 EJ5     -0.070400
     12 CAL        -4.5190   -1.1250    0.0380 c3        1 EJ5     -0.001200
     13 CAT        -5.0820   -2.3370    0.6760 cc        1 EJ5     -0.305400
     14 CAS        -5.4950   -2.3970    1.9980 cd        1 EJ5      0.388700
     15 OAE        -5.3640   -1.2660    2.7660 oh        1 EJ5     -0.478100
     16 NAM        -6.0430   -3.5150    2.6110 nd        1 EJ5     -0.758300
     17 CAP        -6.1440   -4.6380    1.8600 cc        1 EJ5      0.709800
     18 NAA        -6.5780   -5.8270    2.4720 nh        1 EJ5     -0.901800
     19 NAN        -5.7800   -4.6800    0.5070 n         1 EJ5     -0.504400
     20 CAU        -5.2240   -3.5400   -0.1340 c         1 EJ5      0.718700
     21 OAC        -4.9200   -3.6700   -1.3320 o         1 EJ5     -0.625500
     22 HAF        -0.6350    0.8780    0.1390 ha        1 EJ5      0.140000
     23 HAH         1.8620    0.6990    0.1750 ha        1 EJ5      0.154500
     24 HAG        -0.9210   -2.6470    2.6270 ha        1 EJ5      0.140000
     25 HAK        -2.7080    0.3010    1.6220 hc        1 EJ5      0.055700
     26 HAKA       -2.8750   -1.4170    2.1510 hc        1 EJ5      0.055700
     27 HAJ        -2.6520   -0.3740   -0.7510 hc        1 EJ5      0.049700
     28 HAJA       -2.6300   -2.1270   -0.3090 hc        1 EJ5      0.049700
     29 HAL        -4.8910   -0.2140    0.5820 hc        1 EJ5      0.059200
     30 HNAA       -7.0550   -6.4790    1.8930 hn        1 EJ5      0.429300
     31 HNAB        4.8200   -2.1560    2.0730 ho        1 EJ5      0.445000
     32 HAI         1.5690   -2.8270    2.6630 ha        1 EJ5      0.154500
     33 H13        -4.8930   -1.0740   -1.0220 hc        1 EJ5      0.059200
     34 H14        -5.7160   -1.4360    3.6560 ho        1 EJ5      0.443000
     35 HNAN       -5.8390   -5.5270   -0.0150 hn        1 EJ5      0.336500
     36 HAA3       -6.9440   -5.7290    3.3930 hn        1 EJ5      0.429300
@<TRIPOS>BOND
     1    1    2 ar  
     2    1    9 ar  
     3    1   22 1   
     4    2    3 ar  
     5    2   23 1   
     6    3    4 1   
     7    3    7 ar  
     8    4    5 1   
     9    4    6 2   
    10    5   31 1   
    11    7    8 ar  
    12    7   32 1   
    13    8    9 ar  
    14    8   24 1   
    15    9   10 1   
    16   10   11 1   
    17   10   25 1   
    18   10   26 1   
    19   11   12 1   
    20   11   27 1   
    21   11   28 1   
    22   12   13 1   
    23   12   29 1   
    24   12   33 1   
    25   13   14 2   
    26   13   20 1   
    27   14   15 1   
    28   14   16 1   
    29   15   34 1   
    30   16   17 2   
    31   17   18 1   
    32   17   19 1   
    33   18   30 1   
    34   18   36 1   
    35   19   20 1   
    36   19   35 1   
    37   20   21 2   
@<TRIPOS>SUBSTRUCTURE
     1 EJ5         1 TEMP              0 ****  ****    0 ROOT
