@<TRIPOS>MOLECULE
EJZ
   16    16     1     0     0
SMALL
bcc


@<TRIPOS>ATOM
      1 O1         -2.4030    1.1520    0.8310 o         1 EJZ     -0.758300
      2 C1         -1.4790    1.6430    0.1570 c         1 EJZ      0.927800
      3 O4         -1.4150    2.7570   -0.4160 o         1 EJZ     -0.758300
      4 C2         -0.1690    0.7640    0.0420 cc        1 EJZ      0.100400
      5 C3         -0.1320   -0.6190    0.0230 cd        1 EJZ     -0.384300
      6 N3         -1.3620   -1.4400    0.1010 no        1 EJZ      0.359100
      7 O6         -2.1000   -1.4730   -0.8460 o         1 EJZ     -0.209000
      8 O5         -1.5620   -2.0920    1.0890 o         1 EJZ     -0.209000
      9 N1          1.0110    1.4680   -0.0190 n         1 EJZ     -0.429100
     10 C4          2.2670    0.8420   -0.1150 c         1 EJZ      0.795500
     11 O2          3.3240    1.5120   -0.1820 o         1 EJZ     -0.670500
     12 N2          2.3000   -0.5580   -0.1230 n         1 EJZ     -0.588500
     13 C5          1.1370   -1.3530   -0.0710 c         1 EJZ      0.738700
     14 O3          1.2760   -2.5880   -0.1250 o         1 EJZ     -0.633500
     15 HN1         0.9640    2.4660   -0.0910 hn        1 EJZ      0.378500
     16 HN2         3.1900   -1.0000   -0.1840 hn        1 EJZ      0.341500
@<TRIPOS>BOND
     1    1    2 1   
     2    2    3 1   
     3    2    4 1   
     4    4    5 2   
     5    4    9 1   
     6    5    6 1   
     7    5   13 1   
     8    6    7 1   
     9    6    8 1   
    10    9   10 1   
    11    9   15 1   
    12   10   11 2   
    13   10   12 1   
    14   12   13 1   
    15   12   16 1   
    16   13   14 2   
@<TRIPOS>SUBSTRUCTURE
     1 EJZ         1 TEMP              0 ****  ****    0 ROOT
