@<TRIPOS>MOLECULE
EJZ
   16    14     1     0     0
SMALL
bcc


@<TRIPOS>ATOM
      1 O1         -2.4350   -0.4250    1.9420 o         1 EJZ     -0.518000
      2 C1         -1.1760   -0.4250    1.9420 c1        1 EJZ      0.378000
      3 O4         -0.5460   -0.4250    3.0320 os        1 EJZ     -0.468000
      4 C2         -0.4190   -0.4250    0.6320 c2        1 EJZ      0.117000
      5 C3         -0.1080    0.8470   -0.0380 c1        1 EJZ     -0.338000
      6 N3         -0.3340    2.0760    0.6340 n2        1 EJZ      0.523400
      7 O6         -1.3940    2.6670    0.4860 o         1 EJZ     -0.304700
      8 O5          0.6330    2.6000    1.4430 o         1 EJZ     -0.304700
      9 N1         -0.0090   -1.6510    0.0460 n         1 EJZ     -0.273000
     10 C4          0.7190   -1.6500   -1.2160 c2        1 EJZ      0.386000
     11 O2          1.1740   -2.6880   -1.6540 o         1 EJZ     -0.395000
     12 N2          1.0330   -0.3910   -1.8870 n         1 EJZ     -0.368000
     13 C5          0.6280    0.8400   -1.3110 c2        1 EJZ      0.377000
     14 O3          0.9510    1.8900   -1.8310 o         1 EJZ     -0.358000
     15 HN1        -0.2030   -2.4400    0.4590 hn        1 EJZ      0.292000
     16 HN2         1.4860   -0.3970   -2.6790 hn        1 EJZ      0.255000
@<TRIPOS>BOND
     1    1    2 1   
     2    2    4 1   
     3    4    5 1   
     4    4    9 1   
     5    5   13 1   
     6    6    7 2   
     7    6    8 2   
     8    9   10 1   
     9    9   15 1   
    10   10   11 1   
    11   10   12 1   
    12   12   13 1   
    13   12   16 1   
    14   13   14 1   
@<TRIPOS>SUBSTRUCTURE
     1 EJZ         1 TEMP              0 ****  ****    0 ROOT
