@<TRIPOS>MOLECULE
EJZ
   16    16     1     0     0
SMALL
bcc


@<TRIPOS>ATOM
      1 O1          0.2270    0.8090    0.2390 o         1 EJZ     -0.758300
      2 C1          1.0670   -0.0930    0.0650 c         1 EJZ      0.927800
      3 O4          1.3070   -1.1050    0.7640 o         1 EJZ     -0.758300
      4 C2          1.9300    0.0170   -1.2570 cc        1 EJZ      0.100400
      5 C3          2.3190    1.1990   -1.8620 cd        1 EJZ     -0.384300
      6 N3          1.9610    2.5240   -1.3060 no        1 EJZ      0.359100
      7 O6          2.4970    2.8950   -0.2980 o         1 EJZ     -0.209000
      8 O5          1.1820    3.2130   -1.9060 o         1 EJZ     -0.209000
      9 N1          2.2830   -1.1800   -1.8340 n         1 EJZ     -0.429100
     10 C4          3.0420   -1.2620   -3.0150 c         1 EJZ      0.795500
     11 O2          3.3580   -2.3690   -3.5090 o         1 EJZ     -0.670500
     12 N2          3.4240   -0.0630   -3.6310 n         1 EJZ     -0.588500
     13 C5          3.1090    1.2040   -3.1020 c         1 EJZ      0.738700
     14 O3          3.5320    2.2060   -3.7060 o         1 EJZ     -0.633500
     15 HN1         2.0690   -2.0250   -1.3400 hn        1 EJZ      0.378500
     16 HN2         3.9550   -0.1230   -4.4710 hn        1 EJZ      0.341500
@<TRIPOS>BOND
     1    1    2 1   
     2    2    3 1   
     3    2    4 1   
     4    4    5 2   
     5    4    9 1   
     6    5    6 1   
     7    5   13 1   
     8    6    7 1   
     9    6    8 1   
    10    9   10 1   
    11    9   15 1   
    12   10   11 2   
    13   10   12 1   
    14   12   13 1   
    15   12   16 1   
    16   13   14 2   
@<TRIPOS>SUBSTRUCTURE
     1 EJZ         1 TEMP              0 ****  ****    0 ROOT
