@<TRIPOS>MOLECULE
EK0
   29    31     1     0     0
SMALL
bcc


@<TRIPOS>ATOM
      1 Cl         -0.0210    0.0470   -0.1460 cl        1 EK0     -0.098400
      2 C1          1.6790    0.0200   -0.1000 ca        1 EK0      0.018400
      3 C6          2.3380   -0.1250    1.1240 ca        1 EK0     -0.129000
      4 C5          3.7290   -0.1490    1.1570 ca        1 EK0     -0.105000
      5 C4          4.4740   -0.0310   -0.0250 ca        1 EK0     -0.104500
      6 C3          3.8000    0.1190   -1.2470 ca        1 EK0     -0.105000
      7 C2          2.4080    0.1430   -1.2870 ca        1 EK0     -0.129000
      8 C7          5.9260   -0.0640    0.0190 cc        1 EK0      0.361800
      9 C9          6.7580   -0.7910    0.9570 cc        1 EK0     -0.228600
     10 C10         6.4480   -1.6640    2.0940 c3        1 EK0     -0.000100
     11 C11         7.6620   -2.5050    2.4660 c3        1 EK0     -0.077400
     12 C12         8.9340   -1.6800    2.5360 c3        1 EK0     -0.071400
     13 C13         9.2980   -1.0540    1.1970 c3        1 EK0     -0.009100
     14 C8          8.0830   -0.5080    0.5620 cd        1 EK0     -0.110600
     15 N2          7.9910    0.3390   -0.5440 na        1 EK0     -0.000600
     16 N1          6.7310    0.6080   -0.8700 nd        1 EK0     -0.510800
     17 H5          1.7630   -0.2170    2.0580 ha        1 EK0      0.146500
     18 H4          4.2490   -0.2550    2.1220 ha        1 EK0      0.146000
     19 H3          4.3690    0.2180   -2.1830 ha        1 EK0      0.146000
     20 H2          1.8870    0.2600   -2.2490 ha        1 EK0      0.146500
     21 H7          5.5820   -2.3360    1.8490 hc        1 EK0      0.051200
     22 H6          6.1460   -1.0370    2.9780 hc        1 EK0      0.051200
     23 H9          7.4810   -2.9900    3.4600 hc        1 EK0      0.045200
     24 H8          7.7920   -3.3210    1.7080 hc        1 EK0      0.045200
     25 H11         9.7830   -2.3310    2.8730 hc        1 EK0      0.046200
     26 H10         8.8040   -0.8690    3.2990 hc        1 EK0      0.046200
     27 H12        10.0680   -0.2510    1.3520 hc        1 EK0      0.053700
     28 H13         9.7520   -1.8310    0.5240 hc        1 EK0      0.053700
     29 H1          8.7400    0.7450   -1.0540 hn        1 EK0      0.321700
@<TRIPOS>BOND
     1    1    2 1   
     2    2    3 ar  
     3    2    7 ar  
     4    3    4 ar  
     5    3   17 1   
     6    4    5 ar  
     7    4   18 1   
     8    5    6 ar  
     9    5    8 1   
    10    6    7 ar  
    11    6   19 1   
    12    7   20 1   
    13    8    9 1   
    14    8   16 2   
    15    9   10 1   
    16    9   14 2   
    17   10   11 1   
    18   10   21 1   
    19   10   22 1   
    20   11   12 1   
    21   11   23 1   
    22   11   24 1   
    23   12   13 1   
    24   12   25 1   
    25   12   26 1   
    26   13   14 1   
    27   13   27 1   
    28   13   28 1   
    29   14   15 1   
    30   15   16 1   
    31   15   29 1   
@<TRIPOS>SUBSTRUCTURE
     1 EK0         1 TEMP              0 ****  ****    0 ROOT
