@<TRIPOS>MOLECULE
EK0
   29    27     1     0     0
SMALL
bcc


@<TRIPOS>ATOM
      1 CL         -5.9940    1.0190    0.7310 cl        1 EK0     -0.020000
      2 C1         -4.2640    1.0340    0.6480 c2        1 EK0     -0.060000
      3 C6         -3.5170    0.5860    1.7260 c2        1 EK0     -0.129000
      4 C5         -2.1590    0.5700    1.6560 c1        1 EK0     -0.109000
      5 C4         -1.5150    1.0040    0.5030 c1        1 EK0      0.002000
      6 C3         -2.2540    1.4510   -0.5720 c1        1 EK0     -0.098000
      7 C2         -3.6280    1.4670   -0.5020 c1        1 EK0     -0.129000
      8 C7          0.0090    1.0360    0.4510 c2        1 EK0     -0.078000
      9 C9          0.8120    0.0610   -0.0510 c1        1 EK0     -0.155000
     10 C10         0.5650   -1.4430   -0.4950 c2        1 EK0     -0.084000
     11 C11         1.6940   -2.2560   -0.6190 c3        1 EK0     -0.156000
     12 C12         2.8990   -1.6380   -1.1640 c3        1 EK0     -0.150000
     13 C13         3.3390   -0.4370   -0.5310 c3        1 EK0     -0.095000
     14 C8          2.1870    0.5390    0.0080 c2        1 EK0     -0.080000
     15 N2          2.1700    1.7770    0.5410 n2        1 EK0     -0.147000
     16 N1          0.8180    2.1140    0.8280 n2        1 EK0     -0.074000
     17 H5         -3.9620    0.2830    2.5300 ha        1 EK0      0.146000
     18 H4         -1.6370    0.2540    2.4150 ha        1 EK0      0.141000
     19 H3         -1.8150    1.7480   -1.3590 ha        1 EK0      0.149000
     20 H2         -4.1370    1.7730   -1.2370 ha        1 EK0      0.147000
     21 H7         -0.0510   -1.8650    0.1740 ha        1 EK0      0.091000
     22 H6          0.1260   -1.4290   -1.3310 ha        1 EK0      0.091000
     23 H9          1.9150   -2.6070    0.2830 hc        1 EK0      0.084000
     24 H8          1.4550   -3.0260   -1.1990 hc        1 EK0      0.084000
     25 H11         3.6210   -2.2910   -1.0720 hc        1 EK0      0.086000
     26 H10         2.6900   -1.3970   -2.1420 hc        1 EK0      0.086000
     27 H12         3.8780   -0.7090    0.2550 hc        1 EK0      0.093000
     28 H13         3.8310    0.0480   -1.1710 hc        1 EK0      0.093000
     29 H1          2.9260    2.3290    0.6960 DU        1 EK0      0.272000
@<TRIPOS>BOND
     1    1    2 1   
     2    2    3 1   
     3    2    7 1   
     4    3    4 1   
     5    3   17 1   
     6    4   18 1   
     7    5    6 1   
     8    5    8 1   
     9    6   19 1   
    10    7   20 1   
    11    8    9 1   
    12    8   16 1   
    13    9   14 1   
    14   10   11 1   
    15   10   21 1   
    16   10   22 1   
    17   11   12 1   
    18   11   23 1   
    19   11   24 1   
    20   12   13 1   
    21   12   25 1   
    22   12   26 1   
    23   13   14 1   
    24   13   27 1   
    25   13   28 1   
    26   14   15 1   
    27   15   16 1   
@<TRIPOS>SUBSTRUCTURE
     1 EK0         1 TEMP              0 ****  ****    0 ROOT
