@<TRIPOS>MOLECULE
EK0
   29    31     1     0     0
SMALL
bcc


@<TRIPOS>ATOM
      1 CL         -5.0340    0.3790    0.0490 cl        1 EK0     -0.098400
      2 C1         -3.3680    0.0430    0.0120 ca        1 EK0      0.018400
      3 C6         -2.4850    0.9690   -0.5510 ca        1 EK0     -0.129000
      4 C5         -1.1210    0.6910   -0.5780 ca        1 EK0     -0.105000
      5 C4         -0.6260   -0.5080   -0.0450 ca        1 EK0     -0.104500
      6 C3         -1.5240   -1.4310    0.5130 ca        1 EK0     -0.105000
      7 C2         -2.8890   -1.1590    0.5430 ca        1 EK0     -0.129000
      8 C7          0.8000   -0.7850   -0.0710 cc        1 EK0      0.361800
      9 C9          1.8820    0.1750    0.0060 cc        1 EK0     -0.228600
     10 C10         1.9080    1.6380    0.1210 c3        1 EK0     -0.000100
     11 C11         3.2770    2.1090    0.5950 c3        1 EK0     -0.077400
     12 C12         4.4100    1.4400   -0.1590 c3        1 EK0     -0.071400
     13 C13         4.4350   -0.0690    0.0420 c3        1 EK0     -0.009100
     14 C8          3.0600   -0.5990   -0.0420 cd        1 EK0     -0.110600
     15 N2          2.6510   -1.9300   -0.1420 na        1 EK0     -0.000600
     16 N1          1.3280   -2.0520   -0.1640 nd        1 EK0     -0.510800
     17 H5         -2.8630    1.9130   -0.9730 ha        1 EK0      0.146500
     18 H4         -0.4260    1.4170   -1.0280 ha        1 EK0      0.146000
     19 H3         -1.1520   -2.3790    0.9300 ha        1 EK0      0.146000
     20 H2         -3.5860   -1.8890    0.9830 ha        1 EK0      0.146500
     21 H7          1.6850    2.0970   -0.8820 hc        1 EK0      0.051200
     22 H6          1.1170    1.9910    0.8340 hc        1 EK0      0.051200
     23 H9          3.3480    3.2200    0.4610 hc        1 EK0      0.045200
     24 H8          3.3830    1.8930    1.6900 hc        1 EK0      0.045200
     25 H11         4.3070    1.6640   -1.2530 hc        1 EK0      0.046200
     26 H10         5.3890    1.8650    0.1830 hc        1 EK0      0.046200
     27 H12         5.0980   -0.5420   -0.7300 hc        1 EK0      0.053700
     28 H13         4.8660   -0.3110    1.0520 hc        1 EK0      0.053700
     29 H1          3.2310   -2.7320   -0.2190 hn        1 EK0      0.321700
@<TRIPOS>BOND
     1    1    2 1   
     2    2    3 ar  
     3    2    7 ar  
     4    3    4 ar  
     5    3   17 1   
     6    4    5 ar  
     7    4   18 1   
     8    5    6 ar  
     9    5    8 1   
    10    6    7 ar  
    11    6   19 1   
    12    7   20 1   
    13    8    9 1   
    14    8   16 2   
    15    9   10 1   
    16    9   14 2   
    17   10   11 1   
    18   10   21 1   
    19   10   22 1   
    20   11   12 1   
    21   11   23 1   
    22   11   24 1   
    23   12   13 1   
    24   12   25 1   
    25   12   26 1   
    26   13   14 1   
    27   13   27 1   
    28   13   28 1   
    29   14   15 1   
    30   15   16 1   
    31   15   29 1   
@<TRIPOS>SUBSTRUCTURE
     1 EK0         1 TEMP              0 ****  ****    0 ROOT
