@<TRIPOS>MOLECULE
EK0
   29    31     1     0     0
SMALL
bcc


@<TRIPOS>ATOM
      1 CL         -0.0190    0.0710   -0.1380 cl        1 EK0     -0.098400
      2 C1          1.6810    0.0380   -0.0930 ca        1 EK0      0.018400
      3 C6          2.3400   -0.1170    1.1300 ca        1 EK0     -0.129000
      4 C5          3.7310   -0.1450    1.1630 ca        1 EK0     -0.105000
      5 C4          4.4760   -0.0200   -0.0190 ca        1 EK0     -0.104500
      6 C3          3.8010    0.1400   -1.2390 ca        1 EK0     -0.105000
      7 C2          2.4090    0.1690   -1.2790 ca        1 EK0     -0.129000
      8 C7          5.9280   -0.0580    0.0240 cc        1 EK0      0.361800
      9 C9          6.7580   -0.7940    0.9560 cc        1 EK0     -0.228600
     10 C10         6.4460   -1.6750    2.0870 c3        1 EK0     -0.000100
     11 C11         7.6580   -2.5210    2.4520 c3        1 EK0     -0.077400
     12 C12         8.9320   -1.7010    2.5280 c3        1 EK0     -0.071400
     13 C13         9.2980   -1.0650    1.1930 c3        1 EK0     -0.009100
     14 C8          8.0840   -0.5120    0.5630 cd        1 EK0     -0.110600
     15 N2          7.9940    0.3430   -0.5370 na        1 EK0     -0.000600
     16 N1          6.7350    0.6190   -0.8600 nd        1 EK0     -0.510800
     17 H5          1.7650   -0.2150    2.0630 ha        1 EK0      0.146500
     18 H4          4.2510   -0.2600    2.1260 ha        1 EK0      0.146000
     19 H3          4.3710    0.2450   -2.1750 ha        1 EK0      0.146000
     20 H2          1.8890    0.2940   -2.2400 ha        1 EK0      0.146500
     21 H7          5.5780   -2.3420    1.8370 hc        1 EK0      0.051200
     22 H6          6.1460   -1.0530    2.9760 hc        1 EK0      0.051200
     23 H9          7.4750   -3.0130    3.4420 hc        1 EK0      0.045200
     24 H8          7.7860   -3.3330    1.6880 hc        1 EK0      0.045200
     25 H11         9.7790   -2.3560    2.8590 hc        1 EK0      0.046200
     26 H10         8.8050   -0.8950    3.2970 hc        1 EK0      0.046200
     27 H12        10.0690   -0.2660    1.3550 hc        1 EK0      0.053700
     28 H13         9.7490   -1.8390    0.5140 hc        1 EK0      0.053700
     29 H1          8.7430    0.7520   -1.0430 hn        1 EK0      0.321700
@<TRIPOS>BOND
     1    1    2 1   
     2    2    3 ar  
     3    2    7 ar  
     4    3    4 ar  
     5    3   17 1   
     6    4    5 ar  
     7    4   18 1   
     8    5    6 ar  
     9    5    8 1   
    10    6    7 ar  
    11    6   19 1   
    12    7   20 1   
    13    8    9 1   
    14    8   16 2   
    15    9   10 1   
    16    9   14 2   
    17   10   11 1   
    18   10   21 1   
    19   10   22 1   
    20   11   12 1   
    21   11   23 1   
    22   11   24 1   
    23   12   13 1   
    24   12   25 1   
    25   12   26 1   
    26   13   14 1   
    27   13   27 1   
    28   13   28 1   
    29   14   15 1   
    30   15   16 1   
    31   15   29 1   
@<TRIPOS>SUBSTRUCTURE
     1 EK0         1 TEMP              0 ****  ****    0 ROOT
