@<TRIPOS>MOLECULE
EK1
   68    71     1     0     0
SMALL
bcc


@<TRIPOS>ATOM
      1 N81         8.5750   -1.4800   -0.1210 nb        1 EK1     -0.689000
      2 C82         7.6930   -0.5410    0.3560 cp        1 EK1      0.704500
      3 N83         8.0060    0.4330    1.2750 nb        1 EK1     -0.689000
      4 C84         9.2730    0.4490    1.7290 ca        1 EK1      0.429200
      5 C85        10.2470   -0.4720    1.3030 ca        1 EK1     -0.374600
      6 C86         9.8310   -1.4290    0.3600 ca        1 EK1      0.429200
      7 C99         5.2290   -0.2880    0.6990 ca        1 EK1     -0.097500
      8 C98         6.2990   -0.5800   -0.1560 cp        1 EK1     -0.135500
      9 C19         6.0510   -0.9150   -1.4940 ca        1 EK1     -0.097500
     10 C17         4.7430   -0.9490   -1.9710 ca        1 EK1     -0.106000
     11 C87         3.6750   -0.6430   -1.1200 ca        1 EK1     -0.113600
     12 C22         3.9210   -0.3200    0.2170 ca        1 EK1     -0.106000
     13 C97         2.2850   -0.7060   -1.6700 c         1 EK1      0.659700
     14 O99         1.9560   -1.6060   -2.4710 o         1 EK1     -0.611100
     15 N99         1.4280    0.3150   -1.3200 n         1 EK1     -0.543900
     16 C15         0.0150    0.2720   -1.6050 c3        1 EK1      0.144300
     17 C8         -0.8580    0.2400   -0.3840 ca        1 EK1     -0.144300
     18 C9         -0.8410    1.2920    0.5510 ca        1 EK1      0.091100
     19 O3          0.0870    2.3030    0.3320 os        1 EK1     -0.360900
     20 C12        -0.2930    3.5880    0.8400 c3        1 EK1      0.133400
     21 C13         0.5620    4.6070    0.1060 c3        1 EK1     -0.089400
     22 C14         0.2770    5.9970    0.6090 c3        1 EK1     -0.092100
     23 C10        -1.6880    1.2730    1.6660 ca        1 EK1     -0.191000
     24 C11        -2.5570    0.2020    1.8480 ca        1 EK1     -0.094000
     25 C6         -2.5890   -0.8590    0.9320 ca        1 EK1     -0.062300
     26 C5         -3.5250   -1.9950    1.1520 c3        1 EK1     -0.037100
     27 C2         -4.9840   -1.6060    0.9520 c3        1 EK1     -0.180700
     28 C3         -5.3340   -1.5530   -0.5280 c3        1 EK1     -0.030100
     29 C4         -6.3470   -0.5090   -0.8480 ca        1 EK1     -0.048300
     30 C51        -6.0200    0.5990   -1.6360 ca        1 EK1     -0.131000
     31 C52        -6.9870    1.5560   -1.9450 ca        1 EK1     -0.146500
     32 C53        -8.2880    1.4140   -1.4700 ca        1 EK1     -0.157000
     33 C54        -8.6210    0.3110   -0.6810 ca        1 EK1     -0.146500
     34 C55        -7.6600   -0.6470   -0.3710 ca        1 EK1     -0.131000
     35 C7         -1.7310   -0.8290   -0.1730 ca        1 EK1     -0.101000
     36 C1         -5.8730   -2.6030    1.7470 c         1 EK1      0.912600
     37 O1         -6.8080   -3.2100    1.1500 o         1 EK1     -0.839800
     38 O2         -5.6150   -2.7410    2.9760 o         1 EK1     -0.839800
     39 H1          9.5100    1.2380    2.4660 h4        1 EK1      0.026100
     40 H2         11.2730   -0.4460    1.6850 ha        1 EK1      0.152000
     41 H3         10.5270   -2.1930   -0.0290 h4        1 EK1      0.026100
     42 H5          6.8820   -1.1580   -2.1730 ha        1 EK1      0.148000
     43 H6          4.5350   -1.2290   -3.0160 ha        1 EK1      0.152000
     44 H7          3.0880   -0.1030    0.9040 ha        1 EK1      0.152000
     45 H8         -0.2350    1.2090   -2.1870 h1        1 EK1      0.066200
     46 H9         -1.3850    3.7730    0.6620 h1        1 EK1      0.039700
     47 H10         1.6450    4.3550    0.2520 hc        1 EK1      0.051700
     48 H11         0.5020    6.0780    1.7000 hc        1 EK1      0.033367
     49 H12         0.9070    6.7400    0.0630 hc        1 EK1      0.033367
     50 H13        -0.7970    6.2620    0.4520 hc        1 EK1      0.033367
     51 H14        -1.6720    2.0960    2.3930 ha        1 EK1      0.127000
     52 H15        -3.2340    0.1790    2.7170 ha        1 EK1      0.154000
     53 H16        -3.2680   -2.8470    0.4680 hc        1 EK1      0.063700
     54 H17        -3.4120   -2.3630    2.2120 hc        1 EK1      0.063700
     55 H18        -5.1560   -0.5980    1.4170 hc        1 EK1      0.043700
     56 H19        -4.4040   -1.3670   -1.1310 hc        1 EK1      0.047700
     57 H20        -5.7490   -2.5570   -0.8250 hc        1 EK1      0.047700
     58 H21        -4.9940    0.7190   -2.0120 ha        1 EK1      0.159000
     59 H22        -6.7190    2.4230   -2.5650 ha        1 EK1      0.112000
     60 H23        -9.0490    2.1680   -1.7130 ha        1 EK1      0.107000
     61 H24        -9.6470    0.1980   -0.3010 ha        1 EK1      0.112000
     62 H25        -7.8970   -1.5300    0.2580 ha        1 EK1      0.159000
     63 H26        -1.7520   -1.6610   -0.8950 ha        1 EK1      0.141000
     64 H28         1.7060    0.9490   -0.6050 hn        1 EK1      0.319500
     65 H29        -0.2020   -0.6220   -2.2580 h1        1 EK1      0.066200
     66 H30        -0.0860    3.6120    1.9430 h1        1 EK1      0.039700
     67 H31         0.3520    4.5410   -0.9940 hc        1 EK1      0.051700
     68 H4          5.4100   -0.0330    1.7540 ha        1 EK1      0.148000
@<TRIPOS>BOND
     1    1    2 ar  
     2    1    6 ar  
     3    2    3 ar  
     4    2    8 1   
     5    3    4 ar  
     6    4    5 ar  
     7    4   39 1   
     8    5    6 ar  
     9    5   40 1   
    10    6   41 1   
    11    7    8 ar  
    12    7   12 ar  
    13    7   68 1   
    14    8    9 ar  
    15    9   10 ar  
    16    9   42 1   
    17   10   11 ar  
    18   10   43 1   
    19   11   12 ar  
    20   11   13 1   
    21   12   44 1   
    22   13   14 2   
    23   13   15 1   
    24   15   16 1   
    25   15   64 1   
    26   16   17 1   
    27   16   45 1   
    28   16   65 1   
    29   17   18 ar  
    30   17   35 ar  
    31   18   19 1   
    32   18   23 ar  
    33   19   20 1   
    34   20   21 1   
    35   20   46 1   
    36   20   66 1   
    37   21   22 1   
    38   21   47 1   
    39   21   67 1   
    40   22   48 1   
    41   22   49 1   
    42   22   50 1   
    43   23   24 ar  
    44   23   51 1   
    45   24   25 ar  
    46   24   52 1   
    47   25   26 1   
    48   25   35 ar  
    49   26   27 1   
    50   26   53 1   
    51   26   54 1   
    52   27   28 1   
    53   27   36 1   
    54   27   55 1   
    55   28   29 1   
    56   28   56 1   
    57   28   57 1   
    58   29   30 ar  
    59   29   34 ar  
    60   30   31 ar  
    61   30   58 1   
    62   31   32 ar  
    63   31   59 1   
    64   32   33 ar  
    65   32   60 1   
    66   33   34 ar  
    67   33   61 1   
    68   34   62 1   
    69   35   63 1   
    70   36   37 1   
    71   36   38 1   
@<TRIPOS>SUBSTRUCTURE
     1 EK1         1 TEMP              0 ****  ****    0 ROOT
