@<TRIPOS>MOLECULE
EK1
   69    72     1     0     0
SMALL
bcc


@<TRIPOS>ATOM
      1 N81        -0.0850    0.7280   -0.2310 nb        1 EK1     -0.680500
      2 C82         0.9540   -0.1540   -0.0740 cp        1 EK1      0.664500
      3 N83         1.2700   -0.8120    1.0880 nb        1 EK1     -0.680500
      4 C84         0.4820   -0.5600    2.1510 ca        1 EK1      0.432700
      5 C85        -0.6080    0.3290    2.0950 ca        1 EK1     -0.341600
      6 C86        -0.8460    0.9560    0.8570 ca        1 EK1      0.432700
      7 C99         3.1930   -0.5900   -1.1070 ca        1 EK1     -0.094500
      8 C98         1.8090   -0.4190   -1.2630 cp        1 EK1     -0.062500
      9 C19         1.2360   -0.5000   -2.5370 ca        1 EK1     -0.094500
     10 C17         2.0390   -0.7450   -3.6480 ca        1 EK1     -0.080500
     11 C87         3.4260   -0.9020   -3.4940 ca        1 EK1     -0.193600
     12 C22         3.9980   -0.8300   -2.2160 ca        1 EK1     -0.080500
     13 C97         4.2090   -1.1600   -4.7090 c         1 EK1      0.559700
     14 O99         3.7850   -1.5930   -5.7750 o         1 EK1     -0.434100
     15 N99         5.6710   -0.8360   -4.6360 n4        1 EK1     -0.676800
     16 C15         6.3460   -0.7140   -5.9810 c3        1 EK1      0.211100
     17 C8          7.7430   -0.2550   -5.7960 ca        1 EK1     -0.235300
     18 C9          8.6780   -1.0700   -5.1300 ca        1 EK1      0.115100
     19 O3          8.1710   -2.2310   -4.5610 os        1 EK1     -0.412900
     20 C12         9.1200   -3.3030   -4.4160 c3        1 EK1      0.134400
     21 C13         8.3060   -4.5720   -4.2350 c3        1 EK1     -0.087400
     22 C14         9.2180   -5.7520   -4.0210 c3        1 EK1     -0.096100
     23 C10        10.0140   -0.6740   -5.0150 ca        1 EK1     -0.185000
     24 C11        10.4180    0.5380   -5.5660 ca        1 EK1     -0.030000
     25 C6          9.4940    1.3720   -6.2250 ca        1 EK1     -0.051300
     26 C5          9.9560    2.6560   -6.8200 c3        1 EK1     -0.030100
     27 C2         10.6850    2.4360   -8.1400 c3        1 EK1     -0.187700
     28 C3         11.0190    3.7760   -8.7820 c3        1 EK1     -0.020100
     29 C4         10.8790    3.7700  -10.2650 ca        1 EK1     -0.069300
     30 C51        11.3720    2.6990  -11.0240 ca        1 EK1     -0.132500
     31 C52        11.2580    2.7170  -12.4130 ca        1 EK1     -0.141000
     32 C53        10.6550    3.7970  -13.0580 ca        1 EK1     -0.148000
     33 C54        10.1640    4.8640  -12.3080 ca        1 EK1     -0.141000
     34 C55        10.2750    4.8510  -10.9180 ca        1 EK1     -0.132500
     35 C7          8.1640    0.9710   -6.3290 ca        1 EK1     -0.087000
     36 C1         11.9890    1.6290   -7.8910 c         1 EK1      0.906600
     37 O1         12.7000    1.9370   -6.8880 o         1 EK1     -0.832800
     38 O2         12.2550    0.6870   -8.6850 o         1 EK1     -0.832800
     39 H1          0.7410   -1.0990    3.0820 h4        1 EK1      0.041100
     40 H2         -1.2380    0.5250    2.9700 ha        1 EK1      0.167000
     41 H3         -1.6780    1.6710    0.7220 h4        1 EK1      0.041100
     42 H5          0.1490   -0.3710   -2.6730 ha        1 EK1      0.174000
     43 H6          1.5880   -0.8180   -4.6530 ha        1 EK1      0.152000
     44 H7          5.0770   -0.9800   -2.0540 ha        1 EK1      0.152000
     45 H8          5.7440    0.0040   -6.6060 hx        1 EK1      0.105200
     46 H9          9.7720   -3.3630   -5.3260 h1        1 EK1      0.059700
     47 H10         7.6170   -4.4530   -3.3590 hc        1 EK1      0.043700
     48 H11         8.6160   -6.6830   -3.8930 hc        1 EK1      0.044367
     49 H12         9.8980   -5.8890   -4.8970 hc        1 EK1      0.044367
     50 H13         9.8460   -5.6070   -3.1090 hc        1 EK1      0.044367
     51 H14        10.7500   -1.3190   -4.5130 ha        1 EK1      0.151000
     52 H15        11.4880    0.8520   -5.5350 ha        1 EK1      0.231000
     53 H16        10.6730    3.1560   -6.1110 hc        1 EK1      0.050700
     54 H17         9.0780    3.3380   -6.9740 hc        1 EK1      0.050700
     55 H18        10.0320    1.8370   -8.8290 hc        1 EK1      0.049700
     56 H19        12.0810    4.0450   -8.5200 hc        1 EK1      0.047200
     57 H20        10.3640    4.5830   -8.3540 hc        1 EK1      0.047200
     58 H21        11.8480    1.8420  -10.5040 ha        1 EK1      0.157500
     59 H22        11.6500    1.8750  -13.0010 ha        1 EK1      0.120000
     60 H23        10.5700    3.8090  -14.1530 ha        1 EK1      0.116000
     61 H24         9.6910    5.7190  -12.8110 ha        1 EK1      0.120000
     62 H25         9.8890    5.6980  -10.3320 ha        1 EK1      0.157500
     63 H26         7.4410    1.6090   -6.8620 ha        1 EK1      0.135000
     64 H28         6.1550   -1.5830   -4.1120 hn        1 EK1      0.466800
     65 H29         6.3130   -1.7370   -6.4560 hx        1 EK1      0.105200
     66 H30         9.7490   -3.0920   -3.5110 h1        1 EK1      0.059700
     67 H31         7.6680   -4.7370   -5.1430 hc        1 EK1      0.043700
     68 H992        5.7990    0.0410   -4.1190 hn        1 EK1      0.466800
     69 H4          3.6510   -0.5400   -0.1040 ha        1 EK1      0.174000
@<TRIPOS>BOND
     1    1    2 ar  
     2    1    6 ar  
     3    2    3 ar  
     4    2    8 1   
     5    3    4 ar  
     6    4    5 ar  
     7    4   39 1   
     8    5    6 ar  
     9    5   40 1   
    10    6   41 1   
    11    7    8 ar  
    12    7   12 ar  
    13    7   69 1   
    14    8    9 ar  
    15    9   10 ar  
    16    9   42 1   
    17   10   11 ar  
    18   10   43 1   
    19   11   12 ar  
    20   11   13 1   
    21   12   44 1   
    22   13   14 2   
    23   13   15 1   
    24   15   16 1   
    25   15   64 1   
    26   15   68 1   
    27   16   17 1   
    28   16   45 1   
    29   16   65 1   
    30   17   18 ar  
    31   17   35 ar  
    32   18   19 1   
    33   18   23 ar  
    34   19   20 1   
    35   20   21 1   
    36   20   46 1   
    37   20   66 1   
    38   21   22 1   
    39   21   47 1   
    40   21   67 1   
    41   22   48 1   
    42   22   49 1   
    43   22   50 1   
    44   23   24 ar  
    45   23   51 1   
    46   24   25 ar  
    47   24   52 1   
    48   25   26 1   
    49   25   35 ar  
    50   26   27 1   
    51   26   53 1   
    52   26   54 1   
    53   27   28 1   
    54   27   36 1   
    55   27   55 1   
    56   28   29 1   
    57   28   56 1   
    58   28   57 1   
    59   29   30 ar  
    60   29   34 ar  
    61   30   31 ar  
    62   30   58 1   
    63   31   32 ar  
    64   31   59 1   
    65   32   33 ar  
    66   32   60 1   
    67   33   34 ar  
    68   33   61 1   
    69   34   62 1   
    70   35   63 1   
    71   36   37 1   
    72   36   38 1   
@<TRIPOS>SUBSTRUCTURE
     1 EK1         1 TEMP              0 ****  ****    0 ROOT
