@<TRIPOS>MOLECULE
EK1
   69    72     1     0     0
SMALL
bcc


@<TRIPOS>ATOM
      1 N81        -0.3060   -0.5610   -0.0520 nb        1 EK1     -0.680500
      2 C82         0.9600   -0.0320   -0.0680 cp        1 EK1      0.664500
      3 N83         1.5160    0.7300    0.9290 nb        1 EK1     -0.680500
      4 C84         0.7390    0.9710    2.0020 ca        1 EK1      0.432700
      5 C85        -0.5730    0.4730    2.1160 ca        1 EK1     -0.341600
      6 C86        -1.0490   -0.3010    1.0410 ca        1 EK1      0.432700
      7 C99         3.1750   -0.5420   -1.1170 ca        1 EK1     -0.094500
      8 C98         1.8000   -0.3060   -1.2660 cp        1 EK1     -0.062500
      9 C19         1.2210   -0.3300   -2.5400 ca        1 EK1     -0.094500
     10 C17         2.0110   -0.5810   -3.6590 ca        1 EK1     -0.080500
     11 C87         3.3900   -0.8020   -3.5130 ca        1 EK1     -0.193600
     12 C22         3.9670   -0.7890   -2.2340 ca        1 EK1     -0.080500
     13 C97         4.1600   -1.0590   -4.7360 c         1 EK1      0.559700
     14 O99         3.7170   -1.4440   -5.8130 o         1 EK1     -0.433100
     15 N99         5.6350   -0.7990   -4.6590 n4        1 EK1     -0.676800
     16 C15         6.3110   -0.6620   -6.0010 c3        1 EK1      0.211100
     17 C8          7.7270   -0.2720   -5.8080 ca        1 EK1     -0.235300
     18 C9          8.6270   -1.1510   -5.1740 ca        1 EK1      0.115100
     19 O3          8.0700   -2.3070   -4.6440 os        1 EK1     -0.412900
     20 C12         8.9710   -3.4250   -4.5420 c3        1 EK1      0.134400
     21 C13         8.1010   -4.6620   -4.4040 c3        1 EK1     -0.087400
     22 C14         8.9600   -5.8880   -4.2380 c3        1 EK1     -0.096100
     23 C10         9.9800   -0.8190   -5.0530 ca        1 EK1     -0.185000
     24 C11        10.4360    0.3920   -5.5650 ca        1 EK1     -0.030000
     25 C6          9.5480    1.2890   -6.1890 ca        1 EK1     -0.051300
     26 C5         10.0650    2.5710   -6.7430 c3        1 EK1     -0.030100
     27 C2         10.7750    2.3640   -8.0750 c3        1 EK1     -0.187700
     28 C3         11.1690    3.7090   -8.6720 c3        1 EK1     -0.020100
     29 C4         11.0200    3.7620  -10.1530 ca        1 EK1     -0.069300
     30 C51        11.4560    2.6970  -10.9540 ca        1 EK1     -0.132500
     31 C52        11.3350    2.7700  -12.3400 ca        1 EK1     -0.141000
     32 C53        10.7810    3.9010  -12.9410 ca        1 EK1     -0.148000
     33 C54        10.3460    4.9620  -12.1500 ca        1 EK1     -0.141000
     34 C55        10.4650    4.8940  -10.7620 ca        1 EK1     -0.132500
     35 C7          8.2000    0.9520   -6.3000 ca        1 EK1     -0.087000
     36 C1         12.0400    1.4870   -7.8650 c         1 EK1      0.906600
     37 O1         12.7710    1.7260   -6.8580 o         1 EK1     -0.832800
     38 O2         12.2560    0.5620   -8.6940 o         1 EK1     -0.832800
     39 H1          1.1930    1.5900    2.7980 h4        1 EK1      0.041100
     40 H2         -1.1920    0.6770    2.9980 ha        1 EK1      0.167000
     41 H3         -2.0670   -0.7350    1.0460 h4        1 EK1      0.041100
     42 H5          0.1390   -0.1560   -2.6690 ha        1 EK1      0.174000
     43 H6          1.5560   -0.6100   -4.6640 ha        1 EK1      0.152000
     44 H7          5.0380   -0.9890   -2.0790 ha        1 EK1      0.152000
     45 H8          5.7390    0.1020   -6.5990 hx        1 EK1      0.104700
     46 H9          9.6110   -3.2750   -3.6330 h1        1 EK1      0.059700
     47 H10         7.4540   -4.7650   -5.3140 hc        1 EK1      0.043700
     48 H11         9.5960   -5.8060   -3.3230 hc        1 EK1      0.044367
     49 H12         9.6310   -6.0240   -5.1210 hc        1 EK1      0.044367
     50 H13         8.3170   -6.7960   -4.1410 hc        1 EK1      0.044367
     51 H14        10.6880   -1.5130   -4.5770 ha        1 EK1      0.151000
     52 H15        11.5190    0.6570   -5.5290 ha        1 EK1      0.231000
     53 H16         9.2180    3.2970   -6.8660 hc        1 EK1      0.050200
     54 H17        10.8090    3.0110   -6.0230 hc        1 EK1      0.050200
     55 H18        10.0890    1.8220   -8.7800 hc        1 EK1      0.049700
     56 H19        10.5560    4.5300   -8.2100 hc        1 EK1      0.047200
     57 H20        12.2440    3.9170   -8.4090 hc        1 EK1      0.047200
     58 H21        11.8930    1.8000  -10.4680 ha        1 EK1      0.157500
     59 H22        11.6820    1.9320  -12.9610 ha        1 EK1      0.120000
     60 H23        10.6900    3.9550  -14.0350 ha        1 EK1      0.116000
     61 H24         9.9120    5.8560  -12.6190 ha        1 EK1      0.120000
     62 H25        10.1240    5.7370  -10.1440 ha        1 EK1      0.157500
     63 H26         7.5050    1.6400   -6.8070 ha        1 EK1      0.135000
     64 H28         5.8000    0.0550   -4.1140 hn        1 EK1      0.466800
     65 H29         6.2310   -1.6660   -6.5100 hx        1 EK1      0.104700
     66 H30         9.6170   -3.4810   -5.4570 h1        1 EK1      0.059700
     67 H31         7.4210   -4.5440   -3.5210 hc        1 EK1      0.043700
     68 H992        6.0880   -1.5820   -4.1610 hn        1 EK1      0.466800
     69 H4          3.6370   -0.5330   -0.1160 ha        1 EK1      0.174000
@<TRIPOS>BOND
     1    1    2 ar  
     2    1    6 ar  
     3    2    3 ar  
     4    2    8 1   
     5    3    4 ar  
     6    4    5 ar  
     7    4   39 1   
     8    5    6 ar  
     9    5   40 1   
    10    6   41 1   
    11    7    8 ar  
    12    7   12 ar  
    13    7   69 1   
    14    8    9 ar  
    15    9   10 ar  
    16    9   42 1   
    17   10   11 ar  
    18   10   43 1   
    19   11   12 ar  
    20   11   13 1   
    21   12   44 1   
    22   13   14 2   
    23   13   15 1   
    24   15   16 1   
    25   15   64 1   
    26   15   68 1   
    27   16   17 1   
    28   16   45 1   
    29   16   65 1   
    30   17   18 ar  
    31   17   35 ar  
    32   18   19 1   
    33   18   23 ar  
    34   19   20 1   
    35   20   21 1   
    36   20   46 1   
    37   20   66 1   
    38   21   22 1   
    39   21   47 1   
    40   21   67 1   
    41   22   48 1   
    42   22   49 1   
    43   22   50 1   
    44   23   24 ar  
    45   23   51 1   
    46   24   25 ar  
    47   24   52 1   
    48   25   26 1   
    49   25   35 ar  
    50   26   27 1   
    51   26   53 1   
    52   26   54 1   
    53   27   28 1   
    54   27   36 1   
    55   27   55 1   
    56   28   29 1   
    57   28   56 1   
    58   28   57 1   
    59   29   30 ar  
    60   29   34 ar  
    61   30   31 ar  
    62   30   58 1   
    63   31   32 ar  
    64   31   59 1   
    65   32   33 ar  
    66   32   60 1   
    67   33   34 ar  
    68   33   61 1   
    69   34   62 1   
    70   35   63 1   
    71   36   37 1   
    72   36   38 1   
@<TRIPOS>SUBSTRUCTURE
     1 EK1         1 TEMP              0 ****  ****    0 ROOT
