@<TRIPOS>MOLECULE
EK1
   68    61     1     0     0
SMALL
bcc


@<TRIPOS>ATOM
      1 N81        -6.9230    2.4380    5.1070 n1        1 EK1     -0.161000
      2 C82        -6.2750    2.9820    4.0300 c1        1 EK1      0.071000
      3 N83        -6.1090    4.3240    3.9450 n1        1 EK1     -0.164000
      4 C84        -6.5840    5.1300    4.9260 c1        1 EK1     -0.146500
      5 C85        -7.2250    4.5940    5.9910 c1        1 EK1     -0.146500
      6 C86        -7.3940    3.2330    6.0790 c1        1 EK1     -0.035000
      7 C99        -6.3300    1.6850    1.8220 c1        1 EK1     -0.100000
      8 C98        -5.6190    2.0380    2.9480 c2        1 EK1     -0.028000
      9 C19        -4.3420    1.5630    3.1320 c2        1 EK1     -0.094000
     10 C17        -3.7670    0.7280    2.1830 c1        1 EK1     -0.117000
     11 C87        -4.4760    0.3760    1.0590 c1        1 EK1     -0.094000
     12 C22        -5.7590    0.8530    0.8750 c1        1 EK1     -0.097000
     13 C97        -3.7850   -0.4550   -0.0670 c2        1 EK1      0.334000
     14 O99        -4.4190   -0.7710   -1.0750 o         1 EK1     -0.377000
     15 N99        -2.4140   -0.8830    0.0900 n         1 EK1     -0.357000
     16 C15        -1.7560   -1.5280   -0.9630 c3        1 EK1      0.024000
     17 C8         -0.2210   -1.5380   -0.6930 c2        1 EK1     -0.158000
     18 C9          0.4140   -2.7250   -0.3950 c1        1 EK1      0.074000
     19 O3         -0.3540   -3.9580   -0.3060 o         1 EK1     -0.224000
     20 C12         0.3580   -5.1060   -0.7190 c3        1 EK1     -0.019000
     21 C13        -0.6210   -6.2920   -0.8890 c3        1 EK1     -0.167000
     22 C14         0.1540   -7.5320   -1.5180 c3        1 EK1     -0.209000
     23 C10         1.7900   -2.7480   -0.1850 c1        1 EK1     -0.207000
     24 C11         2.5360   -1.5590   -0.2750 c1        1 EK1     -0.074000
     25 C6          1.8990   -0.3560   -0.5760 c1        1 EK1     -0.075000
     26 C5          2.6990    0.9760   -0.5340 c3        1 EK1     -0.108000
     27 C2          3.7560    0.9470   -1.5540 c3        1 EK1     -0.181000
     28 C3          3.9990    2.3510   -2.0730 c3        1 EK1     -0.112000
     29 C4          5.4020    2.4400   -2.6330 c2        1 EK1     -0.046000
     30 C51         6.3560    3.2330   -2.0050 c2        1 EK1     -0.116000
     31 C52         7.6470    3.3290   -2.5410 c1        1 EK1     -0.138000
     32 C53         7.9710    2.6300   -3.7020 c1        1 EK1     -0.146500
     33 C54         7.0130    1.8370   -4.3280 c1        1 EK1     -0.146500
     34 C55         5.7300    1.7420   -3.7950 c1        1 EK1     -0.149000
     35 C7          0.5300   -0.3340   -0.7850 c1        1 EK1     -0.114000
     36 C1          5.0580    0.4020   -0.9290 c2        1 EK1      0.327000
     37 O1          5.7200   -0.4460   -1.5280 o         1 EK1     -0.573500
     38 O2          5.4790    0.8750    0.1520 o         1 EK1     -0.573500
     39 H1         -6.4620    6.1190    4.8620 ha        1 EK1      0.132750
     40 H2         -7.5780    5.1930    6.7200 ha        1 EK1      0.132750
     41 H3         -7.7670    2.8390    6.8930 ha        1 EK1      0.164000
     42 H4         -7.2370    2.0320    1.6860 ha        1 EK1      0.146000
     43 H5         -3.7940    1.8990    3.8890 ha        1 EK1      0.151000
     44 H6         -2.8250    0.4560    2.2750 ha        1 EK1      0.148000
     45 H7         -6.2070    0.6970    0.0510 ha        1 EK1      0.155000
     46 H8         -1.9410   -1.0470   -1.8150 h1        1 EK1      0.103000
     47 H9          1.0310   -5.3330   -0.0420 h1        1 EK1      0.078000
     48 H10        -0.9790   -6.5420   -0.0230 hc        1 EK1      0.094000
     49 H11        -0.4510   -8.3130   -1.5620 hc        1 EK1      0.071333
     50 H12         0.4530   -7.3060   -2.4090 hc        1 EK1      0.071333
     51 H13         0.9110   -7.7460   -0.9720 hc        1 EK1      0.071333
     52 H14         2.2460   -3.6070    0.0300 ha        1 EK1      0.133000
     53 H15         3.5080   -1.5780   -0.1270 ha        1 EK1      0.209000
     54 H16         2.0840    1.7400   -0.7140 hc        1 EK1      0.086500
     55 H17         3.0960    1.0820    0.3310 hc        1 EK1      0.086500
     56 H18         3.4880    0.3840   -2.2750 hc        1 EK1      0.089000
     57 H19         3.8930    3.0050   -1.3260 hc        1 EK1      0.087500
     58 H20         3.3210    2.5660   -2.8150 hc        1 EK1      0.087500
     59 H21         6.1210    3.7320   -1.1730 ha        1 EK1      0.197000
     60 H22         8.3560    3.8100   -2.0390 ha        1 EK1      0.121000
     61 H23         8.8950    2.6540   -4.0500 ha        1 EK1      0.132750
     62 H24         7.2540    1.3170   -5.1920 ha        1 EK1      0.132750
     63 H25         5.0480    1.1740   -4.2420 ha        1 EK1      0.116000
     64 H26         0.0840    0.5060   -1.0080 ha        1 EK1      0.124000
     65 H28        -1.9960   -0.7520    0.8560 hn        1 EK1      0.226000
     66 H29        -2.0990   -2.5060   -1.0360 h1        1 EK1      0.103000
     67 H30         0.7830   -4.9310   -1.5380 h1        1 EK1      0.078000
     68 H31        -1.3750   -6.0210   -1.5000 hc        1 EK1      0.094000
@<TRIPOS>BOND
     1    1    6 1   
     2    2    3 1   
     3    2    8 1   
     4    4    5 1   
     5    4   39 1   
     6    5   40 1   
     7    6   41 1   
     8    7    8 1   
     9    7   42 1   
    10    8    9 1   
    11    9   10 1   
    12    9   43 1   
    13   10   44 1   
    14   11   12 1   
    15   11   13 1   
    16   12   45 1   
    17   13   14 1   
    18   13   15 1   
    19   15   16 1   
    20   15   65 1   
    21   16   17 1   
    22   16   46 1   
    23   16   66 1   
    24   17   18 1   
    25   17   35 1   
    26   18   23 1   
    27   19   20 1   
    28   20   21 1   
    29   20   47 1   
    30   20   67 1   
    31   21   22 1   
    32   21   48 1   
    33   21   68 1   
    34   22   49 1   
    35   22   50 1   
    36   22   51 1   
    37   23   52 1   
    38   24   25 1   
    39   24   53 1   
    40   25   26 1   
    41   26   27 1   
    42   26   54 1   
    43   26   55 1   
    44   27   28 1   
    45   27   36 1   
    46   27   56 1   
    47   28   29 1   
    48   28   57 1   
    49   28   58 1   
    50   29   30 1   
    51   29   34 1   
    52   30   31 1   
    53   30   59 1   
    54   31   60 1   
    55   32   33 1   
    56   32   61 1   
    57   33   62 1   
    58   34   63 1   
    59   35   64 1   
    60   36   37 1   
    61   36   38 1   
@<TRIPOS>SUBSTRUCTURE
     1 EK1         1 TEMP              0 ****  ****    0 ROOT
