@<TRIPOS>MOLECULE
EK1
   69    72     1     0     0
SMALL
bcc


@<TRIPOS>ATOM
      1 N81        -0.3390   -0.6840   -0.1090 nb        1 EK1     -0.680500
      2 C82         0.9160   -0.1280   -0.1170 cp        1 EK1      0.664500
      3 N83         1.4470    0.6490    0.8830 nb        1 EK1     -0.680500
      4 C84         0.6560    0.8760    1.9490 ca        1 EK1      0.432700
      5 C85        -0.6450    0.3500    2.0540 ca        1 EK1     -0.341600
      6 C86        -1.0960   -0.4370    0.9780 ca        1 EK1      0.432700
      7 C99         3.1500   -0.5940   -1.1470 ca        1 EK1     -0.094500
      8 C98         1.7710   -0.3870   -1.3060 cp        1 EK1     -0.062500
      9 C19         1.2030   -0.4270   -2.5850 ca        1 EK1     -0.094500
     10 C17         2.0070   -0.6650   -3.6970 ca        1 EK1     -0.080500
     11 C87         3.3890   -0.8560   -3.5390 ca        1 EK1     -0.193600
     12 C22         3.9550   -0.8270   -2.2560 ca        1 EK1     -0.080500
     13 C97         4.1740   -1.1010   -4.7560 c         1 EK1      0.559700
     14 O99         3.7460   -1.4950   -5.8360 o         1 EK1     -0.434100
     15 N99         5.6430   -0.8140   -4.6670 ny        1 EK1     -0.676800
     16 C15         6.3290   -0.6770   -6.0040 c3        1 EK1      0.211100
     17 C8          7.7370   -0.2610   -5.8000 ca        1 EK1     -0.235300
     18 C9          8.6460   -1.1170   -5.1490 ca        1 EK1      0.115100
     19 O3          8.1040   -2.2780   -4.6130 os        1 EK1     -0.412900
     20 C12         9.0230   -3.3790   -4.4910 c3        1 EK1      0.134400
     21 C13         8.1740   -4.6300   -4.3510 c3        1 EK1     -0.087400
     22 C14         9.0520   -5.8390   -4.1640 c3        1 EK1     -0.096100
     23 C10         9.9920   -0.7610   -5.0170 ca        1 EK1     -0.185000
     24 C11        10.4310    0.4530   -5.5370 ca        1 EK1     -0.030000
     25 C6          9.5340    1.3280   -6.1780 ca        1 EK1     -0.051300
     26 C5         10.0340    2.6130   -6.7400 c3        1 EK1     -0.030100
     27 C2         10.7620    2.4050   -8.0630 c3        1 EK1     -0.187700
     28 C3         11.1380    3.7510   -8.6690 c3        1 EK1     -0.020100
     29 C4         11.0050    3.7870  -10.1520 ca        1 EK1     -0.069300
     30 C51        11.4670    2.7210  -10.9370 ca        1 EK1     -0.132500
     31 C52        11.3610    2.7790  -12.3250 ca        1 EK1     -0.141000
     32 C53        10.7940    3.8930  -12.9440 ca        1 EK1     -0.148000
     33 C54        10.3320    4.9550  -12.1680 ca        1 EK1     -0.141000
     34 C55        10.4370    4.9020  -10.7790 ca        1 EK1     -0.132500
     35 C7          8.1940    0.9660   -6.3000 ca        1 EK1     -0.087000
     36 C1         12.0400    1.5530   -7.8310 c         1 EK1      0.906600
     37 O1         12.7560    1.8140   -6.8200 o         1 EK1     -0.832800
     38 O2         12.2800    0.6230   -8.6480 o         1 EK1     -0.832800
     39 H1          1.0910    1.5070    2.7460 h4        1 EK1      0.041100
     40 H2         -1.2750    0.5430    2.9300 ha        1 EK1      0.167000
     41 H3         -2.1040   -0.8920    0.9770 h4        1 EK1      0.041100
     42 H5          0.1190   -0.2780   -2.7230 ha        1 EK1      0.174000
     43 H6          1.5600   -0.7070   -4.7050 ha        1 EK1      0.152000
     44 H7          5.0290   -1.0030   -2.0920 ha        1 EK1      0.152000
     45 H8          5.7510    0.0710   -6.6140 hx        1 EK1      0.105200
     46 H9          9.6520   -3.2100   -3.5780 h1        1 EK1      0.059700
     47 H10         7.4820   -4.5160   -3.4750 hc        1 EK1      0.043700
     48 H11         9.7340   -5.9710   -5.0390 hc        1 EK1      0.044367
     49 H12         9.6770   -5.7370   -3.2430 hc        1 EK1      0.044367
     50 H13         8.4230   -6.7570   -4.0650 hc        1 EK1      0.044367
     51 H14        10.7070   -1.4380   -4.5280 ha        1 EK1      0.151000
     52 H15        11.5090    0.7370   -5.4930 ha        1 EK1      0.231000
     53 H16         9.1760    3.3230   -6.8800 hc        1 EK1      0.050200
     54 H17        10.7630    3.0740   -6.0170 hc        1 EK1      0.050200
     55 H18        10.0930    1.8440   -8.7690 hc        1 EK1      0.049700
     56 H19        10.5060    4.5660   -8.2220 hc        1 EK1      0.047200
     57 H20        12.2070    3.9800   -8.3970 hc        1 EK1      0.047200
     58 H21        11.9150    1.8370  -10.4380 ha        1 EK1      0.157500
     59 H22        11.7290    1.9400  -12.9340 ha        1 EK1      0.120000
     60 H23        10.7130    3.9360  -14.0390 ha        1 EK1      0.116000
     61 H24         9.8870    5.8370  -12.6510 ha        1 EK1      0.120000
     62 H25        10.0740    5.7450  -10.1730 ha        1 EK1      0.157500
     63 H26         7.4920    1.6370   -6.8200 ha        1 EK1      0.135000
     64 H28         5.7870    0.0480   -4.1290 hn        1 EK1      0.466800
     65 H29         6.2720   -1.6870   -6.5040 hx        1 EK1      0.105200
     66 H30         9.6790   -3.4320   -5.3990 h1        1 EK1      0.059700
     67 H31         7.5370   -4.7530   -5.2660 hc        1 EK1      0.043700
     68 H992        6.1050   -1.5840   -4.1570 hn        1 EK1      0.466800
     69 H4          3.6030   -0.5710   -0.1410 ha        1 EK1      0.174000
@<TRIPOS>BOND
     1    1    2 ar  
     2    1    6 ar  
     3    2    3 ar  
     4    2    8 1   
     5    3    4 ar  
     6    4    5 ar  
     7    4   39 1   
     8    5    6 ar  
     9    5   40 1   
    10    6   41 1   
    11    7    8 ar  
    12    7   12 ar  
    13    7   69 1   
    14    8    9 ar  
    15    9   10 ar  
    16    9   42 1   
    17   10   11 ar  
    18   10   43 1   
    19   11   12 ar  
    20   11   13 1   
    21   12   44 1   
    22   13   14 2   
    23   13   15 1   
    24   15   16 1   
    25   15   64 1   
    26   15   68 1   
    27   16   17 1   
    28   16   45 1   
    29   16   65 1   
    30   17   18 ar  
    31   17   35 ar  
    32   18   19 1   
    33   18   23 ar  
    34   19   20 1   
    35   20   21 1   
    36   20   46 1   
    37   20   66 1   
    38   21   22 1   
    39   21   47 1   
    40   21   67 1   
    41   22   48 1   
    42   22   49 1   
    43   22   50 1   
    44   23   24 ar  
    45   23   51 1   
    46   24   25 ar  
    47   24   52 1   
    48   25   26 1   
    49   25   35 ar  
    50   26   27 1   
    51   26   53 1   
    52   26   54 1   
    53   27   28 1   
    54   27   36 1   
    55   27   55 1   
    56   28   29 1   
    57   28   56 1   
    58   28   57 1   
    59   29   30 ar  
    60   29   34 ar  
    61   30   31 ar  
    62   30   58 1   
    63   31   32 ar  
    64   31   59 1   
    65   32   33 ar  
    66   32   60 1   
    67   33   34 ar  
    68   33   61 1   
    69   34   62 1   
    70   35   63 1   
    71   36   37 1   
    72   36   38 1   
@<TRIPOS>SUBSTRUCTURE
     1 EK1         1 TEMP              0 ****  ****    0 ROOT
