@<TRIPOS>MOLECULE
EK2
   42    45     1     0     0
SMALL
bcc


@<TRIPOS>ATOM
      1 O1          0.1870   -0.6210    0.1240 o         1 EK2     -0.568100
      2 C14         1.3860   -0.2900    0.1500 c         1 EK2      0.682700
      3 N4          2.1120   -0.2330    1.3560 n         1 EK2     -0.453800
      4 C18         3.0540    0.8480    1.5770 c3        1 EK2      0.035500
      5 C17         2.5270    1.9580    2.5010 c3        1 EK2      0.098900
      6 O2          1.9860    1.4320    3.7050 os        1 EK2     -0.409600
      7 C16         0.9530    0.4820    3.4640 c3        1 EK2      0.098900
      8 C15         1.4440   -0.6650    2.5730 c3        1 EK2      0.035500
      9 C12         2.1210   -0.0560   -1.1100 cc        1 EK2     -0.187900
     10 C11         1.6050    0.5010   -2.2920 cd        1 EK2     -0.110000
     11 N3          3.4500   -0.4320   -1.3400 na        1 EK2     -0.147100
     12 C13         3.7800   -0.1260   -2.6450 cc        1 EK2     -0.093300
     13 C10         2.6590    0.4680   -3.2670 cd        1 EK2     -0.132000
     14 C9          2.5780    0.9210   -4.6210 cd        1 EK2      0.021700
     15 N2          1.3680    0.9280   -5.3370 na        1 EK2     -0.013600
     16 N1          1.5110    1.3610   -6.5870 nd        1 EK2     -0.505800
     17 C8          2.8230    1.6570   -6.7540 cc        1 EK2      0.313200
     18 C7          3.5570    1.4000   -5.5270 cc        1 EK2     -0.228300
     19 C3          4.9640    1.6310   -5.3410 ca        1 EK2      0.038000
     20 C2          5.8480    1.4360   -6.4160 ca        1 EK2     -0.130500
     21 C4          5.4680    2.0720   -4.1090 ca        1 EK2     -0.130500
     22 C5          6.8360    2.3080   -3.9600 ca        1 EK2      0.026900
     23 Cl2         7.4360    2.8400   -2.4600 cl        1 EK2     -0.089400
     24 C6          7.7230    2.1160   -5.0230 ca        1 EK2     -0.129000
     25 C1          7.2120    1.6800   -6.2480 ca        1 EK2      0.026900
     26 Cl1         8.2730    1.4400   -7.5550 cl        1 EK2     -0.089400
     27 H16         3.3530    1.3260    0.6050 h1        1 EK2      0.069700
     28 H15         3.9680    0.3910    2.0530 h1        1 EK2      0.069700
     29 H14         3.3750    2.6110    2.8370 h1        1 EK2      0.060450
     30 H13         1.7500    2.5750    1.9770 h1        1 EK2      0.060450
     31 H11         0.0680    0.9960    3.0050 h1        1 EK2      0.060450
     32 H12         0.6880    0.0950    4.4830 h1        1 EK2      0.060450
     33 H10         2.1990   -1.2730    3.1490 h1        1 EK2      0.069700
     34 H9          0.5690   -1.3240    2.3140 h1        1 EK2      0.069700
     35 H7          0.5970    0.8840   -2.4270 ha        1 EK2      0.168000
     36 H2          4.0310   -0.8820   -0.6790 hn        1 EK2      0.312700
     37 H8          4.7690   -0.3360   -3.0610 h4        1 EK2      0.189000
     38 H1          0.4820    0.6390   -4.9920 hn        1 EK2      0.327700
     39 H6          3.2220    2.0430   -7.6920 h4        1 EK2      0.047100
     40 H3          5.4570    1.0900   -7.3860 ha        1 EK2      0.156000
     41 H4          4.7760    2.2390   -3.2680 ha        1 EK2      0.156000
     42 H5          8.8000    2.3080   -4.8990 ha        1 EK2      0.162000
@<TRIPOS>BOND
     1    1    2 2   
     2    2    3 1   
     3    2    9 1   
     4    3    4 1   
     5    3    8 1   
     6    4    5 1   
     7    4   27 1   
     8    4   28 1   
     9    5    6 1   
    10    5   29 1   
    11    5   30 1   
    12    6    7 1   
    13    7    8 1   
    14    7   31 1   
    15    7   32 1   
    16    8   33 1   
    17    8   34 1   
    18    9   10 2   
    19    9   11 1   
    20   10   13 1   
    21   10   35 1   
    22   11   12 1   
    23   11   36 1   
    24   12   13 2   
    25   12   37 1   
    26   13   14 1   
    27   14   15 1   
    28   14   18 2   
    29   15   16 1   
    30   15   38 1   
    31   16   17 2   
    32   17   18 1   
    33   17   39 1   
    34   18   19 1   
    35   19   20 ar  
    36   19   21 ar  
    37   20   25 ar  
    38   20   40 1   
    39   21   22 ar  
    40   21   41 1   
    41   22   23 1   
    42   22   24 ar  
    43   24   25 ar  
    44   24   42 1   
    45   25   26 1   
@<TRIPOS>SUBSTRUCTURE
     1 EK2         1 TEMP              0 ****  ****    0 ROOT
