@<TRIPOS>MOLECULE
EK2
   42    35     1     0     0
SMALL
bcc


@<TRIPOS>ATOM
      1 O1          1.1260    0.0570    4.0500 o         1 EK2     -0.378000
      2 C14         0.4580   -0.1990    3.0200 c1        1 EK2      0.368000
      3 N4         -1.0040   -0.4210    3.1230 n2        1 EK2     -0.307000
      4 C18        -1.7070   -0.3590    4.3370 c3        1 EK2     -0.068500
      5 C17        -2.5570   -1.5810    4.5670 c3        1 EK2     -0.048500
      6 O2         -3.4110   -1.8800    3.4270 os        1 EK2     -0.266000
      7 C16        -2.6810   -1.9390    2.2000 c3        1 EK2     -0.048500
      8 C15        -1.8330   -0.7150    1.9850 c3        1 EK2     -0.068500
      9 C12         1.1210   -0.1850    1.6690 c2        1 EK2     -0.140000
     10 C11         1.2450    0.9190    0.8370 c1        1 EK2     -0.108000
     11 N3          1.8190   -1.2120    1.1120 n2        1 EK2     -0.132000
     12 C13         2.3750   -0.7600   -0.0590 c1        1 EK2     -0.089000
     13 C10         2.0130    0.5640   -0.2210 c1        1 EK2     -0.134000
     14 C9          2.5220    1.5180   -1.3370 c1        1 EK2     -0.056500
     15 N2          3.6680    2.2540   -1.2980 n2        1 EK2     -0.118000
     16 N1          3.8350    2.8490   -2.5250 n2        1 EK2     -0.118000
     17 C8          2.7900    2.4790   -3.3220 c1        1 EK2     -0.056500
     18 C7          1.9740    1.6570   -2.5940 c1        1 EK2     -0.149000
     19 C3          0.7220    0.9370   -3.1170 c1        1 EK2      0.038000
     20 C2         -0.5080    1.5780   -3.0860 c2        1 EK2     -0.124000
     21 C4          0.8450   -0.2910   -3.7480 c1        1 EK2     -0.130000
     22 C5         -0.2580   -0.8780   -4.3450 c1        1 EK2     -0.054000
     23 CL2        -0.1080   -2.4180   -5.1040 cl        1 EK2     -0.019000
     24 C6         -1.4790   -0.2420   -4.3140 c1        1 EK2     -0.128000
     25 C1         -1.6080    0.9910   -3.6830 c1        1 EK2     -0.050000
     26 CL1        -3.1730    1.7150   -3.5170 cl        1 EK2     -0.007000
     27 H16        -2.3260    0.4910    4.3290 h1        1 EK2      0.111500
     28 H15        -1.0380   -0.2740    5.1010 h1        1 EK2      0.111500
     29 H14        -3.1430   -1.4240    5.3850 h1        1 EK2      0.098000
     30 H13        -1.9810   -2.3350    4.7350 h1        1 EK2      0.098000
     31 H11        -3.3150   -2.0200    1.4570 h1        1 EK2      0.098000
     32 H12        -2.0840   -2.7530    2.2120 h1        1 EK2      0.098000
     33 H10        -2.4490    0.0860    1.8070 h1        1 EK2      0.111500
     34 H9         -1.2830   -0.8530    1.2310 h1        1 EK2      0.111500
     35 H7          0.8520    1.7860    0.9860 DU        1 EK2      0.216000
     36 H2          1.9030   -2.0680    1.4610 DU        1 EK2      0.216000
     37 H8          2.9100   -1.2630   -0.6490 DU        1 EK2      0.216000
     38 H1          4.2190    2.3350   -0.5920 DU        1 EK2      0.216000
     39 H6          2.6480    2.7560   -4.2640 DU        1 EK2      0.216000
     40 H3         -0.5970    2.4460   -2.6440 ha        1 EK2      0.154000
     41 H4          1.7470   -0.6920   -3.8770 ha        1 EK2      0.159000
     42 H5         -2.2490   -0.6540   -4.7330 ha        1 EK2      0.162000
@<TRIPOS>BOND
     1    1    2 1   
     2    2    9 1   
     3    3    4 1   
     4    3    8 1   
     5    4    5 1   
     6    4   27 1   
     7    4   28 1   
     8    5    6 1   
     9    5   29 1   
    10    5   30 1   
    11    6    7 1   
    12    7    8 1   
    13    7   31 1   
    14    7   32 1   
    15    8   33 1   
    16    8   34 1   
    17    9   10 1   
    18    9   11 1   
    19   10   13 1   
    20   11   12 1   
    21   12   13 1   
    22   14   15 1   
    23   14   18 1   
    24   15   16 1   
    25   16   17 1   
    26   17   18 1   
    27   19   20 1   
    28   19   21 1   
    29   20   25 1   
    30   20   40 1   
    31   21   41 1   
    32   22   23 1   
    33   22   24 1   
    34   24   42 1   
    35   25   26 1   
@<TRIPOS>SUBSTRUCTURE
     1 EK2         1 TEMP              0 ****  ****    0 ROOT
