@<TRIPOS>MOLECULE
EK2
   42    45     1     0     0
SMALL
bcc


@<TRIPOS>ATOM
      1 O1          0.1580   -0.5850    0.1050 o         1 EK2     -0.568100
      2 C14         1.3600   -0.2680    0.1390 c         1 EK2      0.682700
      3 N4          2.0790   -0.2150    1.3500 n         1 EK2     -0.453800
      4 C18         3.0310    0.8560    1.5740 c3        1 EK2      0.036000
      5 C17         2.5110    1.9730    2.4920 c3        1 EK2      0.098900
      6 O2          1.9570    1.4560    3.6940 os        1 EK2     -0.409600
      7 C16         0.9140    0.5170    3.4480 c3        1 EK2      0.098900
      8 C15         1.3980   -0.6370    2.5630 c3        1 EK2      0.036000
      9 C12         2.1060   -0.0430   -1.1170 cc        1 EK2     -0.187900
     10 C11         1.6030    0.5170   -2.3040 cd        1 EK2     -0.110000
     11 N3          3.4320   -0.4350   -1.3380 na        1 EK2     -0.147100
     12 C13         3.7740   -0.1350   -2.6410 cc        1 EK2     -0.093300
     13 C10         2.6640    0.4710   -3.2720 cd        1 EK2     -0.132000
     14 C9          2.5960    0.9240   -4.6270 cd        1 EK2      0.021700
     15 N2          1.3910    0.9410   -5.3510 na        1 EK2     -0.013600
     16 N1          1.5470    1.3720   -6.6010 nd        1 EK2     -0.505800
     17 C8          2.8630    1.6540   -6.7580 cc        1 EK2      0.313200
     18 C7          3.5860    1.3920   -5.5270 cc        1 EK2     -0.228300
     19 C3          4.9940    1.6090   -5.3310 ca        1 EK2      0.038000
     20 C2          5.8830    1.4060   -6.4000 ca        1 EK2     -0.130500
     21 C4          5.4930    2.0470   -4.0950 ca        1 EK2     -0.130500
     22 C5          6.8620    2.2690   -3.9370 ca        1 EK2      0.026900
     23 CL2         7.4570    2.7960   -2.4330 cl        1 EK2     -0.089400
     24 C6          7.7550    2.0690   -4.9940 ca        1 EK2     -0.129000
     25 C1          7.2480    1.6370   -6.2230 ca        1 EK2      0.026900
     26 CL1         8.3160    1.3870   -7.5220 cl        1 EK2     -0.089400
     27 H16         3.3430    1.3280    0.6030 h1        1 EK2      0.069700
     28 H15         3.9370    0.3890    2.0560 h1        1 EK2      0.069700
     29 H14         3.3640    2.6170    2.8320 h1        1 EK2      0.060450
     30 H13         1.7450    2.5980    1.9620 h1        1 EK2      0.060450
     31 H11         0.0380    1.0400    2.9820 h1        1 EK2      0.060450
     32 H12         0.6380    0.1360    4.4660 h1        1 EK2      0.060450
     33 H10         2.1420   -1.2520    3.1450 h1        1 EK2      0.069700
     34 H9          0.5170   -1.2870    2.2990 h1        1 EK2      0.069700
     35 H7          0.6000    0.9120   -2.4450 ha        1 EK2      0.168000
     36 H2          4.0040   -0.8900   -0.6730 hn        1 EK2      0.312700
     37 H8          4.7630   -0.3560   -3.0500 h4        1 EK2      0.189000
     38 H1          0.5000    0.6610   -5.0120 hn        1 EK2      0.327700
     39 H6          3.2720    2.0350   -7.6940 h4        1 EK2      0.047100
     40 H3          5.4960    1.0640   -7.3720 ha        1 EK2      0.156000
     41 H4          4.7970    2.2200   -3.2600 ha        1 EK2      0.156000
     42 H5          8.8320    2.2500   -4.8620 ha        1 EK2      0.162000
@<TRIPOS>BOND
     1    1    2 2   
     2    2    3 1   
     3    2    9 1   
     4    3    4 1   
     5    3    8 1   
     6    4    5 1   
     7    4   27 1   
     8    4   28 1   
     9    5    6 1   
    10    5   29 1   
    11    5   30 1   
    12    6    7 1   
    13    7    8 1   
    14    7   31 1   
    15    7   32 1   
    16    8   33 1   
    17    8   34 1   
    18    9   10 2   
    19    9   11 1   
    20   10   13 1   
    21   10   35 1   
    22   11   12 1   
    23   11   36 1   
    24   12   13 2   
    25   12   37 1   
    26   13   14 1   
    27   14   15 1   
    28   14   18 2   
    29   15   16 1   
    30   15   38 1   
    31   16   17 2   
    32   17   18 1   
    33   17   39 1   
    34   18   19 1   
    35   19   20 ar  
    36   19   21 ar  
    37   20   25 ar  
    38   20   40 1   
    39   21   22 ar  
    40   21   41 1   
    41   22   23 1   
    42   22   24 ar  
    43   24   25 ar  
    44   24   42 1   
    45   25   26 1   
@<TRIPOS>SUBSTRUCTURE
     1 EK2         1 TEMP              0 ****  ****    0 ROOT
