@<TRIPOS>MOLECULE
EK2
   42    45     1     0     0
SMALL
bcc


@<TRIPOS>ATOM
      1 O1         -4.3620    2.1430   -0.2840 o         1 EK2     -0.568100
      2 C14        -3.7430    1.0800   -0.4710 c         1 EK2      0.682700
      3 N4         -4.4110   -0.1230   -0.7740 n         1 EK2     -0.453800
      4 C18        -3.9570   -1.3660   -0.1820 c3        1 EK2      0.035500
      5 C17        -4.8160   -1.8490    0.9970 c3        1 EK2      0.098900
      6 O2         -6.2000   -1.8550    0.6750 os        1 EK2     -0.409600
      7 C16        -6.6600   -0.5780    0.2410 c3        1 EK2      0.098900
      8 C15        -5.8520   -0.0720   -0.9590 c3        1 EK2      0.035500
      9 C12        -2.2660    1.0730   -0.4910 cc        1 EK2     -0.187900
     10 C11        -1.4110    1.8720    0.2870 cd        1 EK2     -0.110000
     11 N3         -1.4830    0.3060   -1.3630 na        1 EK2     -0.147100
     12 C13        -0.1530    0.6070   -1.1520 cc        1 EK2     -0.093300
     13 C10        -0.0670    1.5710   -0.1220 cd        1 EK2     -0.132000
     14 C9          1.1290    2.1620    0.3940 cd        1 EK2      0.021700
     15 N2          1.1520    3.4610    0.9290 na        1 EK2     -0.013600
     16 N1          2.3660    3.8320    1.3310 nd        1 EK2     -0.505800
     17 C8          3.1990    2.7950    1.0750 cc        1 EK2      0.313200
     18 C7          2.4640    1.6930    0.4790 cc        1 EK2     -0.228300
     19 C3          3.0310    0.4250    0.1070 ca        1 EK2      0.038000
     20 C2          4.3490    0.3680   -0.3750 ca        1 EK2     -0.130500
     21 C4          2.2970   -0.7630    0.2420 ca        1 EK2     -0.130500
     22 C5          2.8780   -1.9840   -0.1070 ca        1 EK2      0.026900
     23 CL2         1.9760   -3.4170    0.0570 cl        1 EK2     -0.089400
     24 C6          4.1880   -2.0500   -0.5890 ca        1 EK2     -0.129000
     25 C1          4.9130   -0.8620   -0.7160 ca        1 EK2      0.026900
     26 CL1         6.5090   -0.9200   -1.3000 cl        1 EK2     -0.089400
     27 H16        -3.9950   -2.1470   -0.9960 h1        1 EK2      0.069700
     28 H15        -2.8970   -1.2760    0.1810 h1        1 EK2      0.069700
     29 H14        -4.5790   -2.9200    1.2310 h1        1 EK2      0.060450
     30 H13        -4.6430   -1.2100    1.9030 h1        1 EK2      0.060450
     31 H11        -7.7270   -0.7540   -0.0560 h1        1 EK2      0.060450
     32 H12        -6.6120    0.1500    1.0930 h1        1 EK2      0.060450
     33 H10        -6.1690    0.9830   -1.1920 h1        1 EK2      0.069700
     34 H9         -6.0800   -0.7240   -1.8500 h1        1 EK2      0.069700
     35 H7         -1.7230    2.5770    1.0540 ha        1 EK2      0.168000
     36 H2         -1.8410   -0.3150   -2.0440 hn        1 EK2      0.312700
     37 H8          0.6500    0.1360   -1.7240 h4        1 EK2      0.189000
     38 H1          0.3760    4.0760    1.0080 hn        1 EK2      0.327700
     39 H6          4.2630    2.8250    1.3120 h4        1 EK2      0.047100
     40 H3          4.9310    1.2980   -0.4810 ha        1 EK2      0.156000
     41 H4          1.2680   -0.7230    0.6320 ha        1 EK2      0.156000
     42 H5          4.6400   -3.0170   -0.8590 ha        1 EK2      0.162000
@<TRIPOS>BOND
     1    1    2 2   
     2    2    3 1   
     3    2    9 1   
     4    3    4 1   
     5    3    8 1   
     6    4    5 1   
     7    4   27 1   
     8    4   28 1   
     9    5    6 1   
    10    5   29 1   
    11    5   30 1   
    12    6    7 1   
    13    7    8 1   
    14    7   31 1   
    15    7   32 1   
    16    8   33 1   
    17    8   34 1   
    18    9   10 2   
    19    9   11 1   
    20   10   13 1   
    21   10   35 1   
    22   11   12 1   
    23   11   36 1   
    24   12   13 2   
    25   12   37 1   
    26   13   14 1   
    27   14   15 1   
    28   14   18 2   
    29   15   16 1   
    30   15   38 1   
    31   16   17 2   
    32   17   18 1   
    33   17   39 1   
    34   18   19 1   
    35   19   20 ar  
    36   19   21 ar  
    37   20   25 ar  
    38   20   40 1   
    39   21   22 ar  
    40   21   41 1   
    41   22   23 1   
    42   22   24 ar  
    43   24   25 ar  
    44   24   42 1   
    45   25   26 1   
@<TRIPOS>SUBSTRUCTURE
     1 EK2         1 TEMP              0 ****  ****    0 ROOT
