@<TRIPOS>MOLECULE
EK2
   42    45     1     0     0
SMALL
bcc


@<TRIPOS>ATOM
      1 O1          0.1640   -0.5770    0.1220 o         1 EK2     -0.568100
      2 C14         1.3690   -0.2650    0.1480 c         1 EK2      0.682700
      3 N4          2.0960   -0.2210    1.3540 n         1 EK2     -0.453800
      4 C18         3.0550    0.8440    1.5770 c3        1 EK2      0.035500
      5 C17         2.5470    1.9600    2.5040 c3        1 EK2      0.098900
      6 O2          1.9980    1.4390    3.7070 os        1 EK2     -0.409600
      7 C16         0.9500    0.5060    3.4650 c3        1 EK2      0.098900
      8 C15         1.4220   -0.6460    2.5700 c3        1 EK2      0.035500
      9 C12         2.1060   -0.0380   -1.1110 cc        1 EK2     -0.187900
     10 C11         1.5980    0.5300   -2.2920 cd        1 EK2     -0.110000
     11 N3          3.4290   -0.4350   -1.3440 na        1 EK2     -0.147100
     12 C13         3.7630   -0.1310   -2.6480 cc        1 EK2     -0.093300
     13 C10         2.6510    0.4830   -3.2680 cd        1 EK2     -0.132000
     14 C9          2.5760    0.9420   -4.6210 cd        1 EK2      0.021700
     15 N2          1.3660    0.9700   -5.3350 na        1 EK2     -0.013600
     16 N1          1.5150    1.4050   -6.5840 nd        1 EK2     -0.505800
     17 C8          2.8310    1.6790   -6.7510 cc        1 EK2      0.313200
     18 C7          3.5620    1.4070   -5.5260 cc        1 EK2     -0.228300
     19 C3          4.9730    1.6140   -5.3410 ca        1 EK2      0.038000
     20 C2          5.8520    1.4090   -6.4170 ca        1 EK2     -0.130500
     21 C4          5.4850    2.0440   -4.1070 ca        1 EK2     -0.130500
     22 C5          6.8570    2.2570   -3.9590 ca        1 EK2      0.026900
     23 CL2         7.4660    2.7750   -2.4570 cl        1 EK2     -0.089400
     24 C6          7.7400    2.0540   -5.0230 ca        1 EK2     -0.129000
     25 C1          7.2200    1.6290   -6.2500 ca        1 EK2      0.026900
     26 CL1         8.2760    1.3770   -7.5580 cl        1 EK2     -0.089400
     27 H16         3.3610    1.3190    0.6060 h1        1 EK2      0.069700
     28 H15         3.9620    0.3710    2.0500 h1        1 EK2      0.069700
     29 H14         3.4050    2.5990    2.8400 h1        1 EK2      0.060450
     30 H13         1.7790    2.5900    1.9820 h1        1 EK2      0.060450
     31 H11         0.0730    1.0350    3.0070 h1        1 EK2      0.060450
     32 H12         0.6800    0.1210    4.4830 h1        1 EK2      0.060450
     33 H10         0.5370   -1.2900    2.3100 h1        1 EK2      0.069700
     34 H9          2.1680   -1.2670    3.1440 h1        1 EK2      0.069700
     35 H7          0.5960    0.9300   -2.4250 ha        1 EK2      0.168000
     36 H2          4.0030   -0.8960   -0.6850 hn        1 EK2      0.312700
     37 H8          4.7480   -0.3550   -3.0650 h4        1 EK2      0.189000
     38 H1          0.4760    0.6940   -4.9900 hn        1 EK2      0.327700
     39 H6          3.2360    2.0620   -7.6880 h4        1 EK2      0.047100
     40 H3          5.4550    1.0720   -7.3870 ha        1 EK2      0.156000
     41 H4          4.7960    2.2190   -3.2660 ha        1 EK2      0.156000
     42 H5          8.8190    2.2280   -4.8990 ha        1 EK2      0.162000
@<TRIPOS>BOND
     1    1    2 2   
     2    2    3 1   
     3    2    9 1   
     4    3    4 1   
     5    3    8 1   
     6    4    5 1   
     7    4   27 1   
     8    4   28 1   
     9    5    6 1   
    10    5   29 1   
    11    5   30 1   
    12    6    7 1   
    13    7    8 1   
    14    7   31 1   
    15    7   32 1   
    16    8   33 1   
    17    8   34 1   
    18    9   10 2   
    19    9   11 1   
    20   10   13 1   
    21   10   35 1   
    22   11   12 1   
    23   11   36 1   
    24   12   13 2   
    25   12   37 1   
    26   13   14 1   
    27   14   15 1   
    28   14   18 2   
    29   15   16 1   
    30   15   38 1   
    31   16   17 2   
    32   17   18 1   
    33   17   39 1   
    34   18   19 1   
    35   19   20 ar  
    36   19   21 ar  
    37   20   25 ar  
    38   20   40 1   
    39   21   22 ar  
    40   21   41 1   
    41   22   23 1   
    42   22   24 ar  
    43   24   25 ar  
    44   24   42 1   
    45   25   26 1   
@<TRIPOS>SUBSTRUCTURE
     1 EK2         1 TEMP              0 ****  ****    0 ROOT
