@<TRIPOS>MOLECULE
EK3
   46    41     1     0     0
SMALL
bcc


@<TRIPOS>ATOM
      1 F          -5.7800   -3.9240    0.3300 f         1 EK3     -0.106000
      2 C1         -4.4630   -3.9050    0.1060 c2        1 EK3      0.095000
      3 C6         -3.9690   -4.2390   -1.1420 c2        1 EK3     -0.173000
      4 C5         -2.6000   -4.2490   -1.3650 c1        1 EK3     -0.079000
      5 C4         -1.7280   -3.9250   -0.3380 c1        1 EK3     -0.028000
      6 C3         -2.2250   -3.5910    0.9130 c1        1 EK3     -0.085000
      7 C2         -3.5870   -3.5810    1.1350 c1        1 EK3     -0.172000
      8 C7         -0.2370   -4.0430   -0.5500 c2        1 EK3     -0.056000
      9 C9          0.6130   -3.0210   -0.8630 c1        1 EK3     -0.139000
     10 C8          1.8730   -3.5360   -0.9590 c1        1 EK3     -0.104000
     11 N2          1.8010   -4.8660   -0.7070 n2        1 EK3     -0.154000
     12 N1          0.4920   -5.1790   -0.4540 n2        1 EK3     -0.076000
     13 C10         0.2210   -1.5550   -1.0730 c1        1 EK3      0.070000
     14 C14        -0.2890   -1.1500   -2.2760 c1        1 EK3     -0.127000
     15 C13        -0.5790    0.1940   -2.4910 c1        1 EK3     -0.127000
     16 N3         -0.3570    1.1080   -1.5020 n1        1 EK3     -0.193000
     17 C12         0.1500    0.7100   -0.3030 c1        1 EK3      0.115000
     18 C11         0.4430   -0.6350   -0.0820 c2        1 EK3     -0.240000
     19 N4          0.3260    1.6510    0.7310 n2        1 EK3     -0.269000
     20 C15         1.1430    2.8300    0.5070 c3        1 EK3      0.003000
     21 C20         0.2390    4.0350    0.4050 c3        1 EK3     -0.171500
     22 C19         1.0140    5.3410    0.3560 c3        1 EK3     -0.153000
     23 C18         2.0120    5.4610    1.4820 c3        1 EK3     -0.158000
     24 C17         2.9170    4.2520    1.5850 c3        1 EK3     -0.153000
     25 C16         2.1440    2.9510    1.6350 c3        1 EK3     -0.171500
     26 H5         -4.5870   -4.4680   -1.8700 ha        1 EK3      0.150000
     27 H4         -2.2490   -4.4860   -2.2520 ha        1 EK3      0.150000
     28 H3         -1.6080   -3.3610    1.6400 ha        1 EK3      0.149000
     29 H2         -3.9370   -3.3430    2.0220 ha        1 EK3      0.150000
     30 H6          2.6690   -3.0440   -1.1680 DU        1 EK3      0.229500
     31 H1          2.5020   -5.4520   -0.7070 DU        1 EK3      0.229500
     32 H9         -0.4500   -1.8090   -2.9910 ha        1 EK3      0.156000
     33 H8         -0.9430    0.4830   -3.3470 ha        1 EK3      0.156000
     34 H7          0.8100   -0.9250    0.7910 ha        1 EK3      0.137000
     35 H10        -0.1160    1.5490    1.5180 hn        1 EK3      0.191000
     36 H11         1.6290    2.7250   -0.3410 h1        1 EK3      0.127000
     37 H20        -0.3570    4.0500    1.1810 hc        1 EK3      0.084500
     38 H21        -0.3030    3.9560   -0.4120 hc        1 EK3      0.084500
     39 H19         1.4850    5.3940   -0.4870 hc        1 EK3      0.082250
     40 H18         0.3880    6.0770    0.4130 hc        1 EK3      0.082250
     41 H17         1.5290    5.5650    2.3210 hc        1 EK3      0.079000
     42 H16         2.5750    6.2720    1.3300 hc        1 EK3      0.079000
     43 H15         3.5060    4.2350    0.8170 hc        1 EK3      0.082250
     44 H14         3.4510    4.3290    2.3880 hc        1 EK3      0.082250
     45 H13         2.7650    2.2180    1.5790 hc        1 EK3      0.084500
     46 H12         1.6670    2.8980    2.4910 hc        1 EK3      0.084500
@<TRIPOS>BOND
     1    1    2 1   
     2    2    3 1   
     3    2    7 1   
     4    3    4 1   
     5    3   26 1   
     6    4   27 1   
     7    5    6 1   
     8    5    8 1   
     9    6   28 1   
    10    7   29 1   
    11    8    9 1   
    12    8   12 1   
    13    9   10 1   
    14   10   11 1   
    15   11   12 1   
    16   13   18 1   
    17   14   15 1   
    18   14   32 1   
    19   15   33 1   
    20   16   17 1   
    21   17   18 1   
    22   18   34 1   
    23   19   20 1   
    24   19   35 1   
    25   20   21 1   
    26   20   25 1   
    27   20   36 1   
    28   21   22 1   
    29   21   37 1   
    30   21   38 1   
    31   22   23 1   
    32   22   39 1   
    33   22   40 1   
    34   23   24 1   
    35   23   41 1   
    36   23   42 1   
    37   24   25 1   
    38   24   43 1   
    39   24   44 1   
    40   25   45 1   
    41   25   46 1   
@<TRIPOS>SUBSTRUCTURE
     1 EK3         1 TEMP              0 ****  ****    0 ROOT
