@<TRIPOS>MOLECULE
EK3
   46    49     1     0     0
SMALL
bcc


@<TRIPOS>ATOM
      1 F          -6.5400   -2.0740    0.5170 f         1 EK3     -0.140900
      2 C1         -5.5340   -1.1960    0.2910 ca        1 EK3      0.130900
      3 C6         -5.6790    0.1510    0.6700 ca        1 EK3     -0.172500
      4 C5         -4.6420    1.0460    0.4330 ca        1 EK3     -0.082000
      5 C4         -3.4520    0.6160   -0.1720 ca        1 EK3     -0.136500
      6 C3         -3.3160   -0.7280   -0.5480 ca        1 EK3     -0.082000
      7 C2         -4.3450   -1.6350   -0.3210 ca        1 EK3     -0.172500
      8 C7         -2.3780    1.5610   -0.4350 cc        1 EK3      0.380800
      9 C9         -0.9430    1.3480   -0.2900 cc        1 EK3     -0.203300
     10 C8         -0.3610    2.5620   -0.7100 cd        1 EK3     -0.129300
     11 N2         -1.4120    3.4040   -1.0580 na        1 EK3     -0.008600
     12 N1         -2.6020    2.8290   -0.9060 nd        1 EK3     -0.507800
     13 C10        -0.2240    0.1980    0.1960 ca        1 EK3      0.057000
     14 C14        -0.7450   -0.6160    1.2120 ca        1 EK3     -0.270300
     15 C13         0.0260   -1.7030    1.6530 ca        1 EK3      0.424200
     16 N3          1.2380   -2.0180    1.1790 nb        1 EK3     -0.719000
     17 C12         1.7530   -1.2340    0.1750 ca        1 EK3      0.609200
     18 C11         1.0370   -0.1120   -0.3310 ca        1 EK3     -0.267300
     19 N4          2.9790   -1.6170   -0.4340 nh        1 EK3     -0.809900
     20 C15         4.0210   -0.5970   -0.4920 c3        1 EK3      0.187500
     21 C20         4.6200   -0.2240    0.8760 c3        1 EK3     -0.093400
     22 C19         5.6460    0.8780    0.7280 c3        1 EK3     -0.074900
     23 C18         6.7480    0.4820   -0.2330 c3        1 EK3     -0.080400
     24 C17         6.1800    0.0680   -1.5740 c3        1 EK3     -0.074900
     25 C16         5.1590   -1.0400   -1.4290 c3        1 EK3     -0.093400
     26 H5         -6.6120    0.4850    1.1460 ha        1 EK3      0.150500
     27 H4         -4.7600    2.1020    0.7230 ha        1 EK3      0.150000
     28 H3         -2.3820   -1.0670   -1.0230 ha        1 EK3      0.150000
     29 H2         -4.2410   -2.6890   -0.6170 ha        1 EK3      0.150500
     30 H6          0.6840    2.8650   -0.7690 h4        1 EK3      0.181000
     31 H1         -1.3490    4.3340   -1.4020 hn        1 EK3      0.326700
     32 H9         -1.7320   -0.4120    1.6470 ha        1 EK3      0.154000
     33 H8         -0.3500   -2.3670    2.4540 h4        1 EK3      0.022100
     34 H7          1.4530    0.4970   -1.1450 ha        1 EK3      0.144000
     35 H10         3.3410   -2.4780   -0.0640 hn        1 EK3      0.395800
     36 H11         3.5580    0.3370   -0.9320 h1        1 EK3      0.057700
     37 H20         3.8040    0.1130    1.5660 hc        1 EK3      0.049200
     38 H21         5.1010   -1.1270    1.3350 hc        1 EK3      0.049200
     39 H19         5.1440    1.8110    0.3570 hc        1 EK3      0.041200
     40 H18         6.0880    1.1110    1.7310 hc        1 EK3      0.041200
     41 H17         7.4530    1.3430   -0.3720 hc        1 EK3      0.042200
     42 H16         7.3360   -0.3680    0.2030 hc        1 EK3      0.042200
     43 H15         5.7040    0.9550   -2.0690 hc        1 EK3      0.041200
     44 H14         7.0110   -0.2830   -2.2410 hc        1 EK3      0.041200
     45 H13         5.6540   -1.9580   -1.0160 hc        1 EK3      0.049200
     46 H12         4.7420   -1.3010   -2.4360 hc        1 EK3      0.049200
@<TRIPOS>BOND
     1    1    2 1   
     2    2    3 ar  
     3    2    7 ar  
     4    3    4 ar  
     5    3   26 1   
     6    4    5 ar  
     7    4   27 1   
     8    5    6 ar  
     9    5    8 1   
    10    6    7 ar  
    11    6   28 1   
    12    7   29 1   
    13    8    9 1   
    14    8   12 2   
    15    9   10 2   
    16    9   13 1   
    17   10   11 1   
    18   10   30 1   
    19   11   12 1   
    20   11   31 1   
    21   13   14 ar  
    22   13   18 ar  
    23   14   15 ar  
    24   14   32 1   
    25   15   16 ar  
    26   15   33 1   
    27   16   17 ar  
    28   17   18 ar  
    29   17   19 1   
    30   18   34 1   
    31   19   20 1   
    32   19   35 1   
    33   20   21 1   
    34   20   25 1   
    35   20   36 1   
    36   21   22 1   
    37   21   37 1   
    38   21   38 1   
    39   22   23 1   
    40   22   39 1   
    41   22   40 1   
    42   23   24 1   
    43   23   41 1   
    44   23   42 1   
    45   24   25 1   
    46   24   43 1   
    47   24   44 1   
    48   25   45 1   
    49   25   46 1   
@<TRIPOS>SUBSTRUCTURE
     1 EK3         1 TEMP              0 ****  ****    0 ROOT
