@<TRIPOS>MOLECULE
EK3
   46    49     1     0     0
SMALL
bcc


@<TRIPOS>ATOM
      1 F          -0.0350   -1.3830    1.1210 f         1 EK3     -0.140900
      2 C1          1.2270   -0.9700    0.8560 ca        1 EK3      0.130900
      3 C6          2.1840   -0.9310    1.8870 ca        1 EK3     -0.172500
      4 C5          3.4770   -0.5030    1.6070 ca        1 EK3     -0.082000
      5 C4          3.8350   -0.1180    0.3070 ca        1 EK3     -0.136500
      6 C3          2.8750   -0.1580   -0.7140 ca        1 EK3     -0.082000
      7 C2          1.5770   -0.5790   -0.4510 ca        1 EK3     -0.172500
      8 C7          5.1840    0.3480    0.0240 cc        1 EK3      0.380800
      9 C9          6.0000    0.0660   -1.1510 cc        1 EK3     -0.203300
     10 C8          7.1930    0.7860   -0.9350 cd        1 EK3     -0.129300
     11 N2          7.0520    1.4230    0.2940 na        1 EK3     -0.008600
     12 N1          5.8770    1.1780    0.8670 nd        1 EK3     -0.507800
     13 C10         5.7230   -0.7740   -2.2890 ca        1 EK3      0.057000
     14 C14         4.9720   -1.9510   -2.1650 ca        1 EK3     -0.270300
     15 C13         4.7670   -2.7330   -3.3120 ca        1 EK3      0.424200
     16 N3          5.2480   -2.4390   -4.5280 nb        1 EK3     -0.719000
     17 C12         5.9750   -1.2820   -4.6630 ca        1 EK3      0.609200
     18 C11         6.2300   -0.4320   -3.5500 ca        1 EK3     -0.267300
     19 N4          6.3910   -0.8800   -5.9620 nh        1 EK3     -0.809900
     20 C15         7.8110   -0.5860   -6.1270 c3        1 EK3      0.187500
     21 C20         8.7290   -1.8170   -6.0260 c3        1 EK3     -0.093400
     22 C19        10.1820   -1.4110   -6.1490 c3        1 EK3     -0.074900
     23 C18        10.4420   -0.6720   -7.4450 c3        1 EK3     -0.080400
     24 C17         9.5180    0.5190   -7.5890 c3        1 EK3     -0.074900
     25 C16         8.0640    0.1140   -7.4740 c3        1 EK3     -0.093400
     26 H5          1.9010   -1.2350    2.9040 ha        1 EK3      0.150500
     27 H4          4.2230   -0.4670    2.4160 ha        1 EK3      0.150000
     28 H3          3.1560    0.1450   -1.7360 ha        1 EK3      0.150000
     29 H2          0.8230   -0.6090   -1.2490 ha        1 EK3      0.150500
     30 H6          8.0920    0.8720   -1.5450 h4        1 EK3      0.181000
     31 H1          7.7090    2.0180    0.7420 hn        1 EK3      0.326700
     32 H9          4.5520   -2.2520   -1.1960 ha        1 EK3      0.154000
     33 H8          4.1820   -3.6690   -3.2540 h4        1 EK3      0.022100
     34 H7          6.8000    0.4990   -3.6750 ha        1 EK3      0.144000
     35 H10         6.0700   -1.5050   -6.6800 hn        1 EK3      0.395800
     36 H11         8.1050    0.1330   -5.3050 h1        1 EK3      0.057700
     37 H20         8.5650   -2.3310   -5.0430 hc        1 EK3      0.049200
     38 H21         8.4720   -2.5460   -6.8380 hc        1 EK3      0.049200
     39 H19        10.4640   -0.7570   -5.2820 hc        1 EK3      0.041200
     40 H18        10.8280   -2.3260   -6.1020 hc        1 EK3      0.041200
     41 H17        11.5080   -0.3270   -7.4750 hc        1 EK3      0.042200
     42 H16        10.2900   -1.3700   -8.3100 hc        1 EK3      0.042200
     43 H15         9.7600    1.2780   -6.7990 hc        1 EK3      0.041200
     44 H14         9.6860    1.0060   -8.5850 hc        1 EK3      0.041200
     45 H13         7.7970   -0.5770   -8.3160 hc        1 EK3      0.049200
     46 H12         7.4130    1.0230   -7.5580 hc        1 EK3      0.049200
@<TRIPOS>BOND
     1    1    2 1   
     2    2    3 ar  
     3    2    7 ar  
     4    3    4 ar  
     5    3   26 1   
     6    4    5 ar  
     7    4   27 1   
     8    5    6 ar  
     9    5    8 1   
    10    6    7 ar  
    11    6   28 1   
    12    7   29 1   
    13    8    9 1   
    14    8   12 2   
    15    9   10 2   
    16    9   13 1   
    17   10   11 1   
    18   10   30 1   
    19   11   12 1   
    20   11   31 1   
    21   13   14 ar  
    22   13   18 ar  
    23   14   15 ar  
    24   14   32 1   
    25   15   16 ar  
    26   15   33 1   
    27   16   17 ar  
    28   17   18 ar  
    29   17   19 1   
    30   18   34 1   
    31   19   20 1   
    32   19   35 1   
    33   20   21 1   
    34   20   25 1   
    35   20   36 1   
    36   21   22 1   
    37   21   37 1   
    38   21   38 1   
    39   22   23 1   
    40   22   39 1   
    41   22   40 1   
    42   23   24 1   
    43   23   41 1   
    44   23   42 1   
    45   24   25 1   
    46   24   43 1   
    47   24   44 1   
    48   25   45 1   
    49   25   46 1   
@<TRIPOS>SUBSTRUCTURE
     1 EK3         1 TEMP              0 ****  ****    0 ROOT
