@<TRIPOS>MOLECULE
EK3
   46    49     1     0     0
SMALL
bcc


@<TRIPOS>ATOM
      1 F          -0.0690   -1.3290    1.0810 f         1 EK3     -0.140900
      2 C1          1.1960   -0.9200    0.8210 ca        1 EK3      0.130900
      3 C6          2.1450   -0.8730    1.8590 ca        1 EK3     -0.172500
      4 C5          3.4410   -0.4500    1.5840 ca        1 EK3     -0.082000
      5 C4          3.8090   -0.0790    0.2830 ca        1 EK3     -0.136500
      6 C3          2.8570   -0.1270   -0.7450 ca        1 EK3     -0.082000
      7 C2          1.5560   -0.5440   -0.4860 ca        1 EK3     -0.172500
      8 C7          5.1610    0.3830    0.0060 cc        1 EK3      0.380800
      9 C9          5.9850    0.0880   -1.1600 cc        1 EK3     -0.203300
     10 C8          7.1770    0.8090   -0.9420 cd        1 EK3     -0.129300
     11 N2          7.0280    1.4580    0.2790 na        1 EK3     -0.008600
     12 N1          5.8480    1.2200    0.8460 nd        1 EK3     -0.507800
     13 C10         5.7150   -0.7620   -2.2920 ca        1 EK3      0.057000
     14 C14         4.9620   -1.9380   -2.1610 ca        1 EK3     -0.270300
     15 C13         4.7640   -2.7300   -3.3030 ca        1 EK3      0.424200
     16 N3          5.2550   -2.4500   -4.5180 nb        1 EK3     -0.719000
     17 C12         5.9840   -1.2940   -4.6590 ca        1 EK3      0.609200
     18 C11         6.2320   -0.4340   -3.5520 ca        1 EK3     -0.267300
     19 N4          6.4110   -0.9070   -5.9580 nu        1 EK3     -0.809900
     20 C15         7.8320   -0.6160   -6.1150 c3        1 EK3      0.187500
     21 C20         8.7480   -1.8480   -5.9970 c3        1 EK3     -0.093400
     22 C19        10.2020   -1.4460   -6.1130 c3        1 EK3     -0.074900
     23 C18        10.4720   -0.7200   -7.4150 c3        1 EK3     -0.080400
     24 C17         9.5520    0.4720   -7.5770 c3        1 EK3     -0.074900
     25 C16         8.0960    0.0700   -7.4670 c3        1 EK3     -0.093400
     26 H5          1.8530   -1.1670    2.8770 ha        1 EK3      0.150500
     27 H4          4.1800   -0.4060    2.3990 ha        1 EK3      0.150000
     28 H3          3.1450    0.1650   -1.7670 ha        1 EK3      0.150000
     29 H2          0.8070   -0.5810   -1.2900 ha        1 EK3      0.150500
     30 H6          8.0810    0.8870   -1.5460 h4        1 EK3      0.181000
     31 H1          7.6830    2.0570    0.7260 hn        1 EK3      0.326700
     32 H9          4.5340   -2.2280   -1.1930 ha        1 EK3      0.154000
     33 H8          4.1770   -3.6660   -3.2400 h4        1 EK3      0.022100
     34 H7          6.8040    0.4950   -3.6820 ha        1 EK3      0.144000
     35 H10         6.0930   -1.5380   -6.6730 hn        1 EK3      0.395800
     36 H11         8.1220    0.1100   -5.2990 h1        1 EK3      0.057700
     37 H20         8.5750   -2.3520   -5.0100 hc        1 EK3      0.049200
     38 H21         8.4950   -2.5840   -6.8030 hc        1 EK3      0.049200
     39 H19        10.8460   -2.3610   -6.0530 hc        1 EK3      0.041200
     40 H18        10.4790   -0.7830   -5.2510 hc        1 EK3      0.041200
     41 H17        11.5390   -0.3770   -7.4400 hc        1 EK3      0.042200
     42 H16        10.3240   -1.4260   -8.2740 hc        1 EK3      0.042200
     43 H15         9.7280    0.9490   -8.5760 hc        1 EK3      0.041200
     44 H14         9.7900    1.2380   -6.7920 hc        1 EK3      0.041200
     45 H13         7.4480    0.9800   -7.5650 hc        1 EK3      0.049200
     46 H12         7.8330   -0.6280   -8.3050 hc        1 EK3      0.049200
@<TRIPOS>BOND
     1    1    2 1   
     2    2    3 ar  
     3    2    7 ar  
     4    3    4 ar  
     5    3   26 1   
     6    4    5 ar  
     7    4   27 1   
     8    5    6 ar  
     9    5    8 1   
    10    6    7 ar  
    11    6   28 1   
    12    7   29 1   
    13    8    9 1   
    14    8   12 2   
    15    9   10 2   
    16    9   13 1   
    17   10   11 1   
    18   10   30 1   
    19   11   12 1   
    20   11   31 1   
    21   13   14 ar  
    22   13   18 ar  
    23   14   15 ar  
    24   14   32 1   
    25   15   16 ar  
    26   15   33 1   
    27   16   17 ar  
    28   17   18 ar  
    29   17   19 1   
    30   18   34 1   
    31   19   20 1   
    32   19   35 1   
    33   20   21 1   
    34   20   25 1   
    35   20   36 1   
    36   21   22 1   
    37   21   37 1   
    38   21   38 1   
    39   22   23 1   
    40   22   39 1   
    41   22   40 1   
    42   23   24 1   
    43   23   41 1   
    44   23   42 1   
    45   24   25 1   
    46   24   43 1   
    47   24   44 1   
    48   25   45 1   
    49   25   46 1   
@<TRIPOS>SUBSTRUCTURE
     1 EK3         1 TEMP              0 ****  ****    0 ROOT
