@<TRIPOS>MOLECULE
EK3
   47    50     1     0     0
SMALL
bcc


@<TRIPOS>ATOM
      1 F          -0.1150    0.5740   -0.6570 f         1 EK3     -0.123900
      2 C1          1.2020    0.3780   -0.4220 ca        1 EK3      0.148900
      3 C6          1.6170   -0.6780    0.4120 ca        1 EK3     -0.169500
      4 C5          2.9730   -0.8750    0.6460 ca        1 EK3     -0.083000
      5 C4          3.9240   -0.0360    0.0490 ca        1 EK3     -0.169500
      6 C3          3.5070    1.0220   -0.7680 ca        1 EK3     -0.083000
      7 C2          2.1540    1.2330   -1.0110 ca        1 EK3     -0.169500
      8 C7          5.3430   -0.2450    0.3080 cc        1 EK3      0.404800
      9 C9          6.3170   -0.8960   -0.5650 cc        1 EK3     -0.267300
     10 C8          7.5380   -0.8120    0.1470 cd        1 EK3     -0.104300
     11 N2          7.2530   -0.1630    1.3370 na        1 EK3      0.010400
     12 N1          5.9690    0.1790    1.4450 nd        1 EK3     -0.469800
     13 C10         6.1050   -1.5070   -1.8420 ca        1 EK3      0.103000
     14 C14         4.8540   -2.0270   -2.2120 ca        1 EK3     -0.198300
     15 C13         4.7040   -2.6230   -3.4780 ca        1 EK3      0.436200
     16 N3          5.6950   -2.7310   -4.3760 nb        1 EK3     -0.665000
     17 C12         6.9060   -2.2250   -4.0070 ca        1 EK3      0.457200
     18 C11         7.1660   -1.6080   -2.7690 ca        1 EK3     -0.230300
     19 N4          8.0040   -2.3490   -4.9930 n4        1 EK3     -0.749700
     20 C15         8.2710   -1.0480   -5.7210 c3        1 EK3      0.129500
     21 C20         9.6970   -1.0370   -6.2860 c3        1 EK3     -0.099900
     22 C19         9.9630    0.3000   -6.9510 c3        1 EK3     -0.077900
     23 C18         8.9500    0.5910   -8.0390 c3        1 EK3     -0.091400
     24 C17         7.5350    0.5190   -7.5060 c3        1 EK3     -0.077900
     25 C16         7.2550   -0.8160   -6.8440 c3        1 EK3     -0.099900
     26 H5          0.8640   -1.3280    0.8820 ha        1 EK3      0.161500
     27 H4          3.2990   -1.6860    1.3160 ha        1 EK3      0.147500
     28 H3          4.2510    1.7020   -1.2110 ha        1 EK3      0.147500
     29 H2          1.8190    2.0660   -1.6460 ha        1 EK3      0.161500
     30 H6          8.5360   -1.1740   -0.1010 h4        1 EK3      0.181000
     31 H1          7.8870    0.0480    2.0770 hn        1 EK3      0.343700
     32 H9          3.9980   -1.9690   -1.5190 ha        1 EK3      0.191000
     33 H8          3.7300   -3.0450   -3.8000 h4        1 EK3      0.062100
     34 H7          8.1560   -1.2060   -2.5120 ha        1 EK3      0.157000
     35 H10         8.8500   -2.6320   -4.4880 hn        1 EK3      0.458800
     36 H11         8.1690   -0.2260   -4.9510 hx        1 EK3      0.106700
     37 H20         9.8200   -1.8590   -7.0400 hc        1 EK3      0.066700
     38 H21        10.4470   -1.1980   -5.4680 hc        1 EK3      0.066700
     39 H19         9.9370    1.1160   -6.1810 hc        1 EK3      0.066450
     40 H18        10.9960    0.2840   -7.3900 hc        1 EK3      0.066450
     41 H17         9.1400    1.6130   -8.4590 hc        1 EK3      0.066200
     42 H16         9.0760   -0.1440   -8.8770 hc        1 EK3      0.066200
     43 H15         7.3630    1.3490   -6.7710 hc        1 EK3      0.066450
     44 H14         6.8070    0.6610   -8.3490 hc        1 EK3      0.066450
     45 H13         7.3320   -1.6350   -7.6070 hc        1 EK3      0.066700
     46 H12         6.2120   -0.8200   -6.4330 hc        1 EK3      0.066700
     47 H42         7.7730   -3.0750   -5.6860 hn        1 EK3      0.458800
@<TRIPOS>BOND
     1    1    2 1   
     2    2    3 ar  
     3    2    7 ar  
     4    3    4 ar  
     5    3   26 1   
     6    4    5 ar  
     7    4   27 1   
     8    5    6 ar  
     9    5    8 1   
    10    6    7 ar  
    11    6   28 1   
    12    7   29 1   
    13    8    9 1   
    14    8   12 2   
    15    9   10 2   
    16    9   13 1   
    17   10   11 1   
    18   10   30 1   
    19   11   12 1   
    20   11   31 1   
    21   13   14 ar  
    22   13   18 ar  
    23   14   15 ar  
    24   14   32 1   
    25   15   16 ar  
    26   15   33 1   
    27   16   17 ar  
    28   17   18 ar  
    29   17   19 1   
    30   18   34 1   
    31   19   20 1   
    32   19   35 1   
    33   19   47 1   
    34   20   21 1   
    35   20   25 1   
    36   20   36 1   
    37   21   22 1   
    38   21   37 1   
    39   21   38 1   
    40   22   23 1   
    41   22   39 1   
    42   22   40 1   
    43   23   24 1   
    44   23   41 1   
    45   23   42 1   
    46   24   25 1   
    47   24   43 1   
    48   24   44 1   
    49   25   45 1   
    50   25   46 1   
@<TRIPOS>SUBSTRUCTURE
     1 EK3         1 TEMP              0 ****  ****    0 ROOT
