@<TRIPOS>MOLECULE
EK4
   52    55     1     0     0
SMALL
bcc


@<TRIPOS>ATOM
      1 O1         -0.5150    1.9700   -0.1720 o         1 EK4     -0.429100
      2 C15         0.4140    1.2040   -0.3920 c         1 EK4      0.605700
      3 N4          0.6670    0.1540    0.6770 ny        1 EK4     -0.673800
      4 C16         1.0930    0.7560    1.9920 c3        1 EK4      0.154800
      5 C18         0.9610   -0.2540    3.0910 ca        1 EK4     -0.183300
      6 C23         0.1180    0.0250    4.1730 ca        1 EK4     -0.110500
      7 C22        -0.0000   -0.8940    5.2160 ca        1 EK4     -0.113000
      8 C21         0.7110   -2.0940    5.1780 ca        1 EK4     -0.083000
      9 C20         1.5480   -2.3760    4.0950 ca        1 EK4     -0.113000
     10 C19         1.6750   -1.4580    3.0550 ca        1 EK4     -0.110500
     11 C17         2.5250    1.3340    1.9060 c3        1 EK4      0.113400
     12 O2          3.4030    0.4290    1.2720 oh        1 EK4     -0.635800
     13 C13         1.2330    1.0960   -1.5730 cc        1 EK4     -0.290900
     14 C12         0.7350    1.1410   -2.9010 cd        1 EK4     -0.023000
     15 N3          2.6000    0.7600   -1.6190 na        1 EK4     -0.148100
     16 C14         2.9600    0.5940   -2.9340 cc        1 EK4     -0.025300
     17 C11         1.8150    0.7770   -3.7560 cd        1 EK4     -0.117000
     18 C10         1.7250    0.4370   -5.1470 cd        1 EK4     -0.049300
     19 N2          1.8280    1.3360   -6.2150 na        1 EK4      0.009400
     20 N1          1.7060    0.7340   -7.3940 nd        1 EK4     -0.479800
     21 C9          1.5250   -0.5900   -7.1540 cc        1 EK4      0.316200
     22 C8          1.5250   -0.8420   -5.7270 cc        1 EK4     -0.192300
     23 C4          1.3710   -2.1120   -5.0670 ca        1 EK4      0.011000
     24 C3          0.8300   -2.1840   -3.7750 ca        1 EK4     -0.095000
     25 C5          1.7730   -3.3030   -5.6960 ca        1 EK4     -0.083000
     26 C6          1.6600   -4.5240   -5.0360 ca        1 EK4     -0.121000
     27 C7          1.1550   -4.5870   -3.7360 ca        1 EK4     -0.076000
     28 C2          0.7460   -3.4080   -3.1110 ca        1 EK4     -0.174300
     29 C1          0.1890   -3.4370   -1.6970 c3        1 EK4      0.698200
     30 F1          0.5620   -2.3560   -0.9140 f         1 EK4     -0.251967
     31 F2         -1.1800   -3.4130   -1.6070 f         1 EK4     -0.251967
     32 F3          0.5660   -4.5130   -0.9360 f         1 EK4     -0.251967
     33 H11        -0.2040   -0.3720    0.8280 hn        1 EK4      0.469300
     34 H3          0.3890    1.6250    2.1870 hx        1 EK4      0.123700
     35 H19        -0.4500    0.9680    4.2110 ha        1 EK4      0.138500
     36 H18        -0.6600   -0.6700    6.0690 ha        1 EK4      0.160000
     37 H17         0.6130   -2.8200    6.0010 ha        1 EK4      0.162000
     38 H16         2.1070   -3.3240    4.0630 ha        1 EK4      0.160000
     39 H15         2.3410   -1.6870    2.2080 ha        1 EK4      0.138500
     40 H12         2.8590    1.6000    2.9420 h1        1 EK4      0.089700
     41 H13         2.5260    2.2560    1.2600 h1        1 EK4      0.089700
     42 H14         3.8700   -0.0750    1.9520 ho        1 EK4      0.445000
     43 H9         -0.2880    1.3760   -3.1960 ha        1 EK4      0.192000
     44 H2          3.2200    0.7780   -0.8420 hn        1 EK4      0.332700
     45 H10         3.9860    0.3480   -3.2300 h4        1 EK4      0.207000
     46 H1          1.9630    2.3200   -6.1570 hn        1 EK4      0.334700
     47 H8          1.3910   -1.3150   -7.9600 h4        1 EK4      0.058100
     48 H4          0.4680   -1.2720   -3.2780 ha        1 EK4      0.135000
     49 H5          2.1840   -3.2650   -6.7180 ha        1 EK4      0.153000
     50 H6          1.9740   -5.4520   -5.5410 ha        1 EK4      0.157000
     51 H7          1.0810   -5.5510   -3.2090 ha        1 EK4      0.159000
     52 H42         1.3850   -0.5160    0.3680 hn        1 EK4      0.469300
@<TRIPOS>BOND
     1    1    2 2   
     2    2    3 1   
     3    2   13 1   
     4    3    4 1   
     5    3   33 1   
     6    3   52 1   
     7    4    5 1   
     8    4   11 1   
     9    4   34 1   
    10    5    6 ar  
    11    5   10 ar  
    12    6    7 ar  
    13    6   35 1   
    14    7    8 ar  
    15    7   36 1   
    16    8    9 ar  
    17    8   37 1   
    18    9   10 ar  
    19    9   38 1   
    20   10   39 1   
    21   11   12 1   
    22   11   40 1   
    23   11   41 1   
    24   12   42 1   
    25   13   14 2   
    26   13   15 1   
    27   14   17 1   
    28   14   43 1   
    29   15   16 1   
    30   15   44 1   
    31   16   17 2   
    32   16   45 1   
    33   17   18 1   
    34   18   19 1   
    35   18   22 2   
    36   19   20 1   
    37   19   46 1   
    38   20   21 2   
    39   21   22 1   
    40   21   47 1   
    41   22   23 1   
    42   23   24 ar  
    43   23   25 ar  
    44   24   28 ar  
    45   24   48 1   
    46   25   26 ar  
    47   25   49 1   
    48   26   27 ar  
    49   26   50 1   
    50   27   28 ar  
    51   27   51 1   
    52   28   29 1   
    53   29   30 1   
    54   29   31 1   
    55   29   32 1   
@<TRIPOS>SUBSTRUCTURE
     1 EK4         1 TEMP              0 ****  ****    0 ROOT
