@<TRIPOS>MOLECULE
EK4
   52    55     1     0     0
SMALL
bcc


@<TRIPOS>ATOM
      1 O1         -0.5490    1.9310   -0.1170 o         1 EK4     -0.429100
      2 C15         0.3900    1.1840   -0.3570 c         1 EK4      0.605700
      3 N4          0.6730    0.1240    0.6960 n4        1 EK4     -0.673800
      4 C16         1.1050    0.7180    2.0130 c3        1 EK4      0.154800
      5 C18         1.0030   -0.3070    3.1010 ca        1 EK4     -0.183300
      6 C23         0.1690   -0.0560    4.1970 ca        1 EK4     -0.110500
      7 C22         0.0780   -0.9900    5.2290 ca        1 EK4     -0.113000
      8 C21         0.8090   -2.1760    5.1680 ca        1 EK4     -0.083000
      9 C20         1.6370   -2.4310    4.0720 ca        1 EK4     -0.113000
     10 C19         1.7370   -1.5000    3.0420 ca        1 EK4     -0.110500
     11 C17         2.5260    1.3200    1.9160 c3        1 EK4      0.113400
     12 O2          3.4110    0.4380    1.2600 oh        1 EK4     -0.635800
     13 C13         1.1950    1.1020   -1.5490 cc        1 EK4     -0.290900
     14 C12         0.6800    1.1550   -2.8710 cd        1 EK4     -0.023000
     15 N3          2.5670    0.7890   -1.6160 na        1 EK4     -0.148100
     16 C14         2.9130    0.6440   -2.9380 cc        1 EK4     -0.025300
     17 C11         1.7540    0.8180   -3.7430 cd        1 EK4     -0.117000
     18 C10         1.6520    0.4940   -5.1360 cd        1 EK4     -0.049300
     19 N2          1.7280    1.4070   -6.1950 na        1 EK4      0.009400
     20 N1          1.6010    0.8170   -7.3800 nd        1 EK4     -0.479800
     21 C9          1.4420   -0.5130   -7.1540 cc        1 EK4      0.316200
     22 C8          1.4640   -0.7820   -5.7300 cc        1 EK4     -0.192300
     23 C4          1.3370   -2.0610   -5.0830 ca        1 EK4      0.011000
     24 C3          0.8140   -2.1570   -3.7860 ca        1 EK4     -0.095000
     25 C5          1.7500   -3.2390   -5.7310 ca        1 EK4     -0.083000
     26 C6          1.6630   -4.4690   -5.0850 ca        1 EK4     -0.121000
     27 C7          1.1760   -4.5550   -3.7790 ca        1 EK4     -0.076000
     28 C2          0.7560   -3.3900   -3.1350 ca        1 EK4     -0.174300
     29 C1          0.2170   -3.4440   -1.7150 c3        1 EK4      0.698200
     30 F1          0.5840   -2.3670   -0.9230 f         1 EK4     -0.251967
     31 F2         -1.1510   -3.4410   -1.6090 f         1 EK4     -0.251967
     32 F3          0.6190   -4.5240   -0.9720 f         1 EK4     -0.251967
     33 H11         1.3970   -0.5290    0.3710 hn        1 EK4      0.469300
     34 H3          0.3890    1.5730    2.2280 hx        1 EK4      0.123700
     35 H19        -0.4140    0.8770    4.2530 ha        1 EK4      0.138500
     36 H18        -0.5750   -0.7870    6.0930 ha        1 EK4      0.160000
     37 H17         0.7330   -2.9140    5.9830 ha        1 EK4      0.162000
     38 H16         2.2110   -3.3700    4.0210 ha        1 EK4      0.160000
     39 H15         2.3960   -1.7070    2.1840 ha        1 EK4      0.138500
     40 H12         2.5040    2.2510    1.2830 h1        1 EK4      0.089700
     41 H13         2.8680    1.5790    2.9520 h1        1 EK4      0.089700
     42 H14         3.8950   -0.0660    1.9280 ho        1 EK4      0.445000
     43 H9         -0.3510    1.3770   -3.1490 ha        1 EK4      0.192000
     44 H2          3.1960    0.8080   -0.8470 hn        1 EK4      0.332700
     45 H10         3.9390    0.4180   -3.2490 h4        1 EK4      0.207000
     46 H1          1.8500    2.3920   -6.1270 hn        1 EK4      0.334700
     47 H8          1.3090   -1.2300   -7.9660 h4        1 EK4      0.058100
     48 H4          0.4440   -1.2560   -3.2730 ha        1 EK4      0.135000
     49 H5          2.1480   -3.1820   -6.7570 ha        1 EK4      0.153000
     50 H6          1.9850   -5.3850   -5.6050 ha        1 EK4      0.157000
     51 H7          1.1230   -5.5270   -3.2630 ha        1 EK4      0.159000
     52 H42        -0.1880   -0.4180    0.8510 hn        1 EK4      0.469300
@<TRIPOS>BOND
     1    1    2 2   
     2    2    3 1   
     3    2   13 1   
     4    3    4 1   
     5    3   33 1   
     6    3   52 1   
     7    4    5 1   
     8    4   11 1   
     9    4   34 1   
    10    5    6 ar  
    11    5   10 ar  
    12    6    7 ar  
    13    6   35 1   
    14    7    8 ar  
    15    7   36 1   
    16    8    9 ar  
    17    8   37 1   
    18    9   10 ar  
    19    9   38 1   
    20   10   39 1   
    21   11   12 1   
    22   11   40 1   
    23   11   41 1   
    24   12   42 1   
    25   13   14 2   
    26   13   15 1   
    27   14   17 1   
    28   14   43 1   
    29   15   16 1   
    30   15   44 1   
    31   16   17 2   
    32   16   45 1   
    33   17   18 1   
    34   18   19 1   
    35   18   22 2   
    36   19   20 1   
    37   19   46 1   
    38   20   21 2   
    39   21   22 1   
    40   21   47 1   
    41   22   23 1   
    42   23   24 ar  
    43   23   25 ar  
    44   24   28 ar  
    45   24   48 1   
    46   25   26 ar  
    47   25   49 1   
    48   26   27 ar  
    49   26   50 1   
    50   27   28 ar  
    51   27   51 1   
    52   28   29 1   
    53   29   30 1   
    54   29   31 1   
    55   29   32 1   
@<TRIPOS>SUBSTRUCTURE
     1 EK4         1 TEMP              0 ****  ****    0 ROOT
