@<TRIPOS>MOLECULE
EK4
   52    55     1     0     0
SMALL
bcc


@<TRIPOS>ATOM
      1 O1         -0.5130    1.9410   -0.0720 o         1 EK4     -0.429100
      2 C15         0.4160    1.1870   -0.3310 c         1 EK4      0.605700
      3 N4          0.7050    0.1190    0.7120 n4        1 EK4     -0.673800
      4 C16         1.1630    0.7000    2.0260 c3        1 EK4      0.154800
      5 C18         1.0680   -0.3300    3.1090 ca        1 EK4     -0.183300
      6 C23         0.2520   -0.0790    4.2180 ca        1 EK4     -0.110500
      7 C22         0.1690   -1.0170    5.2470 ca        1 EK4     -0.113000
      8 C21         0.8870   -2.2100    5.1670 ca        1 EK4     -0.083000
      9 C20         1.6960   -2.4660    4.0570 ca        1 EK4     -0.113000
     10 C19         1.7890   -1.5290    3.0310 ca        1 EK4     -0.110500
     11 C17         2.5870    1.2910    1.9110 c3        1 EK4      0.113400
     12 O2          3.4540    0.4050    1.2370 oh        1 EK4     -0.635800
     13 C13         1.2030    1.1060   -1.5350 cc        1 EK4     -0.290900
     14 C12         0.6690    1.1720   -2.8490 cd        1 EK4     -0.023000
     15 N3          2.5710    0.7820   -1.6240 na        1 EK4     -0.148100
     16 C14         2.8970    0.6430   -2.9510 cc        1 EK4     -0.025300
     17 C11         1.7280    0.8320   -3.7380 cd        1 EK4     -0.117000
     18 C10         1.6030    0.5170   -5.1320 cd        1 EK4     -0.049300
     19 N2          1.6700    1.4360   -6.1860 na        1 EK4      0.009400
     20 N1          1.5220    0.8550   -7.3730 nd        1 EK4     -0.479800
     21 C9          1.3560   -0.4750   -7.1530 cc        1 EK4      0.316200
     22 C8          1.3960   -0.7530   -5.7310 cc        1 EK4     -0.192300
     23 C4          1.2690   -2.0350   -5.0900 ca        1 EK4      0.011000
     24 C3          0.7640   -2.1360   -3.7860 ca        1 EK4     -0.095000
     25 C5          1.6630   -3.2120   -5.7520 ca        1 EK4     -0.083000
     26 C6          1.5760   -4.4460   -5.1120 ca        1 EK4     -0.121000
     27 C7          1.1070   -4.5360   -3.8000 ca        1 EK4     -0.076000
     28 C2          0.7070   -3.3720   -3.1430 ca        1 EK4     -0.174300
     29 C1          0.1880   -3.4320   -1.7150 c3        1 EK4      0.698200
     30 F1          0.5750   -2.3620   -0.9220 f         1 EK4     -0.251967
     31 F2         -1.1780   -3.4190   -1.5880 f         1 EK4     -0.251967
     32 F3          0.5930   -4.5190   -0.9850 f         1 EK4     -0.251967
     33 H11         1.4190   -0.5390    0.3710 hn        1 EK4      0.469300
     34 H3          0.4570    1.5600    2.2560 hx        1 EK4      0.123700
     35 H19        -0.3210    0.8590    4.2890 ha        1 EK4      0.138500
     36 H18        -0.4700   -0.8140    6.1220 ha        1 EK4      0.160000
     37 H17         0.8170   -2.9520    5.9790 ha        1 EK4      0.162000
     38 H16         2.2610   -3.4090    3.9930 ha        1 EK4      0.160000
     39 H15         2.4330   -1.7370    2.1630 ha        1 EK4      0.138500
     40 H12         2.5650    2.2250    1.2830 h1        1 EK4      0.089700
     41 H13         2.9470    1.5400    2.9430 h1        1 EK4      0.089700
     42 H14         3.9430   -0.1080    1.8950 ho        1 EK4      0.445000
     43 H9         -0.3630    1.4040   -3.1110 ha        1 EK4      0.192000
     44 H2          3.2110    0.7900   -0.8640 hn        1 EK4      0.332700
     45 H10         3.9160    0.4100   -3.2790 h4        1 EK4      0.207000
     46 H1          1.8000    2.4200   -6.1140 hn        1 EK4      0.334700
     47 H8          1.2060   -1.1860   -7.9670 h4        1 EK4      0.058100
     48 H4          0.4090   -1.2350   -3.2630 ha        1 EK4      0.135000
     49 H5          2.0460   -3.1520   -6.7840 ha        1 EK4      0.153000
     50 H6          1.8830   -5.3610   -5.6430 ha        1 EK4      0.157000
     51 H7          1.0540   -5.5110   -3.2890 ha        1 EK4      0.159000
     52 H42        -0.1580   -0.4170    0.8760 hn        1 EK4      0.469300
@<TRIPOS>BOND
     1    1    2 2   
     2    2    3 1   
     3    2   13 1   
     4    3    4 1   
     5    3   33 1   
     6    3   52 1   
     7    4    5 1   
     8    4   11 1   
     9    4   34 1   
    10    5    6 ar  
    11    5   10 ar  
    12    6    7 ar  
    13    6   35 1   
    14    7    8 ar  
    15    7   36 1   
    16    8    9 ar  
    17    8   37 1   
    18    9   10 ar  
    19    9   38 1   
    20   10   39 1   
    21   11   12 1   
    22   11   40 1   
    23   11   41 1   
    24   12   42 1   
    25   13   14 2   
    26   13   15 1   
    27   14   17 1   
    28   14   43 1   
    29   15   16 1   
    30   15   44 1   
    31   16   17 2   
    32   16   45 1   
    33   17   18 1   
    34   18   19 1   
    35   18   22 2   
    36   19   20 1   
    37   19   46 1   
    38   20   21 2   
    39   21   22 1   
    40   21   47 1   
    41   22   23 1   
    42   23   24 ar  
    43   23   25 ar  
    44   24   28 ar  
    45   24   48 1   
    46   25   26 ar  
    47   25   49 1   
    48   26   27 ar  
    49   26   50 1   
    50   27   28 ar  
    51   27   51 1   
    52   28   29 1   
    53   29   30 1   
    54   29   31 1   
    55   29   32 1   
@<TRIPOS>SUBSTRUCTURE
     1 EK4         1 TEMP              0 ****  ****    0 ROOT
