@<TRIPOS>MOLECULE
EK4
   51    54     1     0     0
SMALL
bcc


@<TRIPOS>ATOM
      1 O1          1.8280   -1.4270    0.0660 o         1 EK4     -0.588100
      2 C15         2.1950   -0.2380    0.0010 c         1 EK4      0.690700
      3 N4          3.5290    0.1310    0.1450 n         1 EK4     -0.541900
      4 C16         4.5210   -0.8470    0.5460 c3        1 EK4      0.138000
      5 C18         5.8450   -0.5760   -0.1270 ca        1 EK4     -0.098300
      6 C23         6.3020   -1.4480   -1.1210 ca        1 EK4     -0.114500
      7 C22         7.5230   -1.2100   -1.7510 ca        1 EK4     -0.134500
      8 C21         8.2880   -0.0990   -1.3990 ca        1 EK4     -0.123000
      9 C20         7.8320    0.7760   -0.4130 ca        1 EK4     -0.134500
     10 C19         6.6130    0.5390    0.2220 ca        1 EK4     -0.114500
     11 C17         4.7080   -0.9530    2.0790 c3        1 EK4      0.103400
     12 O2          4.8550    0.3500    2.6220 oh        1 EK4     -0.615800
     13 C13         1.2260    0.8370   -0.2980 cc        1 EK4     -0.192900
     14 C12        -0.1460    0.8290    0.0060 cd        1 EK4     -0.088000
     15 N3          1.5320    2.0400   -0.9500 na        1 EK4     -0.151100
     16 C14         0.3720    2.7790   -1.0790 cc        1 EK4     -0.121300
     17 C11        -0.6920    2.0630   -0.4850 cd        1 EK4     -0.124000
     18 C10        -2.0480    2.5070   -0.3800 cd        1 EK4      0.012700
     19 N2         -2.3840    3.8680   -0.2480 na        1 EK4     -0.023600
     20 N1         -3.6960    4.0680   -0.1430 nd        1 EK4     -0.506800
     21 C9         -4.2840    2.8490   -0.2080 cc        1 EK4      0.309200
     22 C8         -3.2800    1.8100   -0.3630 cc        1 EK4     -0.207300
     23 C4         -3.5600    0.4040   -0.4860 ca        1 EK4      0.009000
     24 C3         -4.6890   -0.1370    0.1520 ca        1 EK4     -0.082000
     25 C5         -2.7410   -0.4430   -1.2490 ca        1 EK4     -0.100000
     26 C6         -3.0420   -1.7980   -1.3730 ca        1 EK4     -0.129000
     27 C7         -4.1630   -2.3320   -0.7400 ca        1 EK4     -0.089000
     28 C2         -4.9810   -1.4930    0.0210 ca        1 EK4     -0.166300
     29 C1         -6.1970   -2.0710    0.7320 c3        1 EK4      0.687200
     30 F1         -5.9470   -2.5160    2.0090 f         1 EK4     -0.239300
     31 F2         -7.2430   -1.1920    0.8870 f         1 EK4     -0.239300
     32 F3         -6.7650   -3.1560    0.1080 f         1 EK4     -0.239300
     33 H11         3.7290    1.0600    0.4390 hn        1 EK4      0.310500
     34 H3          4.1470   -1.8670    0.2130 h1        1 EK4      0.095700
     35 H19         5.6990   -2.3230   -1.4080 ha        1 EK4      0.143000
     36 H18         7.8810   -1.9010   -2.5290 ha        1 EK4      0.133500
     37 H17         9.2510    0.0880   -1.8980 ha        1 EK4      0.133000
     38 H16         8.4340    1.6520   -0.1330 ha        1 EK4      0.133500
     39 H15         6.2560    1.2190    1.0120 ha        1 EK4      0.143000
     40 H12         3.8070   -1.4500    2.5300 h1        1 EK4      0.041200
     41 H13         5.6230   -1.5660    2.2930 h1        1 EK4      0.041200
     42 H14         4.9570    0.2410    3.5740 ho        1 EK4      0.410000
     43 H9         -0.6860    0.0330    0.5150 ha        1 EK4      0.183000
     44 H2          2.4080    2.2650   -1.3450 hn        1 EK4      0.308700
     45 H10         0.3630    3.7480   -1.5830 h4        1 EK4      0.173000
     46 H1         -1.7460    4.6250   -0.1830 hn        1 EK4      0.319700
     47 H8         -5.3660    2.7180   -0.1590 h4        1 EK4      0.048100
     48 H4         -5.3450    0.5110    0.7550 ha        1 EK4      0.151000
     49 H5         -1.8530   -0.0280   -1.7520 ha        1 EK4      0.150000
     50 H6         -2.3900   -2.4510   -1.9730 ha        1 EK4      0.144000
     51 H7         -4.4070   -3.4010   -0.8370 ha        1 EK4      0.150000
@<TRIPOS>BOND
     1    1    2 2   
     2    2    3 1   
     3    2   13 1   
     4    3    4 1   
     5    3   33 1   
     6    4    5 1   
     7    4   11 1   
     8    4   34 1   
     9    5    6 ar  
    10    5   10 ar  
    11    6    7 ar  
    12    6   35 1   
    13    7    8 ar  
    14    7   36 1   
    15    8    9 ar  
    16    8   37 1   
    17    9   10 ar  
    18    9   38 1   
    19   10   39 1   
    20   11   12 1   
    21   11   40 1   
    22   11   41 1   
    23   12   42 1   
    24   13   14 2   
    25   13   15 1   
    26   14   17 1   
    27   14   43 1   
    28   15   16 1   
    29   15   44 1   
    30   16   17 2   
    31   16   45 1   
    32   17   18 1   
    33   18   19 1   
    34   18   22 2   
    35   19   20 1   
    36   19   46 1   
    37   20   21 2   
    38   21   22 1   
    39   21   47 1   
    40   22   23 1   
    41   23   24 ar  
    42   23   25 ar  
    43   24   28 ar  
    44   24   48 1   
    45   25   26 ar  
    46   25   49 1   
    47   26   27 ar  
    48   26   50 1   
    49   27   28 ar  
    50   27   51 1   
    51   28   29 1   
    52   29   30 1   
    53   29   31 1   
    54   29   32 1   
@<TRIPOS>SUBSTRUCTURE
     1 EK4         1 TEMP              0 ****  ****    0 ROOT
