@<TRIPOS>MOLECULE
EK4
   51    42     1     0     0
SMALL
bcc


@<TRIPOS>ATOM
      1 O1         -2.0900   -2.6960    1.5070 o         1 EK4     -0.345000
      2 C15        -1.2040   -1.9080    1.3120 c1        1 EK4      0.369000
      3 N4         -0.9010   -0.8920    2.3080 n2        1 EK4     -0.379000
      4 C16        -1.8070   -0.6420    3.3500 c3        1 EK4      0.061000
      5 C18        -1.0370   -0.2560    4.6290 c2        1 EK4     -0.080000
      6 C23        -1.3410   -0.8940    5.8510 c1        1 EK4     -0.100000
      7 C22        -0.6940   -0.4990    7.0260 c1        1 EK4     -0.119250
      8 C21         0.2500    0.5230    6.9910 c1        1 EK4     -0.119250
      9 C20         0.5490    1.1530    5.7830 c1        1 EK4     -0.130000
     10 C19        -0.1050    0.7530    4.5940 c2        1 EK4     -0.133000
     11 C17        -2.7350    0.4880    2.9590 c3        1 EK4     -0.039000
     12 O2         -4.0690    0.1720    3.3730 oh        1 EK4     -0.320000
     13 C13        -0.4210   -1.9600    0.0210 c2        1 EK4     -0.148000
     14 C12        -0.9500   -1.8880   -1.2550 c1        1 EK4     -0.104000
     15 N3          0.9440   -1.9680   -0.0900 n2        1 EK4     -0.156000
     16 C14         1.2620   -1.9020   -1.4160 c1        1 EK4     -0.070000
     17 C11         0.0880   -1.8520   -2.1370 c1        1 EK4     -0.129000
     18 C10        -0.0250   -1.8630   -3.6500 c1        1 EK4     -0.055500
     19 N2         -0.4700   -2.8730   -4.3970 n2        1 EK4     -0.114500
     20 N1         -0.4370   -2.4770   -5.7050 n2        1 EK4     -0.114500
     21 C9          0.0270   -1.2290   -5.7480 c1        1 EK4     -0.055500
     22 C8          0.2870   -0.8350   -4.4800 c1        1 EK4     -0.161000
     23 C4          0.7540    0.5850   -4.0440 c1        1 EK4      0.016000
     24 C3          2.0630    0.9930   -4.2820 c2        1 EK4     -0.081000
     25 C5         -0.1520    1.4620   -3.4420 c1        1 EK4     -0.111000
     26 C6          0.2490    2.7310   -3.0840 c1        1 EK4     -0.119250
     27 C7          1.5450    3.1380   -3.3190 c1        1 EK4     -0.119250
     28 C2          2.4630    2.2560   -3.9250 c1        1 EK4     -0.157000
     29 C1          3.8680    2.7230   -4.2330 c3        1 EK4      0.466000
     30 F1          4.7580    1.7150   -3.9750 f         1 EK4     -0.166333
     31 F2          3.9490    3.0710   -5.5260 f         1 EK4     -0.166333
     32 F3          4.1530    3.7590   -3.4810 f         1 EK4     -0.166333
     33 H11        -0.1440   -0.4740    2.2830 hn        1 EK4      0.220000
     34 H3         -2.3120   -1.4170    3.5140 h1        1 EK4      0.139000
     35 H19        -1.9760   -1.5800    5.8750 ha        1 EK4      0.142000
     36 H18        -0.9070   -0.9470    7.8810 ha        1 EK4      0.140000
     37 H17         0.7090    0.8040    7.8220 ha        1 EK4      0.140000
     38 H16         1.2330    1.8950    5.7580 ha        1 EK4      0.132000
     39 H15         0.1020    1.1830    3.7650 ha        1 EK4      0.124000
     40 H12        -2.7150    0.6090    1.9670 h1        1 EK4      0.074000
     41 H13        -2.4360    1.3440    3.4120 h1        1 EK4      0.074000
     42 H14        -4.5870    0.8510    3.2250 ho        1 EK4      0.205000
     43 H9         -1.9160   -1.8670   -1.4890 DU        1 EK4      0.215600
     44 H2          1.5420   -2.0110    0.6070 DU        1 EK4      0.215600
     45 H10         2.1460   -1.8920   -1.7830 DU        1 EK4      0.215600
     46 H1         -0.7500   -3.6970   -4.0860 DU        1 EK4      0.215600
     47 H8          0.1600   -0.6780   -6.5740 DU        1 EK4      0.215600
     48 H4          2.7210    0.3570   -4.7200 ha        1 EK4      0.156000
     49 H5         -1.0550    1.1810   -3.2780 ha        1 EK4      0.146000
     50 H6         -0.4230    3.3770   -2.6390 ha        1 EK4      0.140000
     51 H7          1.8380    4.0740   -3.0550 ha        1 EK4      0.140000
@<TRIPOS>BOND
     1    1    2 1   
     2    2   13 1   
     3    3    4 1   
     4    3   33 1   
     5    4    5 1   
     6    4   11 1   
     7    4   34 1   
     8    5    6 1   
     9    5   10 1   
    10    6   35 1   
    11    7    8 1   
    12    7   36 1   
    13    8   37 1   
    14    9   10 1   
    15    9   38 1   
    16   10   39 1   
    17   11   12 1   
    18   11   40 1   
    19   11   41 1   
    20   12   42 1   
    21   13   14 1   
    22   13   15 1   
    23   14   17 1   
    24   15   16 1   
    25   16   17 1   
    26   18   19 1   
    27   18   22 1   
    28   19   20 1   
    29   20   21 1   
    30   21   22 1   
    31   23   24 1   
    32   23   25 1   
    33   24   28 1   
    34   24   48 1   
    35   25   49 1   
    36   26   27 1   
    37   26   50 1   
    38   27   51 1   
    39   28   29 1   
    40   29   30 1   
    41   29   31 1   
    42   29   32 1   
@<TRIPOS>SUBSTRUCTURE
     1 EK4         1 TEMP              0 ****  ****    0 ROOT
