@<TRIPOS>MOLECULE
EK5
   49    41     1     0     0
SMALL
bcc


@<TRIPOS>ATOM
      1 O1         -1.3570   -3.6970    1.4410 o         1 EK5     -0.349000
      2 C14        -0.5840   -2.7630    1.2290 c1        1 EK5      0.359000
      3 N4         -0.3650   -1.7640    2.2430 n2        1 EK5     -0.356000
      4 C15        -1.4210   -1.4560    3.2100 c3        1 EK5      0.000000
      5 C16        -1.2240   -0.0270    3.7470 c2        1 EK5     -0.163000
      6 C23        -0.3180    0.2110    4.7960 c2        1 EK5     -0.087000
      7 C22        -0.1580    1.5060    5.3010 c1        1 EK5     -0.158000
      8 C21        -0.9090    2.5810    4.7540 c1        1 EK5      0.081000
      9 O2         -0.9320    4.0370    5.0610 os        1 EK5     -0.204000
     10 C20        -1.7540    4.6750    4.1050 c3        1 EK5     -0.032000
     11 C19        -2.3570    3.6470    3.2840 c3        1 EK5     -0.139000
     12 C18        -1.8060    2.3450    3.7150 c1        1 EK5     -0.153000
     13 C17        -1.9690    1.0370    3.2050 c1        1 EK5     -0.062000
     14 C12         0.1930   -2.7120   -0.0500 c2        1 EK5     -0.150000
     15 C11        -0.3370   -2.5680   -1.3090 c1        1 EK5     -0.103000
     16 N3          1.5490   -2.8780   -0.1760 n2        1 EK5     -0.154000
     17 C13         1.8550   -2.8390   -1.4910 c1        1 EK5     -0.068000
     18 C10         0.6780   -2.6450   -2.2000 c1        1 EK5     -0.126000
     19 C9          0.5420   -2.5950   -3.7210 c1        1 EK5     -0.058000
     20 N2          0.1730   -3.6210   -4.5230 n2        1 EK5     -0.117500
     21 N1          0.1530   -3.1570   -5.8360 n2        1 EK5     -0.117500
     22 C8          0.5130   -1.8460   -5.8250 c1        1 EK5     -0.058000
     23 C7          0.7570   -1.4840   -4.5200 c1        1 EK5     -0.155000
     24 C3          1.2210   -0.0850   -4.0280 c1        1 EK5      0.023000
     25 C2          2.5490    0.2640   -4.1020 c2        1 EK5     -0.122000
     26 C4          0.3000    0.8100   -3.5360 c1        1 EK5     -0.138000
     27 C5          0.7030    2.0460   -3.1200 c1        1 EK5     -0.128000
     28 C6          2.0340    2.3970   -3.1930 c1        1 EK5     -0.128000
     29 C1          2.9570    1.4990   -3.6870 c1        1 EK5     -0.058000
     30 CL          4.5780    2.0260   -4.0290 cl        1 EK5     -0.018000
     31 H10         0.3770   -1.3090    2.2500 hn        1 EK5      0.208000
     32 H12        -2.2950   -1.5230    2.7730 h1        1 EK5      0.111000
     33 H11        -1.3770   -2.0940    3.9570 h1        1 EK5      0.111000
     34 H19         0.1700   -0.5420    5.2070 ha        1 EK5      0.131000
     35 H18         0.4760    1.6720    6.0340 ha        1 EK5      0.152000
     36 H17        -2.4300    5.1500    4.5480 h1        1 EK5      0.100500
     37 H16        -1.1760    5.2830    3.5160 h1        1 EK5      0.100500
     38 H15        -2.1230    3.7990    2.3600 hc        1 EK5      0.106500
     39 H14        -3.3450    3.6480    3.4280 hc        1 EK5      0.106500
     40 H13        -2.6380    0.8630    2.5120 ha        1 EK5      0.160000
     41 H8         -1.2880   -2.4320   -1.5250 DU        1 EK5      0.214800
     42 H2          2.1730   -3.0010    0.5450 DU        1 EK5      0.214800
     43 H9          2.7180   -2.9270   -1.8620 DU        1 EK5      0.214800
     44 H1         -0.0220   -4.4380   -4.2600 DU        1 EK5      0.214800
     45 H7          0.5860   -1.2480   -6.6270 DU        1 EK5      0.214800
     46 H3          3.1910   -0.3630   -4.4460 ha        1 EK5      0.152000
     47 H4         -0.6320    0.5640   -3.4840 ha        1 EK5      0.143000
     48 H5          0.0520    2.6780   -2.7720 ha        1 EK5      0.141000
     49 H6          2.3200    3.2740   -2.8990 ha        1 EK5      0.141000
@<TRIPOS>BOND
     1    1    2 1   
     2    2   14 1   
     3    3    4 1   
     4    3   31 1   
     5    4    5 1   
     6    4   32 1   
     7    4   33 1   
     8    5    6 1   
     9    5   13 1   
    10    6    7 1   
    11    6   34 1   
    12    7   35 1   
    13    8    9 1   
    14    8   12 1   
    15    9   10 1   
    16   10   11 1   
    17   10   36 1   
    18   10   37 1   
    19   11   12 1   
    20   11   38 1   
    21   11   39 1   
    22   13   40 1   
    23   14   15 1   
    24   14   16 1   
    25   15   18 1   
    26   16   17 1   
    27   17   18 1   
    28   19   20 1   
    29   19   23 1   
    30   20   21 1   
    31   21   22 1   
    32   22   23 1   
    33   24   25 1   
    34   24   26 1   
    35   25   29 1   
    36   25   46 1   
    37   26   47 1   
    38   27   28 1   
    39   27   48 1   
    40   28   49 1   
    41   29   30 1   
@<TRIPOS>SUBSTRUCTURE
     1 EK5         1 TEMP              0 ****  ****    0 ROOT
