@<TRIPOS>MOLECULE
EK5
   49    53     1     0     0
SMALL
bcc


@<TRIPOS>ATOM
      1 O1          1.5360   -0.4070    2.4620 o         1 EK5     -0.581100
      2 C14         1.4700    0.7830    2.1010 c         1 EK5      0.684700
      3 N4          2.6020    1.5990    2.0360 n         1 EK5     -0.547900
      4 C15         3.9160    1.0350    2.2360 c3        1 EK5      0.123300
      5 C16         4.5780    0.5030    0.9970 ca        1 EK5     -0.170300
      6 C23         5.6010    1.2240    0.3800 ca        1 EK5     -0.088000
      7 C22         6.2520    0.7380   -0.7610 ca        1 EK5     -0.158000
      8 C21         5.8320   -0.4910   -1.2500 ca        1 EK5      0.125100
      9 O2          6.3600   -1.1220   -2.3640 os        1 EK5     -0.320900
     10 C20         5.6480   -2.3830   -2.5310 c3        1 EK5      0.118400
     11 C19         4.6000   -2.5000   -1.4080 c3        1 EK5     -0.053100
     12 C18         4.7920   -1.2380   -0.6360 ca        1 EK5     -0.160300
     13 C17         4.1640   -0.7430    0.4880 ca        1 EK5     -0.061000
     14 C12         0.1690    1.4060    1.7820 cc        1 EK5     -0.198900
     15 C11        -0.9770    0.7430    1.3070 cd        1 EK5     -0.081000
     16 N3         -0.1280    2.7690    1.9160 na        1 EK5     -0.155100
     17 C13        -1.4460    2.9720    1.5550 cc        1 EK5     -0.119300
     18 C10        -2.0020    1.7360    1.1540 cd        1 EK5     -0.124000
     19 C9         -3.3450    1.5250    0.7050 cd        1 EK5      0.006700
     20 N2         -4.4440    2.1780    1.2940 na        1 EK5     -0.021600
     21 N1         -5.6050    1.8270    0.7460 nd        1 EK5     -0.508800
     22 C8         -5.3220    0.9380   -0.2370 cc        1 EK5      0.308200
     23 C7         -3.8890    0.7060   -0.3140 cc        1 EK5     -0.201300
     24 C3         -3.2380   -0.1590   -1.2610 ca        1 EK5      0.021000
     25 C2         -3.9290   -1.2690   -1.7760 ca        1 EK5     -0.122000
     26 C4         -1.9300    0.0940   -1.7010 ca        1 EK5     -0.128000
     27 C5         -1.3260   -0.7410   -2.6390 ca        1 EK5     -0.121000
     28 C6         -2.0100   -1.8410   -3.1530 ca        1 EK5     -0.130000
     29 C1         -3.3120   -2.0980   -2.7140 ca        1 EK5      0.020400
     30 CL         -4.1580   -3.4390   -3.3310 cl        1 EK5     -0.099400
     31 H10         2.5660    2.3510    1.3850 hn        1 EK5      0.294500
     32 H12         4.5550    1.8520    2.6820 h1        1 EK5      0.070700
     33 H11         3.8300    0.2000    2.9910 h1        1 EK5      0.070700
     34 H19         5.9140    2.1940    0.7950 ha        1 EK5      0.131000
     35 H18         7.0590    1.3000   -1.2460 ha        1 EK5      0.152000
     36 H17         5.1860   -2.3440   -3.5470 h1        1 EK5      0.061200
     37 H16         6.4240   -3.1850   -2.4780 h1        1 EK5      0.061200
     38 H15         3.5660   -2.5730   -1.8280 hc        1 EK5      0.067700
     39 H14         4.7850   -3.4020   -0.7760 hc        1 EK5      0.067700
     40 H13         3.3530   -1.2960    0.9910 ha        1 EK5      0.161000
     41 H8         -1.0630   -0.3220    1.1010 ha        1 EK5      0.183000
     42 H2          0.4750    3.4460    2.3050 hn        1 EK5      0.305700
     43 H9         -1.9030    3.9630    1.5820 h4        1 EK5      0.174000
     44 H1         -4.4140    2.7810    2.0810 hn        1 EK5      0.320700
     45 H7         -6.0960    0.4950   -0.8650 h4        1 EK5      0.046100
     46 H3         -4.9540   -1.4820   -1.4330 ha        1 EK5      0.149000
     47 H4         -1.3820    0.9590   -1.2970 ha        1 EK5      0.143000
     48 H5         -0.3010   -0.5300   -2.9780 ha        1 EK5      0.135000
     49 H6         -1.5310   -2.4980   -3.8940 ha        1 EK5      0.145000
@<TRIPOS>BOND
     1    1    2 2   
     2    2    3 1   
     3    2   14 1   
     4    3    4 1   
     5    3   31 1   
     6    4    5 1   
     7    4   32 1   
     8    4   33 1   
     9    5    6 ar  
    10    5   13 ar  
    11    6    7 ar  
    12    6   34 1   
    13    7    8 ar  
    14    7   35 1   
    15    8    9 1   
    16    8   12 ar  
    17    9   10 1   
    18   10   11 1   
    19   10   36 1   
    20   10   37 1   
    21   11   12 1   
    22   11   38 1   
    23   11   39 1   
    24   12   13 ar  
    25   13   40 1   
    26   14   15 2   
    27   14   16 1   
    28   15   18 1   
    29   15   41 1   
    30   16   17 1   
    31   16   42 1   
    32   17   18 2   
    33   17   43 1   
    34   18   19 1   
    35   19   20 1   
    36   19   23 2   
    37   20   21 1   
    38   20   44 1   
    39   21   22 2   
    40   22   23 1   
    41   22   45 1   
    42   23   24 1   
    43   24   25 ar  
    44   24   26 ar  
    45   25   29 ar  
    46   25   46 1   
    47   26   27 ar  
    48   26   47 1   
    49   27   28 ar  
    50   27   48 1   
    51   28   29 ar  
    52   28   49 1   
    53   29   30 1   
@<TRIPOS>SUBSTRUCTURE
     1 EK5         1 TEMP              0 ****  ****    0 ROOT
