@<TRIPOS>MOLECULE
EK5
   50    54     1     0     0
SMALL
bcc


@<TRIPOS>ATOM
      1 O1          1.7280   -2.8350   -0.0330 o         1 EK5     -0.431100
      2 C14         2.3260   -1.7730   -0.1600 c         1 EK5      0.591700
      3 N4          2.6720   -1.0430    1.1260 ny        1 EK5     -0.684800
      4 C15         2.0540   -1.6690    2.3490 c3        1 EK5      0.188100
      5 C16         2.4270   -0.9060    3.5670 ca        1 EK5     -0.243300
      6 C23         1.6690    0.2120    3.9430 ca        1 EK5     -0.064000
      7 C22         1.9600    0.9310    5.1030 ca        1 EK5     -0.153000
      8 C21         3.0300    0.4830    5.8740 ca        1 EK5      0.175100
      9 O2          3.4500    1.0650    7.0430 os        1 EK5     -0.294900
     10 C20         4.5800    0.2830    7.5520 c3        1 EK5      0.116400
     11 C19         4.8470   -0.8640    6.5590 c3        1 EK5     -0.060100
     12 C18         3.8050   -0.6560    5.5110 ca        1 EK5     -0.156300
     13 C17         3.5040   -1.3510    4.3600 ca        1 EK5     -0.050000
     14 C12         2.7160   -1.1320   -1.3840 cc        1 EK5     -0.295900
     15 C11         2.2650   -1.5500   -2.6670 cd        1 EK5      0.011000
     16 N3          3.5440   -0.0040   -1.5550 na        1 EK5     -0.168100
     17 C13         3.6290    0.2720   -2.9020 cc        1 EK5     -0.041300
     18 C10         2.8360   -0.6590   -3.6220 cd        1 EK5     -0.087000
     19 C9          2.6320   -0.6890   -5.0380 cd        1 EK5     -0.060300
     20 N2          3.6390   -0.3750   -5.9720 na        1 EK5     -0.010600
     21 N1          3.2220   -0.4970   -7.2270 nd        1 EK5     -0.473800
     22 C8          1.9210   -0.8760   -7.1810 cc        1 EK5      0.312200
     23 C7          1.4860   -1.0140   -5.8030 cc        1 EK5     -0.160300
     24 C3          0.1620   -1.3830   -5.3760 ca        1 EK5     -0.003000
     25 C2         -0.3940   -0.8420   -4.2070 ca        1 EK5     -0.136000
     26 C4         -0.5980   -2.2810   -6.1440 ca        1 EK5     -0.111000
     27 C5         -1.8860   -2.6330   -5.7450 ca        1 EK5     -0.111000
     28 C6         -2.4380   -2.1020   -4.5800 ca        1 EK5     -0.113000
     29 C1         -1.6840   -1.2070   -3.8170 ca        1 EK5      0.016400
     30 Cl         -2.3410   -0.5470   -2.3910 cl        1 EK5     -0.100400
     31 H10         3.6900   -1.0330    1.2430 hn        1 EK5      0.447800
     32 H12         0.9360   -1.6770    2.1890 hx        1 EK5      0.115700
     33 H11         2.4100   -2.7380    2.3990 hx        1 EK5      0.115700
     34 H19         0.8120    0.5250    3.3250 ha        1 EK5      0.138000
     35 H18         1.3650    1.8040    5.4070 ha        1 EK5      0.177000
     36 H17         4.2680   -0.0810    8.5610 h1        1 EK5      0.082200
     37 H16         5.4340    0.9990    7.6290 h1        1 EK5      0.082200
     38 H15         5.8800   -0.7980    6.1350 hc        1 EK5      0.079700
     39 H14         4.7360   -1.8600    7.0570 hc        1 EK5      0.079700
     40 H13         4.0780   -2.2450    4.0740 ha        1 EK5      0.144000
     41 H8          1.5920   -2.3860   -2.8670 ha        1 EK5      0.205000
     42 H2          4.0690    0.4460   -0.8510 hn        1 EK5      0.302700
     43 H9          4.2250    1.1100   -3.2810 h4        1 EK5      0.201000
     44 H1          4.5910   -0.1740   -5.7720 hn        1 EK5      0.324700
     45 H7          1.3230   -1.0300   -8.0820 h4        1 EK5      0.061100
     46 H3          0.1840   -0.1180   -3.6140 ha        1 EK5      0.137000
     47 H4         -0.1710   -2.7050   -7.0660 ha        1 EK5      0.147000
     48 H5         -2.4750   -3.3350   -6.3560 ha        1 EK5      0.151000
     49 H6         -3.4570   -2.3810   -4.2710 ha        1 EK5      0.158000
     50 H42         2.3490   -0.0720    1.0590 hn        1 EK5      0.447800
@<TRIPOS>BOND
     1    1    2 2   
     2    2    3 1   
     3    2   14 1   
     4    3    4 1   
     5    3   31 1   
     6    3   50 1   
     7    4    5 1   
     8    4   32 1   
     9    4   33 1   
    10    5    6 ar  
    11    5   13 ar  
    12    6    7 ar  
    13    6   34 1   
    14    7    8 ar  
    15    7   35 1   
    16    8    9 1   
    17    8   12 ar  
    18    9   10 1   
    19   10   11 1   
    20   10   36 1   
    21   10   37 1   
    22   11   12 1   
    23   11   38 1   
    24   11   39 1   
    25   12   13 ar  
    26   13   40 1   
    27   14   15 2   
    28   14   16 1   
    29   15   18 1   
    30   15   41 1   
    31   16   17 1   
    32   16   42 1   
    33   17   18 2   
    34   17   43 1   
    35   18   19 1   
    36   19   20 1   
    37   19   23 2   
    38   20   21 1   
    39   20   44 1   
    40   21   22 2   
    41   22   23 1   
    42   22   45 1   
    43   23   24 1   
    44   24   25 ar  
    45   24   26 ar  
    46   25   29 ar  
    47   25   46 1   
    48   26   27 ar  
    49   26   47 1   
    50   27   28 ar  
    51   27   48 1   
    52   28   29 ar  
    53   28   49 1   
    54   29   30 1   
@<TRIPOS>SUBSTRUCTURE
     1 EK5         1 TEMP              0 ****  ****    0 ROOT
