@<TRIPOS>MOLECULE
EK5
   50    54     1     0     0
SMALL
bcc


@<TRIPOS>ATOM
      1 O1          1.7740   -2.8420   -0.0500 o         1 EK5     -0.431100
      2 C14         2.3460   -1.7640   -0.1680 c         1 EK5      0.591700
      3 N4          2.6760   -1.0380    1.1250 n4        1 EK5     -0.684800
      4 C15         2.0730   -1.6890    2.3420 c3        1 EK5      0.188100
      5 C16         2.4280   -0.9290    3.5670 ca        1 EK5     -0.243300
      6 C23         1.6450    0.1670    3.9540 ca        1 EK5     -0.064000
      7 C22         1.9190    0.8820    5.1200 ca        1 EK5     -0.153000
      8 C21         3.0010    0.4540    5.8860 ca        1 EK5      0.175100
      9 O2          3.4080    1.0340    7.0600 os        1 EK5     -0.294900
     10 C20         4.5560    0.2750    7.5600 c3        1 EK5      0.116400
     11 C19         4.8500   -0.8570    6.5570 c3        1 EK5     -0.060100
     12 C18         3.8020   -0.6640    5.5120 ca        1 EK5     -0.156300
     13 C17         3.5170   -1.3550    4.3550 ca        1 EK5     -0.050000
     14 C12         2.7190   -1.1030   -1.3860 cc        1 EK5     -0.295900
     15 C11         2.2790   -1.5200   -2.6720 cd        1 EK5      0.011000
     16 N3          3.5190    0.0470   -1.5470 na        1 EK5     -0.168100
     17 C13         3.5970    0.3370   -2.8910 cc        1 EK5     -0.041300
     18 C10         2.8270   -0.6080   -3.6200 cd        1 EK5     -0.087000
     19 C9          2.6250   -0.6300   -5.0360 cd        1 EK5     -0.060300
     20 N2          3.6230   -0.2800   -5.9670 na        1 EK5     -0.010600
     21 N1          3.2090   -0.4030   -7.2230 nd        1 EK5     -0.473800
     22 C8          1.9180   -0.8170   -7.1810 cc        1 EK5      0.312200
     23 C7          1.4880   -0.9790   -5.8040 cc        1 EK5     -0.160300
     24 C3          0.1740   -1.3890   -5.3800 ca        1 EK5     -0.003000
     25 C2         -0.3970   -0.8720   -4.2080 ca        1 EK5     -0.136000
     26 C4         -0.5610   -2.3000   -6.1560 ca        1 EK5     -0.111000
     27 C5         -1.8380   -2.6910   -5.7610 ca        1 EK5     -0.111000
     28 C6         -2.4060   -2.1850   -4.5920 ca        1 EK5     -0.113000
     29 C1         -1.6760   -1.2750   -3.8210 ca        1 EK5      0.016400
     30 CL         -2.3520   -0.6450   -2.3910 cl        1 EK5     -0.100400
     31 H10         2.3290   -0.0750    1.0670 hn        1 EK5      0.447800
     32 H12         2.4550   -2.7500    2.3820 hx        1 EK5      0.115700
     33 H11         0.9560   -1.7230    2.1830 hx        1 EK5      0.115700
     34 H19         0.7790    0.4650    3.3400 ha        1 EK5      0.139000
     35 H18         1.3050    1.7380    5.4320 ha        1 EK5      0.177000
     36 H17         4.2550   -0.1050    8.5670 h1        1 EK5      0.082200
     37 H16         5.3940    1.0110    7.6430 h1        1 EK5      0.082200
     38 H15         5.8810   -0.7620    6.1340 hc        1 EK5      0.079700
     39 H14         4.7630   -1.8590    7.0460 hc        1 EK5      0.079700
     40 H13         4.1120   -2.2320    4.0600 ha        1 EK5      0.144000
     41 H8          1.6270   -2.3720   -2.8800 ha        1 EK5      0.205000
     42 H2          4.0330    0.5040   -0.8390 hn        1 EK5      0.302700
     43 H9          4.1720    1.1930   -3.2630 h4        1 EK5      0.201000
     44 H1          4.5690   -0.0550   -5.7650 hn        1 EK5      0.324700
     45 H7          1.3250   -0.9800   -8.0830 h4        1 EK5      0.061100
     46 H3          0.1610   -0.1370   -3.6090 ha        1 EK5      0.137000
     47 H4         -0.1210   -2.7060   -7.0800 ha        1 EK5      0.147000
     48 H5         -2.4080   -3.4050   -6.3770 ha        1 EK5      0.151000
     49 H6         -3.4170   -2.4940   -4.2850 ha        1 EK5      0.158000
     50 H42         3.6930   -1.0050    1.2410 hn        1 EK5      0.447800
@<TRIPOS>BOND
     1    1    2 2   
     2    2    3 1   
     3    2   14 1   
     4    3    4 1   
     5    3   31 1   
     6    3   50 1   
     7    4    5 1   
     8    4   32 1   
     9    4   33 1   
    10    5    6 ar  
    11    5   13 ar  
    12    6    7 ar  
    13    6   34 1   
    14    7    8 ar  
    15    7   35 1   
    16    8    9 1   
    17    8   12 ar  
    18    9   10 1   
    19   10   11 1   
    20   10   36 1   
    21   10   37 1   
    22   11   12 1   
    23   11   38 1   
    24   11   39 1   
    25   12   13 ar  
    26   13   40 1   
    27   14   15 2   
    28   14   16 1   
    29   15   18 1   
    30   15   41 1   
    31   16   17 1   
    32   16   42 1   
    33   17   18 2   
    34   17   43 1   
    35   18   19 1   
    36   19   20 1   
    37   19   23 2   
    38   20   21 1   
    39   20   44 1   
    40   21   22 2   
    41   22   23 1   
    42   22   45 1   
    43   23   24 1   
    44   24   25 ar  
    45   24   26 ar  
    46   25   29 ar  
    47   25   46 1   
    48   26   27 ar  
    49   26   47 1   
    50   27   28 ar  
    51   27   48 1   
    52   28   29 ar  
    53   28   49 1   
    54   29   30 1   
@<TRIPOS>SUBSTRUCTURE
     1 EK5         1 TEMP              0 ****  ****    0 ROOT
