@<TRIPOS>MOLECULE
EK5
   50    54     1     0     0
SMALL
bcc


@<TRIPOS>ATOM
      1 O1          1.7730   -2.8540   -0.0320 o         1 EK5     -0.431100
      2 C14         2.3520   -1.7810   -0.1620 c         1 EK5      0.591700
      3 N4          2.6870   -1.0430    1.1220 n4        1 EK5     -0.684800
      4 C15         2.0780   -1.6750    2.3470 c3        1 EK5      0.188100
      5 C16         2.4380   -0.9020    3.5630 ca        1 EK5     -0.243300
      6 C23         1.6610    0.2030    3.9340 ca        1 EK5     -0.064000
      7 C22         1.9390    0.9310    5.0920 ca        1 EK5     -0.153000
      8 C21         3.0170    0.5050    5.8650 ca        1 EK5      0.175100
      9 O2          3.4260    1.0970    7.0330 os        1 EK5     -0.294900
     10 C20         4.5680    0.3360    7.5440 c3        1 EK5      0.116400
     11 C19         4.8550   -0.8100    6.5560 c3        1 EK5     -0.060100
     12 C18         3.8110   -0.6230    5.5060 ca        1 EK5     -0.156300
     13 C17         3.5220   -1.3260    4.3570 ca        1 EK5     -0.050000
     14 C12         2.7270   -1.1360   -1.3870 cc        1 EK5     -0.295900
     15 C11         2.2770   -1.5600   -2.6680 cd        1 EK5      0.011000
     16 N3          3.5380    0.0050   -1.5620 na        1 EK5     -0.168100
     17 C13         3.6150    0.2810   -2.9090 cc        1 EK5     -0.041300
     18 C10         2.8310   -0.6610   -3.6260 cd        1 EK5     -0.087000
     19 C9          2.6220   -0.6940   -5.0410 cd        1 EK5     -0.060300
     20 N2          3.6220   -0.3720   -5.9800 na        1 EK5     -0.010600
     21 N1          3.2000   -0.4990   -7.2330 nd        1 EK5     -0.473800
     22 C8          1.9020   -0.8880   -7.1810 cc        1 EK5      0.312200
     23 C7          1.4740   -1.0280   -5.8000 cc        1 EK5     -0.160300
     24 C3          0.1550   -1.4070   -5.3670 ca        1 EK5     -0.003000
     25 C2         -0.3980   -0.8710   -4.1950 ca        1 EK5     -0.136000
     26 C4         -0.6030   -2.3090   -6.1320 ca        1 EK5     -0.111000
     27 C5         -1.8850   -2.6710   -5.7270 ca        1 EK5     -0.111000
     28 C6         -2.4360   -2.1450   -4.5580 ca        1 EK5     -0.113000
     29 C1         -1.6830   -1.2460   -3.7970 ca        1 EK5      0.016400
     30 CL         -2.3370   -0.5930   -2.3680 cl        1 EK5     -0.100400
     31 H10         3.7040   -1.0170    1.2390 hn        1 EK5      0.447800
     32 H12         0.9620   -1.7040    2.1870 hx        1 EK5      0.115700
     33 H11         2.4530   -2.7380    2.4010 hx        1 EK5      0.115700
     34 H19         0.7990    0.5000    3.3150 ha        1 EK5      0.139000
     35 H18         1.3300    1.7960    5.3930 ha        1 EK5      0.177000
     36 H17         4.2620   -0.0300    8.5550 h1        1 EK5      0.082200
     37 H16         5.4100    1.0670    7.6190 h1        1 EK5      0.082200
     38 H15         4.7610   -1.8060    7.0570 hc        1 EK5      0.079700
     39 H14         5.8870   -0.7280    6.1330 hc        1 EK5      0.079700
     40 H13         4.1120   -2.2110    4.0750 ha        1 EK5      0.144000
     41 H8          1.6160   -2.4060   -2.8660 ha        1 EK5      0.205000
     42 H2          4.0610    0.4600   -0.8600 hn        1 EK5      0.302700
     43 H9          4.1960    1.1270   -3.2910 h4        1 EK5      0.201000
     44 H1          4.5730   -0.1650   -5.7850 hn        1 EK5      0.324700
     45 H7          1.3020   -1.0470   -8.0790 h4        1 EK5      0.061100
     46 H3          0.1780   -0.1440   -3.6040 ha        1 EK5      0.137000
     47 H4         -0.1770   -2.7300   -7.0560 ha        1 EK5      0.147000
     48 H5         -2.4730   -3.3760   -6.3350 ha        1 EK5      0.151000
     49 H6         -3.4510   -2.4320   -4.2440 ha        1 EK5      0.158000
     50 H42         2.3480   -0.0780    1.0530 hn        1 EK5      0.447800
@<TRIPOS>BOND
     1    1    2 2   
     2    2    3 1   
     3    2   14 1   
     4    3    4 1   
     5    3   31 1   
     6    3   50 1   
     7    4    5 1   
     8    4   32 1   
     9    4   33 1   
    10    5    6 ar  
    11    5   13 ar  
    12    6    7 ar  
    13    6   34 1   
    14    7    8 ar  
    15    7   35 1   
    16    8    9 1   
    17    8   12 ar  
    18    9   10 1   
    19   10   11 1   
    20   10   36 1   
    21   10   37 1   
    22   11   12 1   
    23   11   38 1   
    24   11   39 1   
    25   12   13 ar  
    26   13   40 1   
    27   14   15 2   
    28   14   16 1   
    29   15   18 1   
    30   15   41 1   
    31   16   17 1   
    32   16   42 1   
    33   17   18 2   
    34   17   43 1   
    35   18   19 1   
    36   19   20 1   
    37   19   23 2   
    38   20   21 1   
    39   20   44 1   
    40   21   22 2   
    41   22   23 1   
    42   22   45 1   
    43   23   24 1   
    44   24   25 ar  
    45   24   26 ar  
    46   25   29 ar  
    47   25   46 1   
    48   26   27 ar  
    49   26   47 1   
    50   27   28 ar  
    51   27   48 1   
    52   28   29 ar  
    53   28   49 1   
    54   29   30 1   
@<TRIPOS>SUBSTRUCTURE
     1 EK5         1 TEMP              0 ****  ****    0 ROOT
