@<TRIPOS>MOLECULE
EK6
   67    70     1     0     0
SMALL
bcc


@<TRIPOS>ATOM
      1 CL2         0.2600    1.1790    0.3550 cl        1 EK6     -0.078400
      2 C27         1.6810    0.2370    0.3010 ca        1 EK6      0.032400
      3 C6          2.0400   -0.5700    1.3950 ca        1 EK6     -0.187300
      4 C5          1.2770   -0.5420    2.6750 c3        1 EK6      0.169100
      5 N1         -0.1400   -1.0130    2.4990 n4        1 EK6     -0.763000
      6 C4         -0.9150   -0.9750    3.7680 c3        1 EK6      0.034800
      7 C3         -0.5230   -2.0990    4.7100 c         1 EK6      0.621100
      8 O2          0.3540   -2.9410    4.4980 o         1 EK6     -0.539000
      9 O1         -1.2560   -2.0880    5.8360 os        1 EK6     -0.401900
     10 C2         -0.9730   -3.1330    6.8130 c3        1 EK6      0.146400
     11 C1         -1.9330   -2.8880    7.9470 c3        1 EK6     -0.111100
     12 C26         2.4720    0.2870   -0.8420 ca        1 EK6     -0.110000
     13 C9          3.6610   -0.4680   -0.9190 ca        1 EK6      0.080000
     14 C8          4.0000   -1.2950    0.1630 ca        1 EK6     -0.136000
     15 C7          3.1990   -1.3470    1.3000 ca        1 EK6     -0.068000
     16 C10         4.4930   -0.3420   -2.0830 cc        1 EK6     -0.212300
     17 C12         5.5320   -1.1640   -2.5870 cd        1 EK6     -0.023300
     18 N3          5.9800   -0.5340   -3.7600 na        1 EK6      0.005400
     19 N2          5.3300    0.5960   -4.0160 nd        1 EK6     -0.456800
     20 C11         4.4150    0.7590   -3.0320 cc        1 EK6      0.321200
     21 C13         6.1170   -2.3980   -2.1370 cd        1 EK6     -0.127000
     22 C25         7.0990   -2.5630   -1.1200 cd        1 EK6     -0.004000
     23 C15         7.4560   -3.9390   -1.1050 cc        1 EK6     -0.291900
     24 N4          6.7010   -4.6000   -2.0950 na        1 EK6     -0.157100
     25 C14         5.8850   -3.6780   -2.7080 cc        1 EK6     -0.019300
     26 C16         8.4690   -4.4910   -0.2390 c         1 EK6      0.594700
     27 O3          8.9590   -3.9410    0.7410 o         1 EK6     -0.433100
     28 N5          9.0070   -5.8530   -0.6120 n4        1 EK6     -0.672800
     29 C17        10.0760   -6.4000    0.3190 c3        1 EK6      0.195800
     30 C18        11.1390   -7.1920   -0.4770 c3        1 EK6      0.110400
     31 O4         10.4860   -7.9340   -1.4940 oh        1 EK6     -0.646800
     32 C19         9.4420   -7.2190    1.3990 ca        1 EK6     -0.201300
     33 C24         9.2690   -6.6560    2.6670 ca        1 EK6     -0.067000
     34 C23         8.7120   -7.4060    3.7050 ca        1 EK6     -0.034600
     35 CL1         8.5270   -6.6930    5.2250 cl        1 EK6     -0.014400
     36 C22         8.3200   -8.7460    3.4630 ca        1 EK6      0.191900
     37 F           7.7780   -9.5020    4.4360 f         1 EK6     -0.089900
     38 C21         8.4960   -9.3030    2.1780 ca        1 EK6     -0.157000
     39 C20         9.0520   -8.5440    1.1600 ca        1 EK6     -0.087000
     40 H1          1.7570   -1.2150    3.4470 hx        1 EK6      0.120700
     41 H2          1.2380    0.5130    3.0780 hx        1 EK6      0.120700
     42 H3         -0.1180   -1.9800    2.1470 hn        1 EK6      0.466300
     43 H5         -2.0160   -1.0720    3.5280 hx        1 EK6      0.143200
     44 H6         -0.7470    0.0150    4.2850 hx        1 EK6      0.143200
     45 H7         -1.1340   -4.1240    6.3150 h1        1 EK6      0.067700
     46 H8          0.0990   -3.0320    7.1240 h1        1 EK6      0.067700
     47 H9         -2.9910   -2.9560    7.5950 hc        1 EK6      0.068700
     48 H10        -1.7600   -3.6660    8.7320 hc        1 EK6      0.068700
     49 H11        -1.7730   -1.8780    8.3950 hc        1 EK6      0.068700
     50 H12         2.1710    0.9250   -1.6900 ha        1 EK6      0.176000
     51 H13         4.9210   -1.8970    0.1170 ha        1 EK6      0.147000
     52 H14         3.4950   -1.9940    2.1430 ha        1 EK6      0.151000
     53 H15         6.7200   -0.8370   -4.3540 hn        1 EK6      0.338700
     54 H16         3.7500    1.6250   -3.0020 h4        1 EK6      0.063100
     55 H17         7.5240   -1.7910   -0.4760 ha        1 EK6      0.200000
     56 H18         6.6830   -5.5740   -2.2600 hn        1 EK6      0.312700
     57 H19         5.1890   -3.9610   -3.5080 h4        1 EK6      0.212000
     58 H20         8.2390   -6.5330   -0.6300 hn        1 EK6      0.461800
     59 H21        10.6060   -5.5080    0.7810 hx        1 EK6      0.133700
     60 H22        11.6810   -7.8670    0.2390 h1        1 EK6      0.080700
     61 H23        11.8680   -6.4790   -0.9510 h1        1 EK6      0.080700
     62 H24        11.1080   -8.6000   -1.8160 ho        1 EK6      0.458000
     63 H25         9.5800   -5.6130    2.8560 ha        1 EK6      0.168000
     64 H26         8.1970  -10.3510    2.0040 ha        1 EK6      0.181000
     65 H27         9.2080   -8.9930    0.1630 ha        1 EK6      0.159000
     66 H121       -0.6030   -0.4110    1.7960 hn        1 EK6      0.466300
     67 H52         9.4060   -5.7990   -1.5590 hn        1 EK6      0.461800
@<TRIPOS>BOND
     1    1    2 1   
     2    2    3 ar  
     3    2   12 ar  
     4    3    4 1   
     5    3   15 ar  
     6    4    5 1   
     7    4   40 1   
     8    4   41 1   
     9    5    6 1   
    10    5   42 1   
    11    5   66 1   
    12    6    7 1   
    13    6   43 1   
    14    6   44 1   
    15    7    8 2   
    16    7    9 1   
    17    9   10 1   
    18   10   11 1   
    19   10   45 1   
    20   10   46 1   
    21   11   47 1   
    22   11   48 1   
    23   11   49 1   
    24   12   13 ar  
    25   12   50 1   
    26   13   14 ar  
    27   13   16 1   
    28   14   15 ar  
    29   14   51 1   
    30   15   52 1   
    31   16   17 2   
    32   16   20 1   
    33   17   18 1   
    34   17   21 1   
    35   18   19 1   
    36   18   53 1   
    37   19   20 2   
    38   20   54 1   
    39   21   22 1   
    40   21   25 2   
    41   22   23 2   
    42   22   55 1   
    43   23   24 1   
    44   23   26 1   
    45   24   25 1   
    46   24   56 1   
    47   25   57 1   
    48   26   27 2   
    49   26   28 1   
    50   28   29 1   
    51   28   58 1   
    52   28   67 1   
    53   29   30 1   
    54   29   32 1   
    55   29   59 1   
    56   30   31 1   
    57   30   60 1   
    58   30   61 1   
    59   31   62 1   
    60   32   33 ar  
    61   32   39 ar  
    62   33   34 ar  
    63   33   63 1   
    64   34   35 1   
    65   34   36 ar  
    66   36   37 1   
    67   36   38 ar  
    68   38   39 ar  
    69   38   64 1   
    70   39   65 1   
@<TRIPOS>SUBSTRUCTURE
     1 EK6         1 TEMP              0 ****  ****    0 ROOT
