@<TRIPOS>MOLECULE
EK6
   65    68     1     0     0
SMALL
bcc


@<TRIPOS>ATOM
      1 CL2        -7.0090   -0.5060    0.8900 cl        1 EK6     -0.083400
      2 C27        -5.5140   -0.6840    0.0990 ca        1 EK6      0.041400
      3 C6         -4.8750    0.4120   -0.4950 ca        1 EK6     -0.098300
      4 C5         -5.4760    1.7860   -0.4890 c3        1 EK6      0.202100
      5 N1         -5.3540    2.4510    0.7990 n3        1 EK6     -0.798200
      6 C4         -5.6210    3.8620    0.7590 c3        1 EK6      0.120800
      7 C3         -4.5690    4.7190    0.0790 c         1 EK6      0.586100
      8 O2         -3.4460    4.3900   -0.3130 o         1 EK6     -0.557000
      9 O1         -4.9680    6.0120   -0.0810 os        1 EK6     -0.439900
     10 C2         -4.0260    6.9070   -0.7010 c3        1 EK6      0.138400
     11 C1         -4.7010    8.2560   -0.7570 c3        1 EK6     -0.101100
     12 C26        -4.9380   -1.9580    0.0540 ca        1 EK6     -0.130000
     13 C9         -3.7050   -2.1540   -0.5850 ca        1 EK6      0.028000
     14 C8         -3.0660   -1.0550   -1.1810 ca        1 EK6     -0.142000
     15 C7         -3.6450    0.2080   -1.1320 ca        1 EK6     -0.112000
     16 C10        -3.1350   -3.4730   -0.6450 cc        1 EK6     -0.222300
     17 C12        -1.7870   -3.8970   -0.5480 cd        1 EK6      0.017700
     18 N3         -1.8200   -5.2950   -0.7030 na        1 EK6     -0.016600
     19 N2         -3.0520   -5.7640   -0.8880 nd        1 EK6     -0.507800
     20 C11        -3.8870   -4.6970   -0.8520 cc        1 EK6      0.311200
     21 C13        -0.5710   -3.1840   -0.3070 cd        1 EK6     -0.128000
     22 C25         0.7590   -3.6320   -0.6120 cd        1 EK6     -0.102000
     23 C15         1.6440   -2.6310   -0.1740 cc        1 EK6     -0.194900
     24 N4          0.8910   -1.5930    0.3930 na        1 EK6     -0.153100
     25 C14        -0.4480   -1.9150    0.3040 cc        1 EK6     -0.090300
     26 C16         3.1140   -2.6640   -0.2980 c         1 EK6      0.694700
     27 O3          3.6640   -3.3890   -1.1500 o         1 EK6     -0.592100
     28 N5          3.8500   -1.8260    0.5330 n         1 EK6     -0.547900
     29 C17         5.2980   -1.8780    0.5320 c3        1 EK6      0.141000
     30 C18         5.8880   -2.8140    1.6150 c3        1 EK6      0.103400
     31 O4          5.2770   -2.5270    2.8630 oh        1 EK6     -0.616800
     32 C19         5.8860   -0.4920    0.6610 ca        1 EK6     -0.103300
     33 C24         6.5130    0.0880   -0.4430 ca        1 EK6     -0.088000
     34 C23         7.0670    1.3690   -0.3510 ca        1 EK6     -0.027600
     35 CL1         7.8270    2.0340   -1.7140 cl        1 EK6     -0.065400
     36 C22         6.9810    2.0820    0.8640 ca        1 EK6      0.139900
     37 F           7.5020    3.3240    0.9920 f         1 EK6     -0.124900
     38 C21         6.3400    1.4910    1.9710 ca        1 EK6     -0.164000
     39 C20         5.7980    0.2170    1.8640 ca        1 EK6     -0.091000
     40 H1         -4.9930    2.3940   -1.3140 h1        1 EK6      0.051200
     41 H2         -6.5780    1.7140   -0.7240 h1        1 EK6      0.051200
     42 H3         -4.4560    2.2680    1.2100 hn        1 EK6      0.376800
     43 H5         -6.6040    4.0460    0.2410 h1        1 EK6      0.090700
     44 H6         -5.7070    4.2310    1.8220 h1        1 EK6      0.090700
     45 H7         -3.0920    6.9290   -0.0810 h1        1 EK6      0.051700
     46 H8         -3.7800    6.5170   -1.7220 h1        1 EK6      0.051700
     47 H9         -4.9600    8.6100    0.2690 hc        1 EK6      0.049033
     48 H10        -4.0060    8.9890   -1.2330 hc        1 EK6      0.049033
     49 H11        -5.6410    8.2000   -1.3570 hc        1 EK6      0.049033
     50 H12        -5.4490   -2.8140    0.5220 ha        1 EK6      0.152000
     51 H13        -2.1040   -1.2030   -1.6970 ha        1 EK6      0.146000
     52 H14        -3.1330    1.0610   -1.6060 ha        1 EK6      0.145000
     53 H15        -1.0350   -5.9030   -0.7020 hn        1 EK6      0.324700
     54 H16        -4.9660   -4.7930   -0.9790 h4        1 EK6      0.046100
     55 H17         1.0500   -4.5570   -1.1040 ha        1 EK6      0.170000
     56 H18         1.2550   -0.7290    0.7040 hn        1 EK6      0.308700
     57 H19        -1.2340   -1.2500    0.6700 h4        1 EK6      0.190000
     58 H20         3.4500   -1.5460    1.4000 hn        1 EK6      0.311500
     59 H21         5.6240   -2.3180   -0.4630 h1        1 EK6      0.099700
     60 H22         5.6890   -3.8830    1.3310 h1        1 EK6      0.042200
     61 H23         6.9960   -2.6440    1.6810 h1        1 EK6      0.042200
     62 H24         5.6430   -3.1530    3.4990 ho        1 EK6      0.412000
     63 H25         6.5730   -0.4610   -1.3970 ha        1 EK6      0.157000
     64 H26         6.2760    2.0530    2.9150 ha        1 EK6      0.154000
     65 H27         5.3090   -0.2500    2.7360 ha        1 EK6      0.160000
@<TRIPOS>BOND
     1    1    2 1   
     2    2    3 ar  
     3    2   12 ar  
     4    3    4 1   
     5    3   15 ar  
     6    4    5 1   
     7    4   40 1   
     8    4   41 1   
     9    5    6 1   
    10    5   42 1   
    11    6    7 1   
    12    6   43 1   
    13    6   44 1   
    14    7    8 2   
    15    7    9 1   
    16    9   10 1   
    17   10   11 1   
    18   10   45 1   
    19   10   46 1   
    20   11   47 1   
    21   11   48 1   
    22   11   49 1   
    23   12   13 ar  
    24   12   50 1   
    25   13   14 ar  
    26   13   16 1   
    27   14   15 ar  
    28   14   51 1   
    29   15   52 1   
    30   16   17 2   
    31   16   20 1   
    32   17   18 1   
    33   17   21 1   
    34   18   19 1   
    35   18   53 1   
    36   19   20 2   
    37   20   54 1   
    38   21   22 1   
    39   21   25 2   
    40   22   23 2   
    41   22   55 1   
    42   23   24 1   
    43   23   26 1   
    44   24   25 1   
    45   24   56 1   
    46   25   57 1   
    47   26   27 2   
    48   26   28 1   
    49   28   29 1   
    50   28   58 1   
    51   29   30 1   
    52   29   32 1   
    53   29   59 1   
    54   30   31 1   
    55   30   60 1   
    56   30   61 1   
    57   31   62 1   
    58   32   33 ar  
    59   32   39 ar  
    60   33   34 ar  
    61   33   63 1   
    62   34   35 1   
    63   34   36 ar  
    64   36   37 1   
    65   36   38 ar  
    66   38   39 ar  
    67   38   64 1   
    68   39   65 1   
@<TRIPOS>SUBSTRUCTURE
     1 EK6         1 TEMP              0 ****  ****    0 ROOT
