@<TRIPOS>MOLECULE
EK6
   67    70     1     0     0
SMALL
bcc


@<TRIPOS>ATOM
      1 CL2         0.2780    1.2010    0.3760 cl        1 EK6     -0.078400
      2 C27         1.6940    0.2510    0.3160 ca        1 EK6      0.032400
      3 C6          2.0490   -0.5640    1.4050 ca        1 EK6     -0.187300
      4 C5          1.2850   -0.5420    2.6850 c3        1 EK6      0.169100
      5 N1         -0.1330   -1.0040    2.5050 n4        1 EK6     -0.763000
      6 C4         -0.9090   -0.9730    3.7730 c3        1 EK6      0.034800
      7 C3         -0.5250   -2.1080    4.7060 c         1 EK6      0.621100
      8 O2          0.3490   -2.9510    4.4880 o         1 EK6     -0.539000
      9 O1         -1.2590   -2.1040    5.8310 os        1 EK6     -0.401900
     10 C2         -0.9830   -3.1590    6.7980 c3        1 EK6      0.146400
     11 C1         -1.9470   -2.9220    7.9310 c3        1 EK6     -0.111100
     12 C26         2.4850    0.3040   -0.8270 ca        1 EK6     -0.110000
     13 C9          3.6700   -0.4560   -0.9090 ca        1 EK6      0.080000
     14 C8          4.0050   -1.2910    0.1680 ca        1 EK6     -0.136000
     15 C7          3.2040   -1.3470    1.3060 ca        1 EK6     -0.068000
     16 C10         4.5020   -0.3290   -2.0720 cc        1 EK6     -0.212300
     17 C12         5.5390   -1.1520   -2.5800 cd        1 EK6     -0.023300
     18 N3          5.9890   -0.5190   -3.7500 na        1 EK6      0.005400
     19 N2          5.3420    0.6130   -4.0030 nd        1 EK6     -0.456800
     20 C11         4.4270    0.7760   -3.0180 cc        1 EK6      0.321200
     21 C13         6.1200   -2.3890   -2.1340 cd        1 EK6     -0.127000
     22 C25         7.1070   -2.5590   -1.1210 cd        1 EK6     -0.004000
     23 C15         7.4580   -3.9370   -1.1090 cc        1 EK6     -0.291900
     24 N4          6.6940   -4.5930   -2.0950 na        1 EK6     -0.157100
     25 C14         5.8790   -3.6680   -2.7030 cc        1 EK6     -0.018300
     26 C16         8.4730   -4.4930   -0.2490 c         1 EK6      0.594700
     27 O3          8.9740   -3.9430    0.7260 o         1 EK6     -0.433100
     28 N5          8.9980   -5.8600   -0.6220 n4        1 EK6     -0.672800
     29 C17        10.0710   -6.4110    0.3030 c3        1 EK6      0.195800
     30 C18        11.1200   -7.2160   -0.4990 c3        1 EK6      0.110400
     31 O4         10.4510   -7.9580   -1.5050 oh        1 EK6     -0.646800
     32 C19         9.4400   -7.2190    1.3930 ca        1 EK6     -0.201300
     33 C24         9.2840   -6.6470    2.6590 ca        1 EK6     -0.067000
     34 C23         8.7290   -7.3860    3.7070 ca        1 EK6     -0.034600
     35 CL1         8.5640   -6.6630    5.2240 cl        1 EK6     -0.014400
     36 C22         8.3250   -8.7240    3.4770 ca        1 EK6      0.191900
     37 F           7.7850   -9.4700    4.4590 f         1 EK6     -0.089900
     38 C21         8.4850   -9.2910    2.1930 ca        1 EK6     -0.157000
     39 C20         9.0380   -8.5420    1.1650 ca        1 EK6     -0.087000
     40 H1          1.7620   -1.2230    3.4530 hx        1 EK6      0.120700
     41 H2          1.2520    0.5100    3.0950 hx        1 EK6      0.120700
     42 H3         -0.1170   -1.9680    2.1440 hn        1 EK6      0.466300
     43 H5         -2.0100   -1.0600    3.5330 hx        1 EK6      0.143200
     44 H6         -0.7350    0.0120    4.3000 hx        1 EK6      0.143200
     45 H7         -1.1450   -4.1440    6.2900 h1        1 EK6      0.067700
     46 H8          0.0880   -3.0640    7.1140 h1        1 EK6      0.067700
     47 H9         -1.7780   -3.7070    8.7100 hc        1 EK6      0.068700
     48 H10        -1.7860   -1.9160    8.3880 hc        1 EK6      0.068700
     49 H11        -3.0030   -2.9850    7.5750 hc        1 EK6      0.068700
     50 H12         2.1870    0.9500   -1.6710 ha        1 EK6      0.176000
     51 H13         4.9240   -1.8980    0.1180 ha        1 EK6      0.147000
     52 H14         3.4970   -2.0000    2.1440 ha        1 EK6      0.151000
     53 H15         6.7270   -0.8220   -4.3460 hn        1 EK6      0.338700
     54 H16         3.7650    1.6440   -2.9850 h4        1 EK6      0.063100
     55 H17         7.5390   -1.7880   -0.4790 ha        1 EK6      0.200000
     56 H18         6.6710   -5.5670   -2.2610 hn        1 EK6      0.312700
     57 H19         5.1780   -3.9460   -3.5000 h4        1 EK6      0.212000
     58 H20         9.3900   -5.8120   -1.5720 hn        1 EK6      0.461800
     59 H21        10.6120   -5.5210    0.7550 hx        1 EK6      0.133700
     60 H22        11.6620   -7.8910    0.2170 h1        1 EK6      0.080700
     61 H23        11.8510   -6.5120   -0.9830 h1        1 EK6      0.080700
     62 H24        11.0650   -8.6320   -1.8290 ho        1 EK6      0.458000
     63 H25         9.6040   -5.6050    2.8400 ha        1 EK6      0.168000
     64 H26         8.1760  -10.3360    2.0290 ha        1 EK6      0.181000
     65 H27         9.1810   -8.9980    0.1710 ha        1 EK6      0.159000
     66 H121       -0.5930   -0.3940    1.8070 hn        1 EK6      0.466300
     67 H52         8.2260   -6.5350   -0.6300 hn        1 EK6      0.461800
@<TRIPOS>BOND
     1    1    2 1   
     2    2    3 ar  
     3    2   12 ar  
     4    3    4 1   
     5    3   15 ar  
     6    4    5 1   
     7    4   40 1   
     8    4   41 1   
     9    5    6 1   
    10    5   42 1   
    11    5   66 1   
    12    6    7 1   
    13    6   43 1   
    14    6   44 1   
    15    7    8 2   
    16    7    9 1   
    17    9   10 1   
    18   10   11 1   
    19   10   45 1   
    20   10   46 1   
    21   11   47 1   
    22   11   48 1   
    23   11   49 1   
    24   12   13 ar  
    25   12   50 1   
    26   13   14 ar  
    27   13   16 1   
    28   14   15 ar  
    29   14   51 1   
    30   15   52 1   
    31   16   17 2   
    32   16   20 1   
    33   17   18 1   
    34   17   21 1   
    35   18   19 1   
    36   18   53 1   
    37   19   20 2   
    38   20   54 1   
    39   21   22 1   
    40   21   25 2   
    41   22   23 2   
    42   22   55 1   
    43   23   24 1   
    44   23   26 1   
    45   24   25 1   
    46   24   56 1   
    47   25   57 1   
    48   26   27 2   
    49   26   28 1   
    50   28   29 1   
    51   28   58 1   
    52   28   67 1   
    53   29   30 1   
    54   29   32 1   
    55   29   59 1   
    56   30   31 1   
    57   30   60 1   
    58   30   61 1   
    59   31   62 1   
    60   32   33 ar  
    61   32   39 ar  
    62   33   34 ar  
    63   33   63 1   
    64   34   35 1   
    65   34   36 ar  
    66   36   37 1   
    67   36   38 ar  
    68   38   39 ar  
    69   38   64 1   
    70   39   65 1   
@<TRIPOS>SUBSTRUCTURE
     1 EK6         1 TEMP              0 ****  ****    0 ROOT
