@<TRIPOS>MOLECULE
EK6
   65    53     1     0     0
SMALL
bcc


@<TRIPOS>ATOM
      1 CL2        -1.4320    4.0730    2.0180 cl        1 EK6     -0.015000
      2 C27        -2.0220    3.1620    0.6780 c1        1 EK6     -0.051000
      3 C6         -3.2590    2.5620    0.7460 c1        1 EK6     -0.029500
      4 C5         -4.0550    2.6330    2.0160 c2        1 EK6     -0.047000
      5 N1         -3.6370    1.5920    2.9010 n3        1 EK6     -0.287000
      6 C4         -4.6780    1.3120    3.8450 c3        1 EK6     -0.065000
      7 C3         -5.0360   -0.1570    3.7700 c2        1 EK6      0.256000
      8 O2         -4.1810   -0.9770    3.5080 o         1 EK6     -0.358000
      9 O1         -6.3980   -0.5890    4.0510 os        1 EK6     -0.279000
     10 C2         -6.7500   -1.8690    3.4510 c3        1 EK6     -0.012000
     11 C1         -8.1980   -2.1730    3.7240 c3        1 EK6     -0.218000
     12 C26        -1.3020    3.1450   -0.5200 c1        1 EK6     -0.138000
     13 C9         -1.8380    2.5150   -1.6540 c1        1 EK6     -0.029500
     14 C8         -3.0760    1.9140   -1.5850 c1        1 EK6     -0.116000
     15 C7         -3.7980    1.9320   -0.3820 c1        1 EK6     -0.116000
     16 C10        -1.0560    2.5260   -2.9960 c1        1 EK6     -0.151000
     17 C12        -0.1920    1.5280   -3.4520 c1        1 EK6     -0.056500
     18 N3          0.2280    1.8750   -4.6750 n2        1 EK6     -0.120000
     19 N2         -0.3590    3.0860   -5.0070 n2        1 EK6     -0.120000
     20 C11        -1.1460    3.4730   -3.9630 c1        1 EK6     -0.056500
     21 C13         0.1540    0.2350   -2.7220 c1        1 EK6     -0.132500
     22 C25         1.3910   -0.1210   -2.2720 c1        1 EK6     -0.132500
     23 C15         1.3070   -1.3790   -1.7590 c1        1 EK6     -0.104000
     24 N4          0.0090   -1.8050   -1.8920 n2        1 EK6     -0.124000
     25 C14        -0.7020   -0.8150   -2.4840 c1        1 EK6     -0.104000
     26 C16         2.4160   -2.1460   -1.1520 c1        1 EK6      0.377000
     27 O3          2.2290   -3.2560   -0.7690 o         1 EK6     -0.375000
     28 N5          3.7550   -1.5560   -1.0640 n2        1 EK6     -0.367000
     29 C17         4.7700   -2.1750   -0.2430 c3        1 EK6      0.059000
     30 C18         4.5760   -1.7650    1.1770 c3        1 EK6     -0.028000
     31 O4          4.8700   -2.8650    2.0360 oh        1 EK6     -0.322000
     32 C19         6.1470   -1.7310   -0.7180 c2        1 EK6     -0.098000
     33 C24         7.0450   -2.6670   -1.2220 c2        1 EK6     -0.075000
     34 C23         8.3000   -2.2590   -1.6610 c1        1 EK6     -0.101000
     35 CL1         9.4830   -3.4520   -2.1390 cl        1 EK6      0.016000
     36 C22         8.6550   -0.9150   -1.5940 c2        1 EK6      0.103000
     37 F           9.8760   -0.5270   -1.9670 f         1 EK6     -0.089000
     38 C21         7.7590    0.0170   -1.0910 c1        1 EK6     -0.160000
     39 C20         6.5060   -0.3870   -0.6530 c1        1 EK6     -0.107000
     40 H1         -3.9100    3.4970    2.4410 h4        1 EK6      0.093500
     41 H2         -5.0120    2.5240    1.8100 h4        1 EK6      0.093500
     42 H3         -2.9200    1.8430    3.3270 hn        1 EK6      0.177000
     43 H5         -4.3540    1.5350    4.7850 h1        1 EK6      0.129000
     44 H6         -5.4820    1.8620    3.6320 h1        1 EK6      0.129000
     45 H7         -6.5990   -1.8280    2.4690 h1        1 EK6      0.091500
     46 H8         -6.2060   -2.5580    3.8290 h1        1 EK6      0.091500
     47 H9         -8.5080   -2.8020    3.0970 hc        1 EK6      0.087667
     48 H10        -8.7300   -1.3440    3.6500 hc        1 EK6      0.087667
     49 H11        -8.2910   -2.5480    4.6470 hc        1 EK6      0.087667
     50 H12        -0.3760    3.5950   -0.5700 ha        1 EK6      0.155000
     51 H13        -3.4550    1.4720   -2.3820 ha        1 EK6      0.146500
     52 H14        -4.6700    1.5080   -0.3310 ha        1 EK6      0.146500
     53 H15         0.8130    1.3890   -5.2120 DU        1 EK6      0.215000
     54 H16        -1.6920    4.3040   -3.9180 DU        1 EK6      0.215000
     55 H17         2.2290    0.4530   -2.3120 DU        1 EK6      0.215000
     56 H18        -0.3060   -2.5860   -1.6370 DU        1 EK6      0.215000
     57 H19        -1.6670   -0.8410   -2.7070 DU        1 EK6      0.215000
     58 H20         3.9450   -0.8190   -1.5230 hn        1 EK6      0.225000
     59 H21         4.7020   -3.1000   -0.3120 h1        1 EK6      0.158000
     60 H22         3.6250   -1.4770    1.3130 h1        1 EK6      0.071500
     61 H23         5.1480   -1.0510    1.3760 h1        1 EK6      0.071500
     62 H24         4.7140   -2.6340    2.8750 ho        1 EK6      0.206000
     63 H25         6.7720   -3.6460   -1.2990 ha        1 EK6      0.164000
     64 H26         8.0110    0.9630   -1.0460 ha        1 EK6      0.154000
     65 H27         5.8530    0.2980   -0.2850 ha        1 EK6      0.133000
@<TRIPOS>BOND
     1    1    2 1   
     2    2   12 1   
     3    3   15 1   
     4    4    5 1   
     5    4   40 1   
     6    4   41 1   
     7    5    6 1   
     8    5   42 1   
     9    6    7 1   
    10    6   43 1   
    11    6   44 1   
    12    7    8 1   
    13    7    9 1   
    14    9   10 1   
    15   10   11 1   
    16   10   45 1   
    17   10   46 1   
    18   11   47 1   
    19   11   48 1   
    20   11   49 1   
    21   12   50 1   
    22   13   14 1   
    23   14   51 1   
    24   15   52 1   
    25   16   17 1   
    26   16   20 1   
    27   17   18 1   
    28   18   19 1   
    29   19   20 1   
    30   21   22 1   
    31   21   25 1   
    32   22   23 1   
    33   23   24 1   
    34   24   25 1   
    35   26   27 1   
    36   28   29 1   
    37   28   58 1   
    38   29   30 1   
    39   29   32 1   
    40   29   59 1   
    41   30   31 1   
    42   30   60 1   
    43   30   61 1   
    44   31   62 1   
    45   32   33 1   
    46   32   39 1   
    47   33   34 1   
    48   33   63 1   
    49   34   36 1   
    50   36   37 1   
    51   36   38 1   
    52   38   64 1   
    53   39   65 1   
@<TRIPOS>SUBSTRUCTURE
     1 EK6         1 TEMP              0 ****  ****    0 ROOT
