@<TRIPOS>MOLECULE
EK6
   67    70     1     0     0
SMALL
bcc


@<TRIPOS>ATOM
      1 Cl2         0.2470    1.1640    0.3540 cl        1 EK6     -0.078400
      2 C27         1.6710    0.2260    0.2990 ca        1 EK6      0.032400
      3 C6          2.0340   -0.5790    1.3920 ca        1 EK6     -0.187300
      4 C5          1.2720   -0.5530    2.6730 c3        1 EK6      0.169100
      5 N1         -0.1430   -1.0290    2.5000 ny        1 EK6     -0.763000
      6 C4         -0.9160   -0.9920    3.7690 c3        1 EK6      0.034800
      7 C3         -0.5200   -2.1150    4.7120 c         1 EK6      0.621100
      8 O2          0.3590   -2.9540    4.4990 o         1 EK6     -0.539000
      9 O1         -1.2510   -2.1060    5.8390 os        1 EK6     -0.401900
     10 C2         -0.9630   -3.1490    6.8160 c3        1 EK6      0.146400
     11 C1         -1.9230   -2.9080    7.9510 c3        1 EK6     -0.111100
     12 C26         2.4610    0.2780   -0.8460 ca        1 EK6     -0.110000
     13 C9          3.6510   -0.4740   -0.9240 ca        1 EK6      0.080000
     14 C8          3.9940   -1.2990    0.1580 ca        1 EK6     -0.136000
     15 C7          3.1950   -1.3530    1.2970 ca        1 EK6     -0.068000
     16 C10         4.4810   -0.3470   -2.0890 cc        1 EK6     -0.212300
     17 C12         5.5220   -1.1670   -2.5940 cd        1 EK6     -0.023300
     18 N3          5.9670   -0.5360   -3.7680 na        1 EK6      0.005400
     19 N2          5.3140    0.5920   -4.0240 nd        1 EK6     -0.456800
     20 C11         4.3990    0.7530   -3.0390 cc        1 EK6      0.321200
     21 C13         6.1100   -2.3990   -2.1450 cd        1 EK6     -0.127000
     22 C25         7.0940   -2.5610   -1.1290 cd        1 EK6     -0.004000
     23 C15         7.4550   -3.9360   -1.1130 cc        1 EK6     -0.291900
     24 N4          6.6990   -4.5990   -2.1010 na        1 EK6     -0.157100
     25 C14         5.8800   -3.6800   -2.7130 cc        1 EK6     -0.019300
     26 C16         8.4700   -4.4850   -0.2490 c         1 EK6      0.594700
     27 O3          8.9620   -3.9320    0.7290 o         1 EK6     -0.433100
     28 N5          9.0090   -5.8470   -0.6210 ny        1 EK6     -0.672800
     29 C17        10.0800   -6.3910    0.3100 c3        1 EK6      0.195800
     30 C18        11.1420   -7.1850   -0.4870 c3        1 EK6      0.110400
     31 O4         10.4870   -7.9290   -1.5000 oh        1 EK6     -0.646800
     32 C19         9.4490   -7.2080    1.3920 ca        1 EK6     -0.201300
     33 C24         9.2790   -6.6420    2.6590 ca        1 EK6     -0.067000
     34 C23         8.7240   -7.3900    3.7010 ca        1 EK6     -0.034600
     35 Cl1         8.5410   -6.6740    5.2200 cl        1 EK6     -0.014400
     36 C22         8.3330   -8.7310    3.4630 ca        1 EK6      0.191900
     37 F           7.7930   -9.4850    4.4390 f         1 EK6     -0.089900
     38 C21         8.5070   -9.2910    2.1790 ca        1 EK6     -0.157000
     39 C20         9.0600   -8.5340    1.1570 ca        1 EK6     -0.087000
     40 H1          1.2310    0.5020    3.0760 hx        1 EK6      0.120700
     41 H2          1.7560   -1.2240    3.4460 hx        1 EK6      0.120700
     42 H3         -0.1190   -1.9960    2.1480 hn        1 EK6      0.466300
     43 H5         -2.0170   -1.0930    3.5310 hx        1 EK6      0.143200
     44 H6         -0.7510   -0.0010    4.2860 hx        1 EK6      0.143200
     45 H7          0.1080   -3.0450    7.1260 h1        1 EK6      0.067700
     46 H8         -1.1220   -4.1410    6.3190 h1        1 EK6      0.067700
     47 H9         -1.7460   -3.6840    8.7360 hc        1 EK6      0.068700
     48 H10        -2.9810   -2.9800    7.6000 hc        1 EK6      0.068700
     49 H11        -1.7670   -1.8970    8.3970 hc        1 EK6      0.068700
     50 H12         2.1560    0.9140   -1.6940 ha        1 EK6      0.176000
     51 H13         4.9170   -1.8990    0.1110 ha        1 EK6      0.147000
     52 H14         3.4940   -1.9990    2.1390 ha        1 EK6      0.151000
     53 H15         6.7070   -0.8370   -4.3640 hn        1 EK6      0.338700
     54 H16         3.7330    1.6190   -3.0080 h4        1 EK6      0.063100
     55 H17         7.5190   -1.7870   -0.4860 ha        1 EK6      0.200000
     56 H18         6.6820   -5.5740   -2.2660 hn        1 EK6      0.312700
     57 H19         5.1830   -3.9640   -3.5120 h4        1 EK6      0.212000
     58 H20         9.4060   -5.7950   -1.5680 hn        1 EK6      0.461800
     59 H21        10.6100   -5.4980    0.7680 hx        1 EK6      0.133700
     60 H22        11.8700   -6.4720   -0.9640 h1        1 EK6      0.080700
     61 H23        11.6860   -7.8570    0.2300 h1        1 EK6      0.080700
     62 H24        11.1090   -8.5960   -1.8230 ho        1 EK6      0.458000
     63 H25         9.5880   -5.5980    2.8460 ha        1 EK6      0.168000
     64 H26         8.2080  -10.3390    2.0090 ha        1 EK6      0.181000
     65 H27         9.2140   -8.9860    0.1620 ha        1 EK6      0.159000
     66 H121       -0.6090   -0.4280    1.7970 hn        1 EK6      0.466300
     67 H52         8.2420   -6.5280   -0.6350 hn        1 EK6      0.461800
@<TRIPOS>BOND
     1    1    2 1   
     2    2    3 ar  
     3    2   12 ar  
     4    3    4 1   
     5    3   15 ar  
     6    4    5 1   
     7    4   40 1   
     8    4   41 1   
     9    5    6 1   
    10    5   42 1   
    11    5   66 1   
    12    6    7 1   
    13    6   43 1   
    14    6   44 1   
    15    7    8 2   
    16    7    9 1   
    17    9   10 1   
    18   10   11 1   
    19   10   45 1   
    20   10   46 1   
    21   11   47 1   
    22   11   48 1   
    23   11   49 1   
    24   12   13 ar  
    25   12   50 1   
    26   13   14 ar  
    27   13   16 1   
    28   14   15 ar  
    29   14   51 1   
    30   15   52 1   
    31   16   17 2   
    32   16   20 1   
    33   17   18 1   
    34   17   21 1   
    35   18   19 1   
    36   18   53 1   
    37   19   20 2   
    38   20   54 1   
    39   21   22 1   
    40   21   25 2   
    41   22   23 2   
    42   22   55 1   
    43   23   24 1   
    44   23   26 1   
    45   24   25 1   
    46   24   56 1   
    47   25   57 1   
    48   26   27 2   
    49   26   28 1   
    50   28   29 1   
    51   28   58 1   
    52   28   67 1   
    53   29   30 1   
    54   29   32 1   
    55   29   59 1   
    56   30   31 1   
    57   30   60 1   
    58   30   61 1   
    59   31   62 1   
    60   32   33 ar  
    61   32   39 ar  
    62   33   34 ar  
    63   33   63 1   
    64   34   35 1   
    65   34   36 ar  
    66   36   37 1   
    67   36   38 ar  
    68   38   39 ar  
    69   38   64 1   
    70   39   65 1   
@<TRIPOS>SUBSTRUCTURE
     1 EK6         1 TEMP              0 ****  ****    0 ROOT
