@<TRIPOS>MOLECULE
EK7
   45    48     1     0     0
SMALL
bcc


@<TRIPOS>ATOM
      1 N5         -1.3610   -1.0360    1.8080 n1        1 EK7     -0.211800
      2 C19        -0.6130   -0.8760    0.9310 cg        1 EK7      0.189800
      3 C1          0.2940   -0.6790   -0.1220 cc        1 EK7     -0.002100
      4 C2          1.5190   -0.0180   -0.0160 cd        1 EK7     -0.028300
      5 C9          2.0640    0.6030    1.2060 c3        1 EK7     -0.038100
      6 C8          3.5810    0.6180    1.1990 c3        1 EK7     -0.051100
      7 C7          4.1480    0.9920   -0.1160 ca        1 EK7     -0.210900
      8 C4          3.5040    0.6740   -1.3460 ca        1 EK7      0.515800
      9 C3          2.2050    0.0110   -1.2710 cd        1 EK7     -0.151500
     10 C16         1.4520   -0.6440   -2.2640 cc        1 EK7     -0.128500
     11 N4          1.8480   -0.8040   -3.6460 n4        1 EK7     -0.506800
     12 C18         1.4870   -2.1600   -4.1620 c3        1 EK7      0.083600
     13 C17         1.2430    0.2590   -4.5050 c3        1 EK7      0.083600
     14 S           0.0060   -1.2360   -1.6510 ss        1 EK7      0.310200
     15 C6          5.3860    1.6750   -0.1950 ca        1 EK7      0.471200
     16 N2          5.9490    2.0220   -1.3630 nb        1 EK7     -0.639000
     17 C5          5.2510    1.6670   -2.4920 ca        1 EK7      0.722900
     18 N1          4.0560    1.0010   -2.5500 nb        1 EK7     -0.727000
     19 N3          5.8910    2.0700   -3.7870 n4        1 EK7     -0.608100
     20 C10         6.8790    1.0830   -4.2480 ca        1 EK7     -0.022400
     21 C15         6.5970    0.3090   -5.3870 ca        1 EK7     -0.161000
     22 C14         7.5680   -0.5760   -5.8560 ca        1 EK7     -0.059000
     23 C13         8.7940   -0.7050   -5.2100 ca        1 EK7     -0.156000
     24 C12         9.0580    0.0700   -4.0680 ca        1 EK7      0.173100
     25 O          10.2240    0.0070   -3.3610 oh        1 EK7     -0.462100
     26 C11         8.1020    0.9780   -3.5720 ca        1 EK7     -0.135000
     27 H4          1.6660    1.6550    1.2860 hc        1 EK7      0.104200
     28 H5          1.7050    0.0500    2.1180 hc        1 EK7      0.104200
     29 H2          3.9410    1.3290    1.9960 hc        1 EK7      0.102200
     30 H3          3.9740   -0.4040    1.4730 hc        1 EK7      0.102200
     31 H16         0.3730   -2.3000   -4.1210 hx        1 EK7      0.111033
     32 H15         1.8320   -2.2440   -5.2290 hx        1 EK7      0.111033
     33 H17         1.9920   -2.9450   -3.5370 hx        1 EK7      0.111033
     34 H14         1.5310    1.2660   -4.1020 hx        1 EK7      0.111033
     35 H12         1.6230    0.1350   -5.5530 hx        1 EK7      0.111033
     36 H13         0.1240    0.1610   -4.4960 hx        1 EK7      0.111033
     37 H1          5.9540    1.9620    0.7180 h4        1 EK7      0.090100
     38 H6          5.1660    2.1920   -4.5060 hn        1 EK7      0.481300
     39 H11         5.6450    0.4030   -5.9300 ha        1 EK7      0.143000
     40 H10         7.3620   -1.1750   -6.7610 ha        1 EK7      0.176000
     41 H9          9.5560   -1.4040   -5.5950 ha        1 EK7      0.181000
     42 H8         10.8380   -0.5990   -3.8110 ho        1 EK7      0.458000
     43 H7          8.3540    1.5780   -2.6810 ha        1 EK7      0.193000
     44 H41         2.8740   -0.7160   -3.6970 hn        1 EK7      0.465800
     45 H32         6.3760    2.9720   -3.6400 hn        1 EK7      0.481300
@<TRIPOS>BOND
     1    1    2 3   
     2    2    3 1   
     3    3    4 2   
     4    3   14 1   
     5    4    5 1   
     6    4    9 1   
     7    5    6 1   
     8    5   27 1   
     9    5   28 1   
    10    6    7 1   
    11    6   29 1   
    12    6   30 1   
    13    7    8 ar  
    14    7   15 ar  
    15    8    9 1   
    16    8   18 ar  
    17    9   10 2   
    18   10   11 1   
    19   10   14 1   
    20   11   12 1   
    21   11   13 1   
    22   11   44 1   
    23   12   31 1   
    24   12   32 1   
    25   12   33 1   
    26   13   34 1   
    27   13   35 1   
    28   13   36 1   
    29   15   16 ar  
    30   15   37 1   
    31   16   17 ar  
    32   17   18 ar  
    33   17   19 1   
    34   19   20 1   
    35   19   38 1   
    36   19   45 1   
    37   20   21 ar  
    38   20   26 ar  
    39   21   22 ar  
    40   21   39 1   
    41   22   23 ar  
    42   22   40 1   
    43   23   24 ar  
    44   23   41 1   
    45   24   25 1   
    46   24   26 ar  
    47   25   42 1   
    48   26   43 1   
@<TRIPOS>SUBSTRUCTURE
     1 EK7         1 TEMP              0 ****  ****    0 ROOT
