@<TRIPOS>MOLECULE
EK7
   43    39     1     0     0
SMALL
bcc


@<TRIPOS>ATOM
      1 N5         -5.7150    0.2850    4.9040 n1        1 EK7     -0.044000
      2 C19        -4.9640    0.2410    4.0150 c1        1 EK7     -0.060000
      3 C1         -3.9640    0.1830    2.8320 c1        1 EK7     -0.349000
      4 C2         -2.5090    0.2090    2.8340 c1        1 EK7      0.019000
      5 C9         -1.5330    0.0790    3.9370 c2        1 EK7     -0.115000
      6 C8         -0.0920    0.0010    3.6060 c3        1 EK7     -0.097000
      7 C7          0.3740    0.2560    2.0900 c2        1 EK7     -0.220000
      8 C4         -0.5620    0.1880    1.0390 c2        1 EK7      0.141000
      9 C3         -2.0100    0.1620    1.3350 c2        1 EK7     -0.167000
     10 C16        -3.1720    0.1080    0.4660 c1        1 EK7     -0.104000
     11 N4         -3.6010   -0.1640   -0.8890 n2        1 EK7     -0.218000
     12 C18        -4.1720    0.8940   -1.6910 c3        1 EK7     -0.091000
     13 C17        -3.5080   -1.5090   -1.4230 c3        1 EK7     -0.091000
     14 S          -4.4350    0.1190    1.3610 ss        1 EK7      0.513000
     15 C6          1.7070    0.4550    1.8120 c1        1 EK7     -0.006000
     16 N2          2.1220    0.5870    0.5180 n1        1 EK7     -0.207000
     17 C5          1.2010    0.5210   -0.5190 c1        1 EK7      0.142000
     18 N1         -0.1450    0.3200   -0.2430 n1        1 EK7     -0.219000
     19 N3          1.6580    0.2700   -1.8420 n3        1 EK7     -0.224000
     20 C10         3.0470    0.2010   -2.1110 c2        1 EK7      0.084000
     21 C15         3.7650    1.3720   -2.3290 c2        1 EK7     -0.203000
     22 C14         5.0800    1.3070   -2.7690 c1        1 EK7     -0.084000
     23 C13         5.6740    0.0790   -2.9910 c1        1 EK7     -0.168000
     24 C12         4.9520   -1.0970   -2.7720 c1        1 EK7      0.089000
     25 O           5.5860   -2.3540   -2.9160 oh        1 EK7     -0.253000
     26 C11         3.6450   -1.0310   -2.3340 c1        1 EK7     -0.192000
     27 H4         -1.6530    0.8250    4.5150 ha        1 EK7      0.108000
     28 H5         -1.7680   -0.7490    4.4550 ha        1 EK7      0.108000
     29 H2          0.3760    0.6570    4.1710 hc        1 EK7      0.094500
     30 H3          0.2290   -0.9120    3.8690 hc        1 EK7      0.094500
     31 H16        -3.6050    1.0380   -2.5090 h1        1 EK7      0.088333
     32 H15        -5.0820    0.6440   -1.9640 h1        1 EK7      0.088333
     33 H17        -4.2050    1.7340   -1.1580 h1        1 EK7      0.088333
     34 H14        -3.5620   -2.1600   -0.6850 h1        1 EK7      0.088333
     35 H12        -4.2380   -1.6610   -2.0410 h1        1 EK7      0.088333
     36 H13        -2.6530   -1.6170   -1.8940 h1        1 EK7      0.088333
     37 H1          2.3670    0.5020    2.5540 ha        1 EK7      0.164000
     38 H6          1.0420    0.1740   -2.5380 hn        1 EK7      0.229000
     39 H11         3.3380    2.2530   -2.1700 ha        1 EK7      0.134000
     40 H10         5.6080    2.1670   -2.9290 ha        1 EK7      0.136000
     41 H9          6.5890    0.0330   -3.2970 ha        1 EK7      0.152000
     42 H8          5.6550   -2.7450   -2.1200 ho        1 EK7      0.221000
     43 H7          3.1330   -1.8640   -2.1790 ha        1 EK7      0.156000
@<TRIPOS>BOND
     1    1    2 1   
     2    3    4 1   
     3    3   14 1   
     4    4    9 1   
     5    5    6 1   
     6    5   27 1   
     7    5   28 1   
     8    6    7 1   
     9    6   29 1   
    10    6   30 1   
    11    7    8 1   
    12    7   15 1   
    13    8    9 1   
    14    8   18 1   
    15    9   10 1   
    16   10   14 1   
    17   11   12 1   
    18   11   13 1   
    19   12   31 1   
    20   12   32 1   
    21   12   33 1   
    22   13   34 1   
    23   13   35 1   
    24   13   36 1   
    25   15   37 1   
    26   16   17 1   
    27   17   19 1   
    28   19   20 1   
    29   19   38 1   
    30   20   21 1   
    31   20   26 1   
    32   21   22 1   
    33   21   39 1   
    34   22   40 1   
    35   23   24 1   
    36   23   41 1   
    37   24   25 1   
    38   25   42 1   
    39   26   43 1   
@<TRIPOS>SUBSTRUCTURE
     1 EK7         1 TEMP              0 ****  ****    0 ROOT
