@<TRIPOS>MOLECULE
EK7
   43    46     1     0     0
SMALL
bcc


@<TRIPOS>ATOM
      1 N5         -1.6750    0.0340    2.0570 n1        1 EK7     -0.364800
      2 C19        -0.9550    0.0330    1.1420 cg        1 EK7      0.266800
      3 C1         -0.0890    0.0330    0.0400 cc        1 EK7     -0.069100
      4 C2          1.2930    0.0440    0.0880 cd        1 EK7     -0.006300
      5 C9          2.1230    0.1000    1.3070 c3        1 EK7     -0.028100
      6 C8          3.4040   -0.6970    1.1430 c3        1 EK7     -0.012100
      7 C7          4.0650   -0.4500   -0.1570 ca        1 EK7     -0.355900
      8 C4          3.3330   -0.1250   -1.3360 ca        1 EK7      0.576800
      9 C3          1.8830   -0.0110   -1.2220 cd        1 EK7     -0.236500
     10 C16         0.9130   -0.0300   -2.2310 cc        1 EK7      0.219500
     11 N4          1.1160   -0.1110   -3.6020 nh        1 EK7     -0.609000
     12 C18         0.0740   -0.7560   -4.3650 c3        1 EK7      0.180100
     13 C17         1.7270    1.0200   -4.2640 c3        1 EK7      0.180100
     14 S          -0.6590   -0.0110   -1.5390 ss        1 EK7     -0.024800
     15 C6          5.4610   -0.5580   -0.2940 ca        1 EK7      0.459200
     16 N2          6.1150   -0.3850   -1.4520 nb        1 EK7     -0.727000
     17 C5          5.3290   -0.0860   -2.5540 ca        1 EK7      0.864900
     18 N1          3.9490    0.0730   -2.5220 nb        1 EK7     -0.745000
     19 N3          5.9280    0.0190   -3.8310 nh        1 EK7     -0.705300
     20 C10         7.3080    0.2930   -3.9860 ca        1 EK7      0.167600
     21 C15         8.2920   -0.5830   -3.4900 ca        1 EK7     -0.140000
     22 C14         9.6410   -0.3260   -3.7310 ca        1 EK7     -0.089000
     23 C13        10.0480    0.7790   -4.4690 ca        1 EK7     -0.165000
     24 C12         9.0650    1.6460   -4.9730 ca        1 EK7      0.138100
     25 O           9.5170    2.7230   -5.7030 oh        1 EK7     -0.497100
     26 C11         7.7060    1.4220   -4.7390 ca        1 EK7     -0.255000
     27 H4          2.3710    1.1770    1.5210 hc        1 EK7      0.067200
     28 H5          1.5480   -0.2910    2.1890 hc        1 EK7      0.067200
     29 H2          3.1710   -1.7960    1.2250 hc        1 EK7      0.056200
     30 H3          4.1020   -0.4430    1.9860 hc        1 EK7      0.056200
     31 H16        -0.8460   -0.1160   -4.4680 h1        1 EK7      0.045867
     32 H15         0.4770   -0.9730   -5.3900 h1        1 EK7      0.045867
     33 H17        -0.2090   -1.7240   -3.8730 h1        1 EK7      0.045867
     34 H14         2.1910    1.7220   -3.5240 h1        1 EK7      0.045867
     35 H12         0.9700    1.5910   -4.8700 h1        1 EK7      0.045867
     36 H13         2.5240    0.6290   -4.9510 h1        1 EK7      0.045867
     37 H1          6.0990   -0.7950    0.5790 h4        1 EK7      0.028100
     38 H6          5.3470    0.4570   -4.5190 hn        1 EK7      0.431800
     39 H11         8.0090   -1.4740   -2.9090 ha        1 EK7      0.157000
     40 H10        10.3990   -1.0170   -3.3290 ha        1 EK7      0.138000
     41 H9         11.1090    0.9840   -4.6650 ha        1 EK7      0.152000
     42 H8          8.7480    3.2450   -5.9750 ho        1 EK7      0.418000
     43 H7          6.9620    2.1230   -5.1430 ha        1 EK7      0.131000
@<TRIPOS>BOND
     1    1    2 3   
     2    2    3 1   
     3    3    4 2   
     4    3   14 1   
     5    4    5 1   
     6    4    9 1   
     7    5    6 1   
     8    5   27 1   
     9    5   28 1   
    10    6    7 1   
    11    6   29 1   
    12    6   30 1   
    13    7    8 ar  
    14    7   15 ar  
    15    8    9 1   
    16    8   18 ar  
    17    9   10 2   
    18   10   11 1   
    19   10   14 1   
    20   11   12 1   
    21   11   13 1   
    22   12   31 1   
    23   12   32 1   
    24   12   33 1   
    25   13   34 1   
    26   13   35 1   
    27   13   36 1   
    28   15   16 ar  
    29   15   37 1   
    30   16   17 ar  
    31   17   18 ar  
    32   17   19 1   
    33   19   20 1   
    34   19   38 1   
    35   20   21 ar  
    36   20   26 ar  
    37   21   22 ar  
    38   21   39 1   
    39   22   23 ar  
    40   22   40 1   
    41   23   24 ar  
    42   23   41 1   
    43   24   25 1   
    44   24   26 ar  
    45   25   42 1   
    46   26   43 1   
@<TRIPOS>SUBSTRUCTURE
     1 EK7         1 TEMP              0 ****  ****    0 ROOT
