@<TRIPOS>MOLECULE
EK7
   43    46     1     0     0
SMALL
bcc


@<TRIPOS>ATOM
      1 N5         -1.6200    0.0720    2.0290 n1        1 EK7     -0.365800
      2 C19        -0.9050    0.0660    1.1100 cg        1 EK7      0.267800
      3 C1         -0.0450    0.0590    0.0040 cc        1 EK7     -0.069100
      4 C2          1.3370    0.0580    0.0430 cd        1 EK7     -0.005300
      5 C9          2.1740    0.1090    1.2590 c3        1 EK7     -0.028100
      6 C8          3.4490   -0.6980    1.0890 c3        1 EK7     -0.012100
      7 C7          4.1040   -0.4590   -0.2150 ca        1 EK7     -0.355900
      8 C4          3.3680   -0.1320   -1.3920 ca        1 EK7      0.577800
      9 C3          1.9190   -0.0040   -1.2700 cd        1 EK7     -0.237500
     10 C16         0.9440   -0.0120   -2.2740 cc        1 EK7      0.221500
     11 N4          1.1380   -0.0930   -3.6450 nh        1 EK7     -0.609000
     12 C18         0.0830   -0.7230   -4.4040 c3        1 EK7      0.180100
     13 C17         1.7620    1.0300   -4.3090 c3        1 EK7      0.180100
     14 S          -0.6240    0.0210   -1.5720 ss        1 EK7     -0.025800
     15 C6          5.4980   -0.5780   -0.3600 ca        1 EK7      0.459200
     16 N2          6.1470   -0.4160   -1.5220 nb        1 EK7     -0.729000
     17 C5          5.3570   -0.1150   -2.6210 ca        1 EK7      0.864900
     18 N1          3.9780    0.0550   -2.5820 nb        1 EK7     -0.744000
     19 N3          5.9480   -0.0220   -3.9030 nu        1 EK7     -0.704300
     20 C10         7.3270    0.2490   -4.0690 ca        1 EK7      0.163600
     21 C15         8.3140   -0.6240   -3.5650 ca        1 EK7     -0.140000
     22 C14         9.6600   -0.3730   -3.8160 ca        1 EK7     -0.083000
     23 C13        10.0610    0.7240   -4.5740 ca        1 EK7     -0.222000
     24 C12         9.0800    1.5850   -5.0830 ca        1 EK7      0.137100
     25 O           9.3860    2.6900   -5.8470 oh        1 EK7     -0.500100
     26 C11         7.7190    1.3660   -4.8370 ca        1 EK7     -0.201000
     27 H4          2.4310    1.1840    1.4690 hc        1 EK7      0.067200
     28 H5          1.6010   -0.2770    2.1440 hc        1 EK7      0.067200
     29 H2          4.1530   -0.4460    1.9270 hc        1 EK7      0.056200
     30 H3          3.2080   -1.7940    1.1760 hc        1 EK7      0.056200
     31 H16        -0.8280   -0.0700   -4.5010 h1        1 EK7      0.045867
     32 H15         0.4770   -0.9430   -5.4310 h1        1 EK7      0.045867
     33 H17        -0.2110   -1.6880   -3.9120 h1        1 EK7      0.045867
     34 H14         2.2360    1.7270   -3.5710 h1        1 EK7      0.045867
     35 H12         1.0110    1.6090   -4.9140 h1        1 EK7      0.045867
     36 H13         2.5520    0.6280   -4.9980 h1        1 EK7      0.045867
     37 H1          6.1390   -0.8170    0.5100 h4        1 EK7      0.027100
     38 H6          5.3650    0.4190   -4.5880 hn        1 EK7      0.433800
     39 H11         8.0310   -1.5070   -2.9720 ha        1 EK7      0.158000
     40 H10        10.4200   -1.0590   -3.4120 ha        1 EK7      0.136000
     41 H9         11.1250    0.9130   -4.7700 ha        1 EK7      0.135000
     42 H8         10.3500    2.7360   -5.9280 ho        1 EK7      0.420000
     43 H7          6.9850    2.0710   -5.2530 ha        1 EK7      0.149000
@<TRIPOS>BOND
     1    1    2 3   
     2    2    3 1   
     3    3    4 2   
     4    3   14 1   
     5    4    5 1   
     6    4    9 1   
     7    5    6 1   
     8    5   27 1   
     9    5   28 1   
    10    6    7 1   
    11    6   29 1   
    12    6   30 1   
    13    7    8 ar  
    14    7   15 ar  
    15    8    9 1   
    16    8   18 ar  
    17    9   10 2   
    18   10   11 1   
    19   10   14 1   
    20   11   12 1   
    21   11   13 1   
    22   12   31 1   
    23   12   32 1   
    24   12   33 1   
    25   13   34 1   
    26   13   35 1   
    27   13   36 1   
    28   15   16 ar  
    29   15   37 1   
    30   16   17 ar  
    31   17   18 ar  
    32   17   19 1   
    33   19   20 1   
    34   19   38 1   
    35   20   21 ar  
    36   20   26 ar  
    37   21   22 ar  
    38   21   39 1   
    39   22   23 ar  
    40   22   40 1   
    41   23   24 ar  
    42   23   41 1   
    43   24   25 1   
    44   24   26 ar  
    45   25   42 1   
    46   26   43 1   
@<TRIPOS>SUBSTRUCTURE
     1 EK7         1 TEMP              0 ****  ****    0 ROOT
