@<TRIPOS>MOLECULE
EK7
   43    46     1     0     0
SMALL
bcc


@<TRIPOS>ATOM
      1 N5         -6.7450   -1.5240    0.7810 n1        1 EK7     -0.365800
      2 C19        -5.7250   -1.0000    0.5780 cg        1 EK7      0.267800
      3 C1         -4.4980   -0.3680    0.3350 cc        1 EK7     -0.069100
      4 C2         -3.2540   -0.9710    0.3390 cd        1 EK7     -0.005300
      5 C9         -2.9740   -2.3880    0.6440 c3        1 EK7     -0.028100
      6 C8         -1.8150   -2.9150   -0.1830 c3        1 EK7     -0.012100
      7 C7         -0.6730   -1.9760   -0.2280 ca        1 EK7     -0.355900
      8 C4         -0.8440   -0.5620   -0.1560 ca        1 EK7      0.577800
      9 C3         -2.2030   -0.0510   -0.0010 cd        1 EK7     -0.237500
     10 C16        -2.6900    1.2420   -0.2200 cc        1 EK7      0.221500
     11 N4         -1.9710    2.3700   -0.5910 nh        1 EK7     -0.609000
     12 C18        -2.6850    3.3580   -1.3640 c3        1 EK7      0.180100
     13 C17        -1.0350    2.9210    0.3640 c3        1 EK7      0.180100
     14 S          -4.3980    1.2680   -0.0360 ss        1 EK7     -0.025800
     15 C6          0.6450   -2.4420   -0.3790 ca        1 EK7      0.459200
     16 N2          1.7170   -1.6410   -0.4680 nb        1 EK7     -0.729000
     17 C5          1.4640   -0.2800   -0.4050 ca        1 EK7      0.864900
     18 N1          0.2060    0.2840   -0.2270 nb        1 EK7     -0.744000
     19 N3          2.5250    0.6380   -0.5870 nh        1 EK7     -0.704300
     20 C10         3.8730    0.2720   -0.3600 ca        1 EK7      0.163600
     21 C15         4.4930   -0.7500   -1.1090 ca        1 EK7     -0.140000
     22 C14         5.8440   -1.0310   -0.9200 ca        1 EK7     -0.083000
     23 C13         6.6110   -0.3100   -0.0090 ca        1 EK7     -0.222000
     24 C12         5.9970    0.7130    0.7260 ca        1 EK7      0.137100
     25 O           6.6810    1.4800    1.6430 oh        1 EK7     -0.500100
     26 C11         4.6380    1.0100    0.5680 ca        1 EK7     -0.201000
     27 H4         -2.7280   -2.4740    1.7390 hc        1 EK7      0.067200
     28 H5         -3.8860   -3.0150    0.4560 hc        1 EK7      0.067200
     29 H2         -1.4870   -3.9030    0.2390 hc        1 EK7      0.056200
     30 H3         -2.1670   -3.1050   -1.2360 hc        1 EK7      0.056200
     31 H16        -3.4190    3.9440   -0.7440 h1        1 EK7      0.045867
     32 H15        -1.9330    4.0690   -1.7980 h1        1 EK7      0.045867
     33 H17        -3.2360    2.8550   -2.2020 h1        1 EK7      0.045867
     34 H14        -0.8370    2.2030    1.2010 h1        1 EK7      0.045867
     35 H12        -0.0750    3.1330   -0.1760 h1        1 EK7      0.045867
     36 H13        -1.4260    3.8800    0.8040 h1        1 EK7      0.045867
     37 H1          0.8590   -3.5260   -0.4290 h4        1 EK7      0.027100
     38 H6          2.3070    1.5730   -0.3000 hn        1 EK7      0.433800
     39 H11         3.9190   -1.3330   -1.8460 ha        1 EK7      0.158000
     40 H10         6.3130   -1.8360   -1.5060 ha        1 EK7      0.136000
     41 H9          7.6760   -0.5350    0.1310 ha        1 EK7      0.135000
     42 H8          7.5960    1.1660    1.6690 ho        1 EK7      0.420000
     43 H7          4.1980    1.8180    1.1700 ha        1 EK7      0.149000
@<TRIPOS>BOND
     1    1    2 3   
     2    2    3 1   
     3    3    4 2   
     4    3   14 1   
     5    4    5 1   
     6    4    9 1   
     7    5    6 1   
     8    5   27 1   
     9    5   28 1   
    10    6    7 1   
    11    6   29 1   
    12    6   30 1   
    13    7    8 ar  
    14    7   15 ar  
    15    8    9 1   
    16    8   18 ar  
    17    9   10 2   
    18   10   11 1   
    19   10   14 1   
    20   11   12 1   
    21   11   13 1   
    22   12   31 1   
    23   12   32 1   
    24   12   33 1   
    25   13   34 1   
    26   13   35 1   
    27   13   36 1   
    28   15   16 ar  
    29   15   37 1   
    30   16   17 ar  
    31   17   18 ar  
    32   17   19 1   
    33   19   20 1   
    34   19   38 1   
    35   20   21 ar  
    36   20   26 ar  
    37   21   22 ar  
    38   21   39 1   
    39   22   23 ar  
    40   22   40 1   
    41   23   24 ar  
    42   23   41 1   
    43   24   25 1   
    44   24   26 ar  
    45   25   42 1   
    46   26   43 1   
@<TRIPOS>SUBSTRUCTURE
     1 EK7         1 TEMP              0 ****  ****    0 ROOT
