@<TRIPOS>MOLECULE
EK8
   76    79     1     0     0
SMALL
bcc


@<TRIPOS>ATOM
      1 N89        -2.1030   -2.1630   -0.7180 nh        1 EK8     -0.647000
      2 C80        -1.4190   -1.6370    0.4490 c3        1 EK8      0.202300
      3 C81        -1.3590   -2.5670    1.6570 c3        1 EK8     -0.084900
      4 C82        -2.6930   -3.2180    1.9310 c3        1 EK8     -0.082400
      5 C83        -3.1320   -3.9760    0.7000 c3        1 EK8     -0.084900
      6 C84        -3.2230   -3.0660   -0.5210 c3        1 EK8      0.202300
      7 C99        -2.9870   -1.6540   -2.9540 ca        1 EK8     -0.225500
      8 C98        -2.1100   -1.3770   -1.8680 ca        1 EK8      0.237600
      9 C19        -1.1990   -0.2930   -2.0350 ca        1 EK8     -0.225500
     10 C17        -1.1470    0.4180   -3.2170 ca        1 EK8     -0.015500
     11 C87        -2.0050    0.1110   -4.2910 ca        1 EK8     -0.264600
     12 C22        -2.9310   -0.9340   -4.1360 ca        1 EK8     -0.015500
     13 C97        -1.8720    0.9110   -5.5020 c         1 EK8      0.582700
     14 O99        -1.0500    1.8150   -5.6830 o         1 EK8     -0.518100
     15 N99        -2.8060    0.6140   -6.6220 n4        1 EK8     -0.701800
     16 C15        -2.5630    1.4390   -7.8520 c3        1 EK8      0.199100
     17 C8         -3.7100    1.2670   -8.7910 ca        1 EK8     -0.182300
     18 C9         -4.5420    2.3350   -9.1850 ca        1 EK8      0.155100
     19 O3         -4.0840    3.5950   -8.8620 os        1 EK8     -0.341900
     20 C12        -4.9790    4.6810   -9.1460 c3        1 EK8      0.129400
     21 C13        -4.2960    5.9290   -8.6140 c3        1 EK8     -0.087400
     22 C14        -5.1440    7.1450   -8.8790 c3        1 EK8     -0.094100
     23 C10        -5.7500    2.0720   -9.8460 ca        1 EK8     -0.206000
     24 C11        -6.1810    0.7540  -10.0050 ca        1 EK8     -0.064000
     25 C6         -5.3670   -0.3100   -9.6070 ca        1 EK8     -0.098300
     26 C5         -5.8520   -1.7120   -9.4730 c3        1 EK8     -0.018100
     27 C2         -6.1620   -2.0300   -8.0030 c3        1 EK8     -0.143700
     28 C3         -6.3400   -3.5320   -7.8270 c3        1 EK8     -0.032100
     29 C4         -7.3160   -3.9060   -6.7660 ca        1 EK8     -0.070300
     30 C51        -7.4760   -3.1340   -5.6090 ca        1 EK8     -0.132000
     31 C52        -8.3810   -3.5260   -4.6230 ca        1 EK8     -0.134000
     32 C53        -9.1320   -4.6900   -4.7780 ca        1 EK8     -0.142000
     33 C54        -8.9750   -5.4650   -5.9270 ca        1 EK8     -0.134000
     34 C55        -8.0730   -5.0750   -6.9150 ca        1 EK8     -0.132000
     35 C7         -4.0790   -0.0340   -9.1360 ca        1 EK8     -0.076000
     36 C1         -5.0670   -1.5020   -7.0770 c         1 EK8      0.905600
     37 O1         -5.3220   -0.5490   -6.2700 o         1 EK8     -0.869300
     38 O2         -3.8780   -1.9690   -7.1040 o         1 EK8     -0.869300
     39 H1         -1.9040   -0.6660    0.7660 h1        1 EK8      0.045700
     40 H2         -0.3530   -1.4130    0.1510 h1        1 EK8      0.045700
     41 H3         -0.5850   -3.3600    1.4820 hc        1 EK8      0.054200
     42 H4         -1.0310   -1.9600    2.5410 hc        1 EK8      0.054200
     43 H5         -3.4550   -2.4400    2.1960 hc        1 EK8      0.048700
     44 H6         -2.6070   -3.9180    2.8020 hc        1 EK8      0.048700
     45 H7         -2.4090   -4.8090    0.4960 hc        1 EK8      0.054200
     46 H8         -4.1420   -4.4340    0.8630 hc        1 EK8      0.054200
     47 H9         -3.2880   -3.7340   -1.4290 h1        1 EK8      0.045700
     48 H10        -4.1810   -2.4700   -0.4550 h1        1 EK8      0.045700
     49 H12        -0.5140    0.0020   -1.2260 ha        1 EK8      0.147000
     50 H13        -0.4250    1.2450   -3.3280 ha        1 EK8      0.179500
     51 H14        -3.6440   -1.2110   -4.9460 ha        1 EK8      0.179500
     52 H15        -3.7970    0.7300   -6.2990 hn        1 EK8      0.507800
     53 H16        -1.5960    1.0920   -8.3100 hx        1 EK8      0.099200
     54 H17        -2.4500    2.5180   -7.5450 hx        1 EK8      0.099200
     55 H18        -5.1370    4.7490  -10.2550 h1        1 EK8      0.043700
     56 H19        -5.9600    4.5050   -8.6330 h1        1 EK8      0.043700
     57 H20        -4.1170    5.8120   -7.5130 hc        1 EK8      0.056200
     58 H21        -3.2930    6.0400   -9.1030 hc        1 EK8      0.056200
     59 H22        -4.6380    8.0580   -8.4830 hc        1 EK8      0.038367
     60 H23        -5.3110    7.2810   -9.9750 hc        1 EK8      0.038367
     61 H24        -6.1400    7.0500   -8.3810 hc        1 EK8      0.038367
     62 H25        -6.3890    2.8940  -10.1960 ha        1 EK8      0.139000
     63 H26        -7.1780    0.5560  -10.4260 ha        1 EK8      0.139000
     64 H27        -6.7770   -1.8720  -10.0850 hc        1 EK8      0.050700
     65 H28        -5.0640   -2.4210   -9.8440 hc        1 EK8      0.050700
     66 H29        -7.1160   -1.5000   -7.7270 hc        1 EK8      0.068700
     67 H30        -5.3400   -3.9850   -7.5750 hc        1 EK8      0.057700
     68 H31        -6.6720   -3.9830   -8.8020 hc        1 EK8      0.057700
     69 H32        -6.8850   -2.2100   -5.4810 ha        1 EK8      0.146000
     70 H33        -8.5020   -2.9090   -3.7200 ha        1 EK8      0.124500
     71 H34        -9.8450   -4.9960   -4.0000 ha        1 EK8      0.123000
     72 H35        -9.5640   -6.3840   -6.0550 ha        1 EK8      0.124500
     73 H36        -7.9550   -5.6910   -7.8190 ha        1 EK8      0.146000
     74 H37        -3.3900   -0.8770   -8.9440 ha        1 EK8      0.171000
     75 H992       -2.7570   -0.4120   -6.8580 hn        1 EK8      0.507800
     76 H11        -3.7410   -2.4530   -2.8880 ha        1 EK8      0.147000
@<TRIPOS>BOND
     1    1    2 1   
     2    1    6 1   
     3    1    8 1   
     4    2    3 1   
     5    2   39 1   
     6    2   40 1   
     7    3    4 1   
     8    3   41 1   
     9    3   42 1   
    10    4    5 1   
    11    4   43 1   
    12    4   44 1   
    13    5    6 1   
    14    5   45 1   
    15    5   46 1   
    16    6   47 1   
    17    6   48 1   
    18    7    8 ar  
    19    7   12 ar  
    20    7   76 1   
    21    8    9 ar  
    22    9   10 ar  
    23    9   49 1   
    24   10   11 ar  
    25   10   50 1   
    26   11   12 ar  
    27   11   13 1   
    28   12   51 1   
    29   13   14 2   
    30   13   15 1   
    31   15   16 1   
    32   15   52 1   
    33   15   75 1   
    34   16   17 1   
    35   16   53 1   
    36   16   54 1   
    37   17   18 ar  
    38   17   35 ar  
    39   18   19 1   
    40   18   23 ar  
    41   19   20 1   
    42   20   21 1   
    43   20   55 1   
    44   20   56 1   
    45   21   22 1   
    46   21   57 1   
    47   21   58 1   
    48   22   59 1   
    49   22   60 1   
    50   22   61 1   
    51   23   24 ar  
    52   23   62 1   
    53   24   25 ar  
    54   24   63 1   
    55   25   26 1   
    56   25   35 ar  
    57   26   27 1   
    58   26   64 1   
    59   26   65 1   
    60   27   28 1   
    61   27   36 1   
    62   27   66 1   
    63   28   29 1   
    64   28   67 1   
    65   28   68 1   
    66   29   30 ar  
    67   29   34 ar  
    68   30   31 ar  
    69   30   69 1   
    70   31   32 ar  
    71   31   70 1   
    72   32   33 ar  
    73   32   71 1   
    74   33   34 ar  
    75   33   72 1   
    76   34   73 1   
    77   35   74 1   
    78   36   37 1   
    79   36   38 1   
@<TRIPOS>SUBSTRUCTURE
     1 EK8         1 TEMP              0 ****  ****    0 ROOT
