@<TRIPOS>MOLECULE
EK8
   76    79     1     0     0
SMALL
bcc


@<TRIPOS>ATOM
      1 N89         0.4350    0.5070   -0.0690 nh        1 EK8     -0.640000
      2 C80         1.8700    0.7170   -0.0040 c3        1 EK8      0.204800
      3 C81         2.5130    0.5320    1.3660 c3        1 EK8     -0.086400
      4 C82         1.6880    1.1570    2.4650 c3        1 EK8     -0.083400
      5 C83         0.3110    0.5390    2.4540 c3        1 EK8     -0.086400
      6 C84        -0.3850    0.7250    1.1090 c3        1 EK8      0.204800
      7 C99        -1.6000    0.5150   -1.4420 ca        1 EK8     -0.224500
      8 C98        -0.1750    0.5230   -1.3070 ca        1 EK8      0.261600
      9 C19         0.5820    0.5090   -2.5180 ca        1 EK8     -0.224500
     10 C17        -0.0380    0.4330   -3.7480 ca        1 EK8     -0.012500
     11 C87        -1.4420    0.3800   -3.8580 ca        1 EK8     -0.285600
     12 C22        -2.2050    0.4370   -2.6790 ca        1 EK8     -0.012500
     13 C97        -2.0000    0.2870   -5.1970 c         1 EK8      0.571700
     14 O99        -1.3890    0.3600   -6.2610 o         1 EK8     -0.465100
     15 N99        -3.4840    0.0610   -5.2920 n4        1 EK8     -0.674800
     16 C15        -3.9890   -0.1850   -6.6890 c3        1 EK8      0.208100
     17 C8         -5.4300   -0.5330   -6.6470 ca        1 EK8     -0.230300
     18 C9         -6.3790    0.4080   -6.2050 ca        1 EK8      0.112100
     19 O3         -5.8660    1.6010   -5.7110 os        1 EK8     -0.410900
     20 C12        -6.7420    2.7360   -5.8330 c3        1 EK8      0.134400
     21 C13        -5.8640    3.9680   -5.7060 c3        1 EK8     -0.087400
     22 C14        -6.7050    5.2170   -5.7670 c3        1 EK8     -0.096100
     23 C10        -7.7450    0.1060   -6.2210 ca        1 EK8     -0.185000
     24 C11        -8.1640   -1.1390   -6.6780 ca        1 EK8     -0.034000
     25 C6         -7.2290   -2.0970   -7.1140 ca        1 EK8     -0.052300
     26 C5         -7.7050   -3.4180   -7.6110 c3        1 EK8     -0.030100
     27 C2         -8.2820   -3.3210   -9.0180 c3        1 EK8     -0.187700
     28 C3         -8.6070   -4.7130   -9.5460 c3        1 EK8     -0.020100
     29 C4         -8.3080   -4.8770  -10.9950 ca        1 EK8     -0.068300
     30 C51        -8.6670   -3.8830  -11.9170 ca        1 EK8     -0.132500
     31 C52        -8.4060   -4.0610  -13.2740 ca        1 EK8     -0.141000
     32 C53        -7.7860   -5.2260  -13.7260 ca        1 EK8     -0.148000
     33 C54        -7.4280   -6.2180  -12.8150 ca        1 EK8     -0.141000
     34 C55        -7.6870   -6.0440  -11.4560 ca        1 EK8     -0.132500
     35 C7         -5.8700   -1.7880   -7.0890 ca        1 EK8     -0.089000
     36 C1         -9.5680   -2.4490   -9.0010 c         1 EK8      0.906600
     37 O1        -10.3870   -2.6120   -8.0490 o         1 EK8     -0.833300
     38 O2         -9.7130   -1.6020   -9.9230 o         1 EK8     -0.833300
     39 H1          2.3610   -0.0210   -0.7040 h1        1 EK8      0.049700
     40 H2          2.1010    1.7600   -0.3750 h1        1 EK8      0.049700
     41 H3          3.5330    0.9970    1.3290 hc        1 EK8      0.060450
     42 H4          2.6470   -0.5630    1.5740 hc        1 EK8      0.060450
     43 H5          1.6170    2.2650    2.3130 hc        1 EK8      0.055700
     44 H6          2.1780    0.9820    3.4580 hc        1 EK8      0.055700
     45 H7          0.3900   -0.5560    2.6880 hc        1 EK8      0.060450
     46 H8         -0.3360    1.0090    3.2400 hc        1 EK8      0.060450
     47 H9         -1.2440   -0.0090    1.0760 h1        1 EK8      0.049700
     48 H10        -0.8140    1.7700    1.0650 h1        1 EK8      0.049700
     49 H12         1.6820    0.5620   -2.4980 ha        1 EK8      0.154000
     50 H13         0.5720    0.4150   -4.6690 ha        1 EK8      0.144500
     51 H14        -3.3070    0.4370   -2.7060 ha        1 EK8      0.144500
     52 H15        -3.9720    0.8910   -4.9230 hn        1 EK8      0.461800
     53 H16        -3.8190    0.7670   -7.2710 hx        1 EK8      0.105200
     54 H17        -3.3690   -1.0080   -7.1440 hx        1 EK8      0.105200
     55 H18        -7.4940    2.6860   -5.0020 h1        1 EK8      0.058700
     56 H19        -7.2680    2.7110   -6.8220 h1        1 EK8      0.058700
     57 H20        -5.1070    3.9720   -6.5330 hc        1 EK8      0.044200
     58 H21        -5.3020    3.9280   -4.7370 hc        1 EK8      0.044200
     59 H22        -7.2570    5.2740   -6.7370 hc        1 EK8      0.043700
     60 H23        -7.4500    5.2340   -4.9360 hc        1 EK8      0.043700
     61 H24        -6.0540    6.1200   -5.6780 hc        1 EK8      0.043700
     62 H25        -8.4880    0.8480   -5.8940 ha        1 EK8      0.150000
     63 H26        -9.2490   -1.3880   -6.7450 ha        1 EK8      0.230000
     64 H27        -8.5200   -3.7960   -6.9320 hc        1 EK8      0.050700
     65 H28        -6.8580   -4.1550   -7.5920 hc        1 EK8      0.050700
     66 H29        -7.5340   -2.8250   -9.6910 hc        1 EK8      0.049700
     67 H30        -8.0410   -5.4890   -8.9620 hc        1 EK8      0.046700
     68 H31        -9.7030   -4.9130   -9.3780 hc        1 EK8      0.046700
     69 H32        -9.1570   -2.9580  -11.5480 ha        1 EK8      0.157500
     70 H33        -8.6930   -3.2770  -13.9890 ha        1 EK8      0.119500
     71 H34        -7.5840   -5.3630  -14.7980 ha        1 EK8      0.116000
     72 H35        -6.9420   -7.1390  -13.1670 ha        1 EK8      0.119500
     73 H36        -7.4050   -6.8320  -10.7430 ha        1 EK8      0.157500
     74 H37        -5.1360   -2.5260   -7.4480 ha        1 EK8      0.135000
     75 H992       -3.7370   -0.7390   -4.7040 hn        1 EK8      0.461800
     76 H11        -2.2480    0.5780   -0.5540 ha        1 EK8      0.154000
@<TRIPOS>BOND
     1    1    2 1   
     2    1    6 1   
     3    1    8 1   
     4    2    3 1   
     5    2   39 1   
     6    2   40 1   
     7    3    4 1   
     8    3   41 1   
     9    3   42 1   
    10    4    5 1   
    11    4   43 1   
    12    4   44 1   
    13    5    6 1   
    14    5   45 1   
    15    5   46 1   
    16    6   47 1   
    17    6   48 1   
    18    7    8 ar  
    19    7   12 ar  
    20    7   76 1   
    21    8    9 ar  
    22    9   10 ar  
    23    9   49 1   
    24   10   11 ar  
    25   10   50 1   
    26   11   12 ar  
    27   11   13 1   
    28   12   51 1   
    29   13   14 2   
    30   13   15 1   
    31   15   16 1   
    32   15   52 1   
    33   15   75 1   
    34   16   17 1   
    35   16   53 1   
    36   16   54 1   
    37   17   18 ar  
    38   17   35 ar  
    39   18   19 1   
    40   18   23 ar  
    41   19   20 1   
    42   20   21 1   
    43   20   55 1   
    44   20   56 1   
    45   21   22 1   
    46   21   57 1   
    47   21   58 1   
    48   22   59 1   
    49   22   60 1   
    50   22   61 1   
    51   23   24 ar  
    52   23   62 1   
    53   24   25 ar  
    54   24   63 1   
    55   25   26 1   
    56   25   35 ar  
    57   26   27 1   
    58   26   64 1   
    59   26   65 1   
    60   27   28 1   
    61   27   36 1   
    62   27   66 1   
    63   28   29 1   
    64   28   67 1   
    65   28   68 1   
    66   29   30 ar  
    67   29   34 ar  
    68   30   31 ar  
    69   30   69 1   
    70   31   32 ar  
    71   31   70 1   
    72   32   33 ar  
    73   32   71 1   
    74   33   34 ar  
    75   33   72 1   
    76   34   73 1   
    77   35   74 1   
    78   36   37 1   
    79   36   38 1   
@<TRIPOS>SUBSTRUCTURE
     1 EK8         1 TEMP              0 ****  ****    0 ROOT
