@<TRIPOS>MOLECULE
EK8
   76    79     1     0     0
SMALL
bcc


@<TRIPOS>ATOM
      1 N89        -1.5450   -1.7580   -0.3870 nh        1 EK8     -0.647000
      2 C80        -0.6990   -1.1650    0.6320 c3        1 EK8      0.201800
      3 C81        -0.5570   -1.9660    1.9230 c3        1 EK8     -0.084900
      4 C82        -1.8890   -2.4810    2.4130 c3        1 EK8     -0.082400
      5 C83        -2.5160   -3.3270    1.3310 c3        1 EK8     -0.084900
      6 C84        -2.6910   -2.5450    0.0320 c3        1 EK8      0.201800
      7 C99        -2.6510   -1.4160   -2.5560 ca        1 EK8     -0.225500
      8 C98        -1.6390   -1.0940   -1.6090 ca        1 EK8      0.235600
      9 C19        -0.6880   -0.1030   -1.9920 ca        1 EK8     -0.225500
     10 C17        -0.7330    0.4790   -3.2440 ca        1 EK8     -0.015500
     11 C87        -1.7280    0.1290   -4.1760 ca        1 EK8     -0.263600
     12 C22        -2.6900   -0.8260   -3.8080 ca        1 EK8     -0.015500
     13 C97        -1.6910    0.7930   -5.4740 c         1 EK8      0.582700
     14 O99        -0.8360    1.6030   -5.8460 o         1 EK8     -0.518100
     15 N99        -2.7770    0.4670   -6.4370 ny        1 EK8     -0.702800
     16 C15        -2.6560    1.1790   -7.7530 c3        1 EK8      0.200100
     17 C8         -3.9260    1.0100   -8.5180 ca        1 EK8     -0.181300
     18 C9         -4.7460    2.0960   -8.8860 ca        1 EK8      0.154100
     19 O3         -4.1840    3.3460   -8.7290 os        1 EK8     -0.342900
     20 C12        -5.0500    4.4610   -8.9880 c3        1 EK8      0.130400
     21 C13        -4.2370    5.7010   -8.6560 c3        1 EK8     -0.087400
     22 C14        -5.0480    6.9440   -8.9120 c3        1 EK8     -0.094100
     23 C10        -6.0450    1.8610   -9.3610 ca        1 EK8     -0.206000
     24 C11        -6.5600    0.5640   -9.3570 ca        1 EK8     -0.064000
     25 C6         -5.7580   -0.5160   -8.9820 ca        1 EK8     -0.095300
     26 C5         -6.2890   -1.8750   -8.6840 c3        1 EK8     -0.019100
     27 C2         -6.3920   -2.0920   -7.1690 c3        1 EK8     -0.137700
     28 C3         -6.5620   -3.5690   -6.8440 c3        1 EK8     -0.031100
     29 C4         -7.8540   -4.1290   -7.3280 ca        1 EK8     -0.071300
     30 C51        -9.0650   -3.6900   -6.7760 ca        1 EK8     -0.131500
     31 C52       -10.2740   -4.2290   -7.2110 ca        1 EK8     -0.131000
     32 C53       -10.2870   -5.2130   -8.2000 ca        1 EK8     -0.139000
     33 C54        -9.0860   -5.6560   -8.7510 ca        1 EK8     -0.131000
     34 C55        -7.8750   -5.1180   -8.3180 ca        1 EK8     -0.131500
     35 C7         -4.4060   -0.2870   -8.7040 ca        1 EK8     -0.077000
     36 C1         -5.1700   -1.5480   -6.4300 c         1 EK8      0.905600
     37 O1         -5.2820   -0.5140   -5.6950 o         1 EK8     -0.868800
     38 O2         -4.0160   -2.0820   -6.5520 o         1 EK8     -0.868800
     39 H1         -1.0810   -0.1330    0.8890 h1        1 EK8      0.045450
     40 H2          0.3370   -1.0540    0.1970 h1        1 EK8      0.045450
     41 H3         -0.0900   -1.2970    2.6920 hc        1 EK8      0.053700
     42 H4          0.1390   -2.8290    1.7550 hc        1 EK8      0.053700
     43 H5         -1.7470   -3.0900    3.3420 hc        1 EK8      0.048700
     44 H6         -2.5630   -1.6230    2.6710 hc        1 EK8      0.048700
     45 H7         -3.5280   -3.6860    1.6530 hc        1 EK8      0.053700
     46 H8         -1.8780   -4.2300    1.1440 hc        1 EK8      0.053700
     47 H9         -3.5950   -1.8730    0.1340 h1        1 EK8      0.045450
     48 H10        -2.9050   -3.2970   -0.7820 h1        1 EK8      0.045450
     49 H12         0.1040    0.2220   -1.3020 ha        1 EK8      0.146500
     50 H13         0.0200    1.2360   -3.5230 ha        1 EK8      0.180000
     51 H14        -3.5070   -1.1330   -4.5010 ha        1 EK8      0.180000
     52 H15        -2.8110   -0.5760   -6.5890 hn        1 EK8      0.508300
     53 H16        -1.7790    0.7360   -8.3010 hx        1 EK8      0.098700
     54 H17        -2.4440    2.2680   -7.5550 hx        1 EK8      0.098700
     55 H18        -5.9620    4.3880   -8.3400 h1        1 EK8      0.043700
     56 H19        -5.3500    4.4530  -10.0690 h1        1 EK8      0.043700
     57 H20        -3.9190    5.6580   -7.5820 hc        1 EK8      0.056200
     58 H21        -3.3040    5.7090   -9.2780 hc        1 EK8      0.056200
     59 H22        -5.3520    7.0050   -9.9860 hc        1 EK8      0.038367
     60 H23        -5.9710    6.9520   -8.2840 hc        1 EK8      0.038367
     61 H24        -4.4450    7.8510   -8.6650 hc        1 EK8      0.038367
     62 H25        -6.6810    2.6930   -9.6910 ha        1 EK8      0.139000
     63 H26        -7.6140    0.3980   -9.6290 ha        1 EK8      0.139000
     64 H27        -7.3030   -2.0150   -9.1410 hc        1 EK8      0.052700
     65 H28        -5.6050   -2.6500   -9.1220 hc        1 EK8      0.052700
     66 H29        -7.2880   -1.5250   -6.7920 hc        1 EK8      0.063700
     67 H30        -6.5110   -3.6920   -5.7270 hc        1 EK8      0.060200
     68 H31        -5.6960   -4.1380   -7.2760 hc        1 EK8      0.060200
     69 H32        -9.0550   -2.9160   -5.9940 ha        1 EK8      0.133500
     70 H33       -11.2190   -3.8780   -6.7720 ha        1 EK8      0.127000
     71 H34       -11.2420   -5.6380   -8.5410 ha        1 EK8      0.126000
     72 H35        -9.0920   -6.4330   -9.5290 ha        1 EK8      0.127000
     73 H36        -6.9300   -5.4730   -8.7550 ha        1 EK8      0.133500
     74 H37        -3.7420   -1.1550   -8.5320 ha        1 EK8      0.170000
     75 H992       -3.7110    0.6680   -6.0030 hn        1 EK8      0.508300
     76 H11        -3.4390   -2.1480   -2.3200 ha        1 EK8      0.146500
@<TRIPOS>BOND
     1    1    2 1   
     2    1    6 1   
     3    1    8 1   
     4    2    3 1   
     5    2   39 1   
     6    2   40 1   
     7    3    4 1   
     8    3   41 1   
     9    3   42 1   
    10    4    5 1   
    11    4   43 1   
    12    4   44 1   
    13    5    6 1   
    14    5   45 1   
    15    5   46 1   
    16    6   47 1   
    17    6   48 1   
    18    7    8 ar  
    19    7   12 ar  
    20    7   76 1   
    21    8    9 ar  
    22    9   10 ar  
    23    9   49 1   
    24   10   11 ar  
    25   10   50 1   
    26   11   12 ar  
    27   11   13 1   
    28   12   51 1   
    29   13   14 2   
    30   13   15 1   
    31   15   16 1   
    32   15   52 1   
    33   15   75 1   
    34   16   17 1   
    35   16   53 1   
    36   16   54 1   
    37   17   18 ar  
    38   17   35 ar  
    39   18   19 1   
    40   18   23 ar  
    41   19   20 1   
    42   20   21 1   
    43   20   55 1   
    44   20   56 1   
    45   21   22 1   
    46   21   57 1   
    47   21   58 1   
    48   22   59 1   
    49   22   60 1   
    50   22   61 1   
    51   23   24 ar  
    52   23   62 1   
    53   24   25 ar  
    54   24   63 1   
    55   25   26 1   
    56   25   35 ar  
    57   26   27 1   
    58   26   64 1   
    59   26   65 1   
    60   27   28 1   
    61   27   36 1   
    62   27   66 1   
    63   28   29 1   
    64   28   67 1   
    65   28   68 1   
    66   29   30 ar  
    67   29   34 ar  
    68   30   31 ar  
    69   30   69 1   
    70   31   32 ar  
    71   31   70 1   
    72   32   33 ar  
    73   32   71 1   
    74   33   34 ar  
    75   33   72 1   
    76   34   73 1   
    77   35   74 1   
    78   36   37 1   
    79   36   38 1   
@<TRIPOS>SUBSTRUCTURE
     1 EK8         1 TEMP              0 ****  ****    0 ROOT
