@<TRIPOS>MOLECULE
EK8
   75    78     1     0     0
SMALL
bcc


@<TRIPOS>ATOM
      1 N89         7.5210    0.7920   -0.4430 nh        1 EK8     -0.639000
      2 C80         8.5260    1.5120    0.3220 c3        1 EK8      0.189300
      3 C81         9.8410    1.6770   -0.4410 c3        1 EK8     -0.080900
      4 C82        10.3570    0.3440   -0.9390 c3        1 EK8     -0.078400
      5 C83         9.2930   -0.3610   -1.7520 c3        1 EK8     -0.080900
      6 C84         7.9890   -0.4850   -0.9630 c3        1 EK8      0.189300
      7 C99         5.1300    0.3540   -0.7120 ca        1 EK8     -0.181500
      8 C98         6.2100    0.7800    0.0980 ca        1 EK8      0.150600
      9 C19         5.9180    1.2530    1.3970 ca        1 EK8     -0.181500
     10 C17         4.6070    1.2980    1.8580 ca        1 EK8     -0.068500
     11 C87         3.5520    0.8550    1.0550 ca        1 EK8     -0.161600
     12 C22         3.8250    0.3920   -0.2350 ca        1 EK8     -0.068500
     13 C97         2.1640    0.9280    1.5980 c         1 EK8      0.665700
     14 O99         1.8150    1.8700    2.3420 o         1 EK8     -0.618100
     15 N99         1.3210   -0.1260    1.3160 n         1 EK8     -0.545900
     16 C15        -0.0920   -0.0860    1.5970 c3        1 EK8      0.144300
     17 C8         -0.9650   -0.1750    0.3790 ca        1 EK8     -0.142300
     18 C9         -0.9290   -1.3020   -0.4630 ca        1 EK8      0.089100
     19 O3          0.0180   -2.2750   -0.1630 os        1 EK8     -0.359900
     20 C12        -0.3540   -3.6070   -0.5340 c3        1 EK8      0.133400
     21 C13         0.5120   -4.5400    0.2960 c3        1 EK8     -0.089400
     22 C14         0.2360   -5.9760   -0.0610 c3        1 EK8     -0.092100
     23 C10        -1.7760   -1.3940   -1.5740 ca        1 EK8     -0.190000
     24 C11        -2.6650   -0.3600   -1.8460 ca        1 EK8     -0.095000
     25 C6         -2.7180    0.7740   -1.0230 ca        1 EK8     -0.061300
     26 C5         -3.6760    1.8690   -1.3370 c3        1 EK8     -0.037100
     27 C2         -5.1270    1.4700   -1.1000 c3        1 EK8     -0.180700
     28 C3         -5.4740    1.5380    0.3800 c3        1 EK8     -0.030100
     29 C4         -6.4680    0.5070    0.7910 ca        1 EK8     -0.048300
     30 C51        -6.1190   -0.5230    1.6700 ca        1 EK8     -0.131000
     31 C52        -7.0670   -1.4680    2.0630 ca        1 EK8     -0.146500
     32 C53        -8.3720   -1.3910    1.5810 ca        1 EK8     -0.158000
     33 C54        -8.7260   -0.3650    0.7020 ca        1 EK8     -0.146500
     34 C55        -7.7830    0.5800    0.3080 ca        1 EK8     -0.131000
     35 C7         -1.8590    0.8560    0.0780 ca        1 EK8     -0.102000
     36 C1         -6.0370    2.3780   -1.9760 c         1 EK8      0.912600
     37 O1         -6.9800    3.0180   -1.4300 o         1 EK8     -0.839800
     38 O2         -5.7850    2.4120   -3.2130 o         1 EK8     -0.839800
     39 H1          8.1150    2.5350    0.5550 h1        1 EK8      0.036950
     40 H2          8.7480    0.9930    1.3010 h1        1 EK8      0.036950
     41 H3          9.6910    2.3710   -1.3080 hc        1 EK8      0.047950
     42 H4         10.5880    2.1470    0.2490 hc        1 EK8      0.047950
     43 H5         11.2730    0.5010   -1.5660 hc        1 EK8      0.038700
     44 H6         10.6510   -0.2960   -0.0670 hc        1 EK8      0.038700
     45 H7          9.1080    0.2040   -2.7020 hc        1 EK8      0.047950
     46 H8          9.6350   -1.3920   -2.0260 hc        1 EK8      0.047950
     47 H9          8.1510   -1.2240   -0.1230 h1        1 EK8      0.036950
     48 H10         7.1960   -0.9070   -1.6410 h1        1 EK8      0.036950
     49 H12         6.7200    1.5990    2.0660 ha        1 EK8      0.135000
     50 H13         4.3860    1.6900    2.8640 ha        1 EK8      0.147500
     51 H14         3.0060    0.0700   -0.8990 ha        1 EK8      0.147500
     52 H15         1.6090   -0.8040    0.6460 hn        1 EK8      0.317500
     53 H16        -0.3270   -0.9730    2.2570 h1        1 EK8      0.065200
     54 H17        -0.3260    0.8570    2.1720 h1        1 EK8      0.065200
     55 H18        -1.4430   -3.7820   -0.3320 h1        1 EK8      0.039700
     56 H19        -0.1520   -3.7430   -1.6290 h1        1 EK8      0.039700
     57 H20         1.5920   -4.2960    0.1200 hc        1 EK8      0.051700
     58 H21         0.3060   -4.3630    1.3840 hc        1 EK8      0.051700
     59 H22        -0.8350   -6.2320    0.1280 hc        1 EK8      0.033367
     60 H23         0.4570   -6.1660   -1.1390 hc        1 EK8      0.033367
     61 H24         0.8750   -6.6550    0.5550 hc        1 EK8      0.033367
     62 H25        -1.7440   -2.2770   -2.2270 ha        1 EK8      0.127000
     63 H26        -3.3430   -0.4240   -2.7120 ha        1 EK8      0.154000
     64 H27        -3.4350    2.7810   -0.7300 hc        1 EK8      0.064200
     65 H28        -3.5720    2.1470   -2.4250 hc        1 EK8      0.064200
     66 H29        -5.2800    0.4230   -1.4770 hc        1 EK8      0.043700
     67 H30        -4.5400    1.4210    0.9940 hc        1 EK8      0.047700
     68 H31        -5.9070    2.5560    0.5910 hc        1 EK8      0.047700
     69 H32        -5.0900   -0.5920    2.0520 ha        1 EK8      0.159000
     70 H33        -6.7830   -2.2740    2.7530 ha        1 EK8      0.112000
     71 H34        -9.1190   -2.1350    1.8900 ha        1 EK8      0.107000
     72 H35        -9.7540   -0.3030    0.3170 ha        1 EK8      0.112000
     73 H36        -8.0370    1.4010   -0.3930 ha        1 EK8      0.159000
     74 H37        -1.8960    1.7460    0.7270 ha        1 EK8      0.141000
     75 H11         5.3090    0.0070   -1.7410 ha        1 EK8      0.135000
@<TRIPOS>BOND
     1    1    2 1   
     2    1    6 1   
     3    1    8 1   
     4    2    3 1   
     5    2   39 1   
     6    2   40 1   
     7    3    4 1   
     8    3   41 1   
     9    3   42 1   
    10    4    5 1   
    11    4   43 1   
    12    4   44 1   
    13    5    6 1   
    14    5   45 1   
    15    5   46 1   
    16    6   47 1   
    17    6   48 1   
    18    7    8 ar  
    19    7   12 ar  
    20    7   75 1   
    21    8    9 ar  
    22    9   10 ar  
    23    9   49 1   
    24   10   11 ar  
    25   10   50 1   
    26   11   12 ar  
    27   11   13 1   
    28   12   51 1   
    29   13   14 2   
    30   13   15 1   
    31   15   16 1   
    32   15   52 1   
    33   16   17 1   
    34   16   53 1   
    35   16   54 1   
    36   17   18 ar  
    37   17   35 ar  
    38   18   19 1   
    39   18   23 ar  
    40   19   20 1   
    41   20   21 1   
    42   20   55 1   
    43   20   56 1   
    44   21   22 1   
    45   21   57 1   
    46   21   58 1   
    47   22   59 1   
    48   22   60 1   
    49   22   61 1   
    50   23   24 ar  
    51   23   62 1   
    52   24   25 ar  
    53   24   63 1   
    54   25   26 1   
    55   25   35 ar  
    56   26   27 1   
    57   26   64 1   
    58   26   65 1   
    59   27   28 1   
    60   27   36 1   
    61   27   66 1   
    62   28   29 1   
    63   28   67 1   
    64   28   68 1   
    65   29   30 ar  
    66   29   34 ar  
    67   30   31 ar  
    68   30   69 1   
    69   31   32 ar  
    70   31   70 1   
    71   32   33 ar  
    72   32   71 1   
    73   33   34 ar  
    74   33   72 1   
    75   34   73 1   
    76   35   74 1   
    77   36   37 1   
    78   36   38 1   
@<TRIPOS>SUBSTRUCTURE
     1 EK8         1 TEMP              0 ****  ****    0 ROOT
