@<TRIPOS>MOLECULE
EK9
   53    56     1     0     0
SMALL
bcc


@<TRIPOS>ATOM
      1 O2          0.1200    0.5130   -0.0370 o         1 EK9     -0.447100
      2 C3          1.3340    0.3690   -0.1400 c         1 EK9      0.598700
      3 N1          2.1070    0.1840    1.1550 n4        1 EK9     -0.677800
      4 C2          1.2570    0.2490    2.4050 c3        1 EK9      0.155800
      5 C19         1.8810   -0.5760    3.4880 ca        1 EK9     -0.181300
      6 C24         1.1580   -1.6410    4.0350 ca        1 EK9     -0.113500
      7 C23         1.7120   -2.4020    5.0660 ca        1 EK9     -0.114500
      8 C22         2.9890   -2.1100    5.5450 ca        1 EK9     -0.084000
      9 C21         3.7150   -1.0500    4.9950 ca        1 EK9     -0.114500
     10 C20         3.1640   -0.2840    3.9710 ca        1 EK9     -0.113500
     11 C1          1.0380    1.7210    2.8330 c3        1 EK9      0.115400
     12 O1          2.2610    2.4240    2.8360 oh        1 EK9     -0.616800
     13 C4          2.1040    0.3270   -1.3480 cc        1 EK9     -0.303900
     14 C7          1.5280    0.2470   -2.6470 cd        1 EK9      0.031000
     15 C6          2.6040    0.2090   -3.5810 cd        1 EK9     -0.218500
     16 C5          3.8080    0.2630   -2.8350 cc        1 EK9     -0.022300
     17 N2          3.5090    0.3140   -1.4910 na        1 EK9     -0.172100
     18 C8          2.4620    0.0870   -5.0260 ca        1 EK9      0.499800
     19 C11         3.3570    0.7150   -5.9210 ca        1 EK9     -0.302900
     20 C12         4.5030    1.5440   -5.5060 c3        1 EK9     -0.049800
     21 C10         3.0910    0.5200   -7.3020 ca        1 EK9      0.442200
     22 N4          2.0660   -0.2040   -7.7610 nb        1 EK9     -0.668000
     23 C9          1.2390   -0.7740   -6.8150 cp        1 EK9      0.720500
     24 N3          1.4030   -0.6510   -5.4650 nb        1 EK9     -0.697000
     25 C13         0.0890   -1.5770   -7.3020 cp        1 EK9     -0.157500
     26 C18        -0.6220   -1.1630   -8.4360 ca        1 EK9     -0.085500
     27 C17        -1.7000   -1.9210   -8.8920 ca        1 EK9     -0.139000
     28 C16        -2.0690   -3.0900   -8.2270 ca        1 EK9     -0.103000
     29 C15        -1.3580   -3.5030   -7.1000 ca        1 EK9     -0.139000
     30 C14        -0.2810   -2.7510   -6.6340 ca        1 EK9     -0.085500
     31 H6          2.8150    0.9260    1.2310 hn        1 EK9      0.458800
     32 H1          0.2390   -0.1770    2.1400 hx        1 EK9      0.130700
     33 H22         0.1480   -1.8790    3.6650 ha        1 EK9      0.139000
     34 H21         1.1360   -3.2350    5.5000 ha        1 EK9      0.159500
     35 H20         3.4250   -2.7120    6.3580 ha        1 EK9      0.161000
     36 H19         4.7220   -0.8170    5.3760 ha        1 EK9      0.159500
     37 H18         3.7340    0.5620    3.5560 ha        1 EK9      0.139000
     38 H4          0.3860    2.2380    2.0740 h1        1 EK9      0.093700
     39 H5          0.5330    1.7230    3.8330 h1        1 EK9      0.093700
     40 H3          2.5670    2.4970    3.7500 ho        1 EK9      0.435000
     41 H8          0.4600    0.2090   -2.8730 ha        1 EK9      0.206000
     42 H7          4.8440    0.2470   -3.1930 h4        1 EK9      0.203000
     43 H2          4.1660    0.4760   -0.7730 hn        1 EK9      0.301700
     44 H12         4.2680    2.1210   -4.5770 hc        1 EK9      0.050700
     45 H10         5.3990    0.9010   -5.3110 hc        1 EK9      0.050700
     46 H11         4.7740    2.2740   -6.3100 hc        1 EK9      0.050700
     47 H9          3.7470    0.9770   -8.0680 h4        1 EK9      0.041100
     48 H17        -0.3350   -0.2450   -8.9720 ha        1 EK9      0.145000
     49 H16        -2.2570   -1.5940   -9.7830 ha        1 EK9      0.140500
     50 H15        -2.9180   -3.6870   -8.5920 ha        1 EK9      0.141000
     51 H14        -1.6460   -4.4280   -6.5780 ha        1 EK9      0.140500
     52 H13         0.2750   -3.0880   -5.7470 ha        1 EK9      0.145000
     53 H121        2.5800   -0.7250    1.1280 hn        1 EK9      0.458800
@<TRIPOS>BOND
     1    1    2 2   
     2    2    3 1   
     3    2   13 1   
     4    3    4 1   
     5    3   31 1   
     6    3   53 1   
     7    4    5 1   
     8    4   11 1   
     9    4   32 1   
    10    5    6 ar  
    11    5   10 ar  
    12    6    7 ar  
    13    6   33 1   
    14    7    8 ar  
    15    7   34 1   
    16    8    9 ar  
    17    8   35 1   
    18    9   10 ar  
    19    9   36 1   
    20   10   37 1   
    21   11   12 1   
    22   11   38 1   
    23   11   39 1   
    24   12   40 1   
    25   13   14 2   
    26   13   17 1   
    27   14   15 1   
    28   14   41 1   
    29   15   16 2   
    30   15   18 1   
    31   16   17 1   
    32   16   42 1   
    33   17   43 1   
    34   18   19 ar  
    35   18   24 ar  
    36   19   20 1   
    37   19   21 ar  
    38   20   44 1   
    39   20   45 1   
    40   20   46 1   
    41   21   22 ar  
    42   21   47 1   
    43   22   23 ar  
    44   23   24 ar  
    45   23   25 1   
    46   25   26 ar  
    47   25   30 ar  
    48   26   27 ar  
    49   26   48 1   
    50   27   28 ar  
    51   27   49 1   
    52   28   29 ar  
    53   28   50 1   
    54   29   30 ar  
    55   29   51 1   
    56   30   52 1   
@<TRIPOS>SUBSTRUCTURE
     1 EK9         1 TEMP              0 ****  ****    0 ROOT
