@<TRIPOS>MOLECULE
EK9
   52    41     1     0     0
SMALL
bcc


@<TRIPOS>ATOM
      1 O2         -1.5960   -1.7540    2.2350 o         1 EK9     -0.350000
      2 C3         -0.7280   -0.9120    2.0320 c1        1 EK9      0.370000
      3 N1         -0.3200   -0.0310    3.0920 n3        1 EK9     -0.378000
      4 C2         -1.0150   -0.0580    4.3590 c3        1 EK9      0.060000
      5 C19        -0.0180   -0.3080    5.4720 c1        1 EK9     -0.078000
      6 C24         1.1470    0.4680    5.5470 c1        1 EK9     -0.132000
      7 C23         2.0230    0.3070    6.6190 c1        1 EK9     -0.124000
      8 C22         1.7340   -0.6480    7.6400 c1        1 EK9     -0.124000
      9 C21         0.5650   -1.4260    7.5650 c1        1 EK9     -0.124000
     10 C20        -0.3070   -1.2670    6.4990 c1        1 EK9     -0.124000
     11 C1         -1.7080    1.2820    4.5970 c3        1 EK9     -0.040000
     12 O1         -2.9720    1.0770    4.9110 oh        1 EK9     -0.320000
     13 C4         -0.0040   -0.8940    0.7390 c1        1 EK9     -0.106500
     14 C7         -0.5800   -0.8910   -0.5100 c1        1 EK9     -0.114500
     15 C6          0.4000   -0.9480   -1.4160 c1        1 EK9     -0.114500
     16 C5          1.5900   -0.9860   -0.7450 c1        1 EK9     -0.106500
     17 N2          1.3240   -0.9520    0.5830 n2        1 EK9     -0.159000
     18 C8          0.2160   -0.9750   -2.9580 c1        1 EK9      0.101000
     19 C11         0.2450   -2.1960   -3.6530 c1        1 EK9     -0.162000
     20 C12         0.2910   -3.5110   -2.8910 c2        1 EK9     -0.173000
     21 C10         0.1490   -2.2040   -5.0200 c1        1 EK9     -0.039000
     22 N4          0.0230   -1.0100   -5.7100 n1        1 EK9     -0.166000
     23 C9         -0.0050    0.1760   -5.0280 c1        1 EK9      0.063000
     24 N3          0.0930    0.1870   -3.6420 n1        1 EK9     -0.176000
     25 C13        -0.1220    1.5160   -5.8080 c2        1 EK9     -0.028000
     26 C18        -1.3720    2.0640   -6.0710 c2        1 EK9     -0.088000
     27 C17        -1.4720    3.2950   -6.7330 c1        1 EK9     -0.141000
     28 C16        -0.3220    3.9670   -7.1270 c1        1 EK9     -0.124000
     29 C15         0.9180    3.4240   -6.8670 c1        1 EK9     -0.124000
     30 C14         1.0210    2.1870   -6.2020 c1        1 EK9     -0.091000
     31 H6          0.2870    0.6130    2.9280 hn        1 EK9      0.219000
     32 H1         -1.6840   -0.7770    4.3510 h1        1 EK9      0.138000
     33 H22         1.3460    1.1310    4.8390 ha        1 EK9      0.125000
     34 H21         2.8040    0.8260    6.6710 ha        1 EK9      0.134000
     35 H20         2.3720   -0.7650    8.4200 ha        1 EK9      0.134000
     36 H19         0.3630   -2.0900    8.2740 ha        1 EK9      0.134000
     37 H18        -1.1200   -1.8100    6.4490 ha        1 EK9      0.134000
     38 H4         -1.6540    1.8630    3.7350 h1        1 EK9      0.074500
     39 H5         -1.2690    1.7450    5.3260 h1        1 EK9      0.074500
     40 H3         -3.3200    1.8390    5.2770 ho        1 EK9      0.204000
     41 H8         -1.5060   -0.8560   -0.6950 DU        1 EK9      0.204667
     42 H7          2.5340   -1.0340   -1.1770 DU        1 EK9      0.204667
     43 H2          1.8930   -0.9650    1.2020 DU        1 EK9      0.204667
     44 H12         1.1200   -3.5550   -2.3630 ha        1 EK9      0.091333
     45 H10         0.2710   -4.2270   -3.5020 ha        1 EK9      0.091333
     46 H11        -0.5200   -3.5720   -2.2670 ha        1 EK9      0.091333
     47 H9          0.1700   -3.1060   -5.5390 ha        1 EK9      0.164000
     48 H17        -2.2310    1.5620   -5.7760 ha        1 EK9      0.148000
     49 H16        -2.3210    3.6670   -6.9090 ha        1 EK9      0.134000
     50 H15        -0.3890    4.8140   -7.5840 ha        1 EK9      0.134000
     51 H14         1.7540    3.9160   -7.1540 ha        1 EK9      0.134000
     52 H13         1.9010    1.8030   -6.0170 ha        1 EK9      0.142000
@<TRIPOS>BOND
     1    1    2 1   
     2    2    3 1   
     3    3    4 1   
     4    3   31 1   
     5    4    5 1   
     6    4   11 1   
     7    4   32 1   
     8    5    6 1   
     9    6   33 1   
    10    7    8 1   
    11    7   34 1   
    12    8   35 1   
    13    9   10 1   
    14    9   36 1   
    15   10   37 1   
    16   11   12 1   
    17   11   38 1   
    18   11   39 1   
    19   12   40 1   
    20   13   14 1   
    21   13   17 1   
    22   14   15 1   
    23   15   16 1   
    24   16   17 1   
    25   18   24 1   
    26   19   21 1   
    27   20   44 1   
    28   20   45 1   
    29   20   46 1   
    30   21   47 1   
    31   22   23 1   
    32   23   25 1   
    33   25   26 1   
    34   25   30 1   
    35   26   27 1   
    36   26   48 1   
    37   27   49 1   
    38   28   29 1   
    39   28   50 1   
    40   29   51 1   
    41   30   52 1   
@<TRIPOS>SUBSTRUCTURE
     1 EK9         1 TEMP              0 ****  ****    0 ROOT
