@<TRIPOS>MOLECULE
EK9
   53    56     1     0     0
SMALL
bcc


@<TRIPOS>ATOM
      1 O2          0.1270    0.5390   -0.0440 o         1 EK9     -0.447100
      2 C3          1.3400    0.3820   -0.1430 c         1 EK9      0.598700
      3 N1          2.1080    0.1930    1.1540 ny        1 EK9     -0.677800
      4 C2          1.2560    0.2680    2.4010 c3        1 EK9      0.155800
      5 C19         1.8700   -0.5620    3.4870 ca        1 EK9     -0.181300
      6 C24         1.1350   -1.6190    4.0340 ca        1 EK9     -0.113500
      7 C23         1.6790   -2.3840    5.0660 ca        1 EK9     -0.115000
      8 C22         2.9580   -2.1040    5.5470 ca        1 EK9     -0.084000
      9 C21         3.6950   -1.0520    4.9980 ca        1 EK9     -0.115000
     10 C20         3.1540   -0.2820    3.9720 ca        1 EK9     -0.113500
     11 C1          1.0500    1.7420    2.8270 c3        1 EK9      0.115400
     12 O1          2.2800    2.4330    2.8320 oh        1 EK9     -0.616800
     13 C4          2.1120    0.3280   -1.3500 cc        1 EK9     -0.303900
     14 C7          1.5380    0.2480   -2.6500 cd        1 EK9      0.031000
     15 C6          2.6160    0.1950   -3.5820 cd        1 EK9     -0.218500
     16 C5          3.8180    0.2420   -2.8330 cc        1 EK9     -0.022300
     17 N2          3.5170    0.3010   -1.4900 na        1 EK9     -0.172100
     18 C8          2.4750    0.0680   -5.0260 ca        1 EK9      0.499800
     19 C11         3.3780    0.6830   -5.9220 ca        1 EK9     -0.302900
     20 C12         4.5310    1.5030   -5.5090 c3        1 EK9     -0.049800
     21 C10         3.1140    0.4830   -7.3030 ca        1 EK9      0.442200
     22 N4          2.0830   -0.2330   -7.7610 nb        1 EK9     -0.668000
     23 C9          1.2480   -0.7900   -6.8130 cp        1 EK9      0.720500
     24 N3          1.4100   -0.6620   -5.4640 nb        1 EK9     -0.697000
     25 C13         0.0920   -1.5850   -7.2990 cp        1 EK9     -0.157500
     26 C18        -0.6120   -1.1710   -8.4370 ca        1 EK9     -0.085500
     27 C17        -1.6960   -1.9200   -8.8920 ca        1 EK9     -0.139000
     28 C16        -2.0780   -3.0820   -8.2220 ca        1 EK9     -0.103000
     29 C15        -1.3740   -3.4970   -7.0910 ca        1 EK9     -0.139000
     30 C14        -0.2910   -2.7520   -6.6260 ca        1 EK9     -0.085500
     31 H6          2.5730   -0.7200    1.1290 hn        1 EK9      0.458800
     32 H1          0.2340   -0.1490    2.1340 hx        1 EK9      0.130700
     33 H22         0.1230   -1.8470    3.6620 ha        1 EK9      0.139000
     34 H21         1.0940   -3.2110    5.5000 ha        1 EK9      0.159500
     35 H20         3.3860   -2.7100    6.3620 ha        1 EK9      0.161000
     36 H19         4.7040   -0.8290    5.3810 ha        1 EK9      0.159500
     37 H18         3.7330    0.5570    3.5560 ha        1 EK9      0.139000
     38 H4          0.5430    1.7500    3.8260 h1        1 EK9      0.093700
     39 H5          0.4040    2.2650    2.0660 h1        1 EK9      0.093700
     40 H3          2.5850    2.5040    3.7460 ho        1 EK9      0.435000
     41 H8          0.4700    0.2190   -2.8780 ha        1 EK9      0.206000
     42 H7          4.8550    0.2150   -3.1890 h4        1 EK9      0.203000
     43 H2          4.1730    0.4610   -0.7710 hn        1 EK9      0.301700
     44 H12         4.8110    2.2270   -6.3160 hc        1 EK9      0.050700
     45 H10         4.2990    2.0870   -4.5830 hc        1 EK9      0.050700
     46 H11         5.4210    0.8520   -5.3090 hc        1 EK9      0.050700
     47 H9          3.7760    0.9300   -8.0690 h4        1 EK9      0.041100
     48 H17        -0.3160   -0.2580   -8.9770 ha        1 EK9      0.145000
     49 H16        -2.2480   -1.5930   -9.7860 ha        1 EK9      0.140500
     50 H15        -2.9320   -3.6730   -8.5860 ha        1 EK9      0.141000
     51 H14        -1.6710   -4.4160   -6.5640 ha        1 EK9      0.140500
     52 H13         0.2590   -3.0900   -5.7350 ha        1 EK9      0.145000
     53 H121        2.8220    0.9290    1.2290 hn        1 EK9      0.458800
@<TRIPOS>BOND
     1    1    2 2   
     2    2    3 1   
     3    2   13 1   
     4    3    4 1   
     5    3   31 1   
     6    3   53 1   
     7    4    5 1   
     8    4   11 1   
     9    4   32 1   
    10    5    6 ar  
    11    5   10 ar  
    12    6    7 ar  
    13    6   33 1   
    14    7    8 ar  
    15    7   34 1   
    16    8    9 ar  
    17    8   35 1   
    18    9   10 ar  
    19    9   36 1   
    20   10   37 1   
    21   11   12 1   
    22   11   38 1   
    23   11   39 1   
    24   12   40 1   
    25   13   14 2   
    26   13   17 1   
    27   14   15 1   
    28   14   41 1   
    29   15   16 2   
    30   15   18 1   
    31   16   17 1   
    32   16   42 1   
    33   17   43 1   
    34   18   19 ar  
    35   18   24 ar  
    36   19   20 1   
    37   19   21 ar  
    38   20   44 1   
    39   20   45 1   
    40   20   46 1   
    41   21   22 ar  
    42   21   47 1   
    43   22   23 ar  
    44   23   24 ar  
    45   23   25 1   
    46   25   26 ar  
    47   25   30 ar  
    48   26   27 ar  
    49   26   48 1   
    50   27   28 ar  
    51   27   49 1   
    52   28   29 ar  
    53   28   50 1   
    54   29   30 ar  
    55   29   51 1   
    56   30   52 1   
@<TRIPOS>SUBSTRUCTURE
     1 EK9         1 TEMP              0 ****  ****    0 ROOT
