@<TRIPOS>MOLECULE
EK9
   52    55     1     0     0
SMALL
bcc


@<TRIPOS>ATOM
      1 O2         -1.8160   -1.9190   -0.5070 o         1 EK9     -0.591100
      2 C3         -2.0170   -0.7240   -0.2130 c         1 EK9      0.692700
      3 N1         -3.3040   -0.1930   -0.1530 n         1 EK9     -0.542900
      4 C2         -4.4390   -0.9840   -0.5890 c3        1 EK9      0.138000
      5 C19        -5.6710   -0.6430    0.2130 ca        1 EK9     -0.096300
      6 C24        -6.1720   -1.5730    1.1310 ca        1 EK9     -0.114500
      7 C23        -7.3090   -1.2720    1.8800 ca        1 EK9     -0.135000
      8 C22        -7.9470   -0.0420    1.7220 ca        1 EK9     -0.124000
      9 C21        -7.4470    0.8880    0.8110 ca        1 EK9     -0.135000
     10 C20        -6.3110    0.5910    0.0590 ca        1 EK9     -0.114500
     11 C1         -4.7340   -0.8720   -2.1040 c3        1 EK9      0.102400
     12 O1         -4.7530    0.4980   -2.4770 oh        1 EK9     -0.615800
     13 C4         -0.8970    0.1670    0.1440 cc        1 EK9     -0.205900
     14 C7          0.4490   -0.0000   -0.2250 cd        1 EK9     -0.061000
     15 C6          1.1810    1.1010    0.3360 cd        1 EK9     -0.247500
     16 C5          0.2550    1.8900    1.0540 cc        1 EK9     -0.102300
     17 N2         -1.0010    1.3320    0.9200 na        1 EK9     -0.157100
     18 C8          2.6100    1.3200    0.2050 ca        1 EK9      0.541800
     19 C11         3.1610    2.6270    0.1340 ca        1 EK9     -0.314900
     20 C12         2.3560    3.8610    0.1660 c3        1 EK9     -0.042800
     21 C10         4.5670    2.7080    0.0090 ca        1 EK9      0.429200
     22 N4          5.3700    1.6370   -0.0480 nb        1 EK9     -0.694000
     23 C9          4.7510    0.4090    0.0130 cp        1 EK9      0.700500
     24 N3          3.4040    0.2150    0.1370 nb        1 EK9     -0.688000
     25 C13         5.6140   -0.7990   -0.0590 cp        1 EK9     -0.139500
     26 C18         6.8700   -0.8010    0.5640 ca        1 EK9     -0.087500
     27 C17         7.6770   -1.9360    0.4940 ca        1 EK9     -0.143500
     28 C16         7.2400   -3.0680   -0.1930 ca        1 EK9     -0.115000
     29 C15         5.9910   -3.0660   -0.8130 ca        1 EK9     -0.143500
     30 C14         5.1760   -1.9370   -0.7480 ca        1 EK9     -0.087500
     31 H6         -3.4120    0.7860   -0.2980 hn        1 EK9      0.307500
     32 H1         -4.1780   -2.0750   -0.4100 h1        1 EK9      0.095700
     33 H22        -5.6670   -2.5420    1.2660 ha        1 EK9      0.143000
     34 H21        -7.7020   -2.0080    2.5980 ha        1 EK9      0.132500
     35 H20        -8.8440    0.1930    2.3140 ha        1 EK9      0.132000
     36 H19        -7.9480    1.8590    0.6840 ha        1 EK9      0.132500
     37 H18        -5.9210    1.3170   -0.6720 ha        1 EK9      0.143000
     38 H4         -3.9320   -1.4090   -2.6790 h1        1 EK9      0.041200
     39 H5         -5.7290   -1.3420   -2.3180 h1        1 EK9      0.041200
     40 H3         -4.9110    0.5210   -3.4280 ho        1 EK9      0.408000
     41 H8          0.8540   -0.8170   -0.8190 ha        1 EK9      0.183000
     42 H7          0.4200    2.7900    1.6490 h4        1 EK9      0.175000
     43 H2         -1.8170    1.6300    1.3880 hn        1 EK9      0.305700
     44 H12         2.1510    4.1650    1.2240 hc        1 EK9      0.046700
     45 H10         2.8990    4.7010   -0.3350 hc        1 EK9      0.046700
     46 H11         1.3770    3.7130   -0.3560 hc        1 EK9      0.046700
     47 H9          5.0690    3.6920   -0.0530 h4        1 EK9      0.025100
     48 H17         7.2240    0.0880    1.1070 ha        1 EK9      0.147500
     49 H16         8.6610   -1.9350    0.9850 ha        1 EK9      0.133000
     50 H15         7.8800   -3.9610   -0.2460 ha        1 EK9      0.131000
     51 H14         5.6440   -3.9580   -1.3550 ha        1 EK9      0.133000
     52 H13         4.1900   -1.9480   -1.2370 ha        1 EK9      0.147500
@<TRIPOS>BOND
     1    1    2 2   
     2    2    3 1   
     3    2   13 1   
     4    3    4 1   
     5    3   31 1   
     6    4    5 1   
     7    4   11 1   
     8    4   32 1   
     9    5    6 ar  
    10    5   10 ar  
    11    6    7 ar  
    12    6   33 1   
    13    7    8 ar  
    14    7   34 1   
    15    8    9 ar  
    16    8   35 1   
    17    9   10 ar  
    18    9   36 1   
    19   10   37 1   
    20   11   12 1   
    21   11   38 1   
    22   11   39 1   
    23   12   40 1   
    24   13   14 2   
    25   13   17 1   
    26   14   15 1   
    27   14   41 1   
    28   15   16 2   
    29   15   18 1   
    30   16   17 1   
    31   16   42 1   
    32   17   43 1   
    33   18   19 ar  
    34   18   24 ar  
    35   19   20 1   
    36   19   21 ar  
    37   20   44 1   
    38   20   45 1   
    39   20   46 1   
    40   21   22 ar  
    41   21   47 1   
    42   22   23 ar  
    43   23   24 ar  
    44   23   25 1   
    45   25   26 ar  
    46   25   30 ar  
    47   26   27 ar  
    48   26   48 1   
    49   27   28 ar  
    50   27   49 1   
    51   28   29 ar  
    52   28   50 1   
    53   29   30 ar  
    54   29   51 1   
    55   30   52 1   
@<TRIPOS>SUBSTRUCTURE
     1 EK9         1 TEMP              0 ****  ****    0 ROOT
