@<TRIPOS>MOLECULE
EK9
   53    56     1     0     0
SMALL
bcc


@<TRIPOS>ATOM
      1 O2          0.1300    0.5330   -0.0390 o         1 EK9     -0.447100
      2 C3          1.3430    0.3780   -0.1410 c         1 EK9      0.598700
      3 N1          2.1140    0.1860    1.1540 n4        1 EK9     -0.677800
      4 C2          1.2660    0.2580    2.4030 c3        1 EK9      0.155800
      5 C19         1.8830   -0.5750    3.4850 ca        1 EK9     -0.181300
      6 C24         1.1500   -1.6340    4.0320 ca        1 EK9     -0.113500
      7 C23         1.6970   -2.4010    5.0600 ca        1 EK9     -0.114500
      8 C22         2.9770   -2.1210    5.5390 ca        1 EK9     -0.084000
      9 C21         3.7130   -1.0680    4.9900 ca        1 EK9     -0.114500
     10 C20         3.1680   -0.2950    3.9680 ca        1 EK9     -0.113500
     11 C1          1.0600    1.7300    2.8340 c3        1 EK9      0.115400
     12 O1          2.2890    2.4220    2.8380 oh        1 EK9     -0.616800
     13 C4          2.1120    0.3290   -1.3500 cc        1 EK9     -0.303900
     14 C7          1.5360    0.2490   -2.6490 cd        1 EK9      0.031000
     15 C6          2.6110    0.2010   -3.5830 cd        1 EK9     -0.218500
     16 C5          3.8150    0.2500   -2.8370 cc        1 EK9     -0.022300
     17 N2          3.5170    0.3060   -1.4930 na        1 EK9     -0.172100
     18 C8          2.4670    0.0760   -5.0270 ca        1 EK9      0.499800
     19 C11         3.3660    0.6950   -5.9240 ca        1 EK9     -0.302900
     20 C12         4.5170    1.5180   -5.5120 c3        1 EK9     -0.049800
     21 C10         3.0990    0.4970   -7.3040 ca        1 EK9      0.442200
     22 N4          2.0700   -0.2220   -7.7610 nb        1 EK9     -0.668000
     23 C9          1.2400   -0.7840   -6.8130 cp        1 EK9      0.720500
     24 N3          1.4040   -0.6580   -5.4630 nb        1 EK9     -0.697000
     25 C13         0.0850   -1.5830   -7.2970 cp        1 EK9     -0.157500
     26 C18        -0.6230   -1.1680   -8.4330 ca        1 EK9     -0.085500
     27 C17        -1.7060   -1.9210   -8.8860 ca        1 EK9     -0.139000
     28 C16        -2.0820   -3.0860   -8.2170 ca        1 EK9     -0.103000
     29 C15        -1.3740   -3.5000   -7.0880 ca        1 EK9     -0.139000
     30 C14        -0.2920   -2.7520   -6.6250 ca        1 EK9     -0.085500
     31 H6          2.5810   -0.7260    1.1260 hn        1 EK9      0.458800
     32 H1          0.2440   -0.1590    2.1380 hx        1 EK9      0.130700
     33 H22         0.1370   -1.8610    3.6620 ha        1 EK9      0.139000
     34 H21         1.1140   -3.2290    5.4940 ha        1 EK9      0.159500
     35 H20         3.4080   -2.7290    6.3510 ha        1 EK9      0.161000
     36 H19         4.7220   -0.8450    5.3710 ha        1 EK9      0.159500
     37 H18         3.7460    0.5450    3.5530 ha        1 EK9      0.139000
     38 H4          0.4120    2.2550    2.0760 h1        1 EK9      0.093700
     39 H5          0.5550    1.7350    3.8340 h1        1 EK9      0.093700
     40 H3          2.5960    2.4900    3.7510 ho        1 EK9      0.435000
     41 H8          0.4670    0.2170   -2.8740 ha        1 EK9      0.206000
     42 H7          4.8510    0.2270   -3.1950 h4        1 EK9      0.203000
     43 H2          4.1750    0.4680   -0.7750 hn        1 EK9      0.301700
     44 H12         4.2860    2.1000   -4.5850 hc        1 EK9      0.050700
     45 H10         4.7920    2.2450   -6.3180 hc        1 EK9      0.050700
     46 H11         5.4100    0.8710   -5.3150 hc        1 EK9      0.050700
     47 H9          3.7580    0.9480   -8.0720 h4        1 EK9      0.041100
     48 H17        -0.3320   -0.2540   -8.9720 ha        1 EK9      0.145000
     49 H16        -2.2610   -1.5950   -9.7780 ha        1 EK9      0.140500
     50 H15        -2.9340   -3.6790   -8.5800 ha        1 EK9      0.141000
     51 H14        -1.6660   -4.4210   -6.5620 ha        1 EK9      0.140500
     52 H13         0.2620   -3.0890   -5.7360 ha        1 EK9      0.145000
     53 H121        2.8280    0.9240    1.2290 hn        1 EK9      0.458800
@<TRIPOS>BOND
     1    1    2 2   
     2    2    3 1   
     3    2   13 1   
     4    3    4 1   
     5    3   31 1   
     6    3   53 1   
     7    4    5 1   
     8    4   11 1   
     9    4   32 1   
    10    5    6 ar  
    11    5   10 ar  
    12    6    7 ar  
    13    6   33 1   
    14    7    8 ar  
    15    7   34 1   
    16    8    9 ar  
    17    8   35 1   
    18    9   10 ar  
    19    9   36 1   
    20   10   37 1   
    21   11   12 1   
    22   11   38 1   
    23   11   39 1   
    24   12   40 1   
    25   13   14 2   
    26   13   17 1   
    27   14   15 1   
    28   14   41 1   
    29   15   16 2   
    30   15   18 1   
    31   16   17 1   
    32   16   42 1   
    33   17   43 1   
    34   18   19 ar  
    35   18   24 ar  
    36   19   20 1   
    37   19   21 ar  
    38   20   44 1   
    39   20   45 1   
    40   20   46 1   
    41   21   22 ar  
    42   21   47 1   
    43   22   23 ar  
    44   23   24 ar  
    45   23   25 1   
    46   25   26 ar  
    47   25   30 ar  
    48   26   27 ar  
    49   26   48 1   
    50   27   28 ar  
    51   27   49 1   
    52   28   29 ar  
    53   28   50 1   
    54   29   30 ar  
    55   29   51 1   
    56   30   52 1   
@<TRIPOS>SUBSTRUCTURE
     1 EK9         1 TEMP              0 ****  ****    0 ROOT
