@<TRIPOS>MOLECULE
EKB
   47    48     1     0     0
SMALL
bcc


@<TRIPOS>ATOM
      1 N1         -4.0870    1.2970   -1.6070 nb        1 EKB     -0.831000
      2 C2         -5.2630    0.7810   -1.0990 ca        1 EKB      0.914900
      3 N3         -5.3740   -0.0220    0.0320 nb        1 EKB     -0.792000
      4 C4         -4.2260   -0.3620    0.6490 ca        1 EKB      0.538600
      5 C5         -2.9570    0.0830    0.2030 ca        1 EKB     -0.338600
      6 C6         -2.9350    0.9530   -0.9510 ca        1 EKB      0.745200
      7 C1A        -4.7910   -2.6330    1.5170 c3        1 EKB     -0.087100
      8 C1B         3.4280    3.2420    1.6820 c3        1 EKB      0.111200
      9 C1C         3.3260   -3.0810   -1.7200 c3        1 EKB      0.111200
     10 C1D         6.2300    0.0840   -0.8410 c3        1 EKB      0.115700
     11 N1E        -6.4340    1.0420   -1.8150 nh        1 EKB     -0.931500
     12 N1F        -1.7430    1.4940   -1.3840 nh        1 EKB     -0.954500
     13 C1G        -0.7320   -0.5890    1.3610 c1        1 EKB     -0.159100
     14 C1H        -1.7650   -0.2830    0.8340 cg        1 EKB     -0.078000
     15 C1I         2.2710    0.7040    1.4150 ca        1 EKB     -0.221500
     16 C1J         2.2380   -1.4310    0.2650 ca        1 EKB     -0.221500
     17 C1K        -4.3200   -1.2430    1.8680 c3        1 EKB     -0.138700
     18 C1L         0.4960   -0.9600    1.9990 c3        1 EKB      0.052000
     19 O1O         4.0560    2.2880    0.8320 os        1 EKB     -0.312400
     20 O1P         3.9830   -1.8560   -1.4100 os        1 EKB     -0.312400
     21 O1Q         4.9600    0.6780   -1.1150 os        1 EKB     -0.310900
     22 C1S         1.6960   -0.5500    1.2030 ca        1 EKB     -0.020300
     23 C1V         3.3990    1.0870    0.6770 ca        1 EKB      0.137600
     24 C1W         3.3600   -1.0490   -0.4800 ca        1 EKB      0.137600
     25 C1Y         3.9450    0.2220   -0.2960 ca        1 EKB      0.040100
     26 H1A        -4.8100   -3.2670    2.4370 hc        1 EKB      0.041033
     27 H1AA       -5.8190   -2.6080    1.0820 hc        1 EKB      0.041033
     28 H1AB       -4.1060   -3.1080    0.7750 hc        1 EKB      0.041033
     29 H1B         2.3930    3.4700    1.3310 h1        1 EKB      0.046367
     30 H1BA        3.4130    2.8760    2.7370 h1        1 EKB      0.046367
     31 H1BB        4.0860    4.1430    1.5870 h1        1 EKB      0.046367
     32 H1C         2.2880   -2.8950   -2.0850 h1        1 EKB      0.046367
     33 H1CA        3.9610   -3.5140   -2.5350 h1        1 EKB      0.046367
     34 H1CB        3.3150   -3.7560   -0.8300 h1        1 EKB      0.046367
     35 H1D         6.5590    0.3330    0.1960 h1        1 EKB      0.041367
     36 H1DA        6.1790   -1.0220   -0.9840 h1        1 EKB      0.041367
     37 H1DB        6.9070    0.5550   -1.5970 h1        1 EKB      0.041367
     38 HN1E       -6.4100    1.7920   -2.4650 hn        1 EKB      0.429800
     39 HN1A       -7.2930    0.8860   -1.3430 hn        1 EKB      0.429800
     40 HN1F       -0.9050    1.1030   -1.0260 hn        1 EKB      0.439300
     41 HN1B       -1.7060    1.9710   -2.2520 hn        1 EKB      0.439300
     42 H1I         1.8350    1.3820    2.1620 ha        1 EKB      0.144000
     43 H1J         1.7740   -2.4170    0.1150 ha        1 EKB      0.144000
     44 H1K        -3.3140   -1.2970    2.3630 hc        1 EKB      0.062200
     45 H1KA       -5.0320   -0.7780    2.6030 hc        1 EKB      0.062200
     46 H1L         0.5430   -0.4830    3.0210 hc        1 EKB      0.065700
     47 H1LA        0.5110   -2.0770    2.1540 hc        1 EKB      0.065700
@<TRIPOS>BOND
     1    1    2 ar  
     2    1    6 ar  
     3    2    3 ar  
     4    2   11 1   
     5    3    4 ar  
     6    4    5 ar  
     7    4   17 1   
     8    5    6 ar  
     9    5   14 1   
    10    6   12 1   
    11    7   17 1   
    12    7   26 1   
    13    7   27 1   
    14    7   28 1   
    15    8   19 1   
    16    8   29 1   
    17    8   30 1   
    18    8   31 1   
    19    9   20 1   
    20    9   32 1   
    21    9   33 1   
    22    9   34 1   
    23   10   21 1   
    24   10   35 1   
    25   10   36 1   
    26   10   37 1   
    27   11   38 1   
    28   11   39 1   
    29   12   40 1   
    30   12   41 1   
    31   13   14 3   
    32   13   18 1   
    33   15   22 ar  
    34   15   23 ar  
    35   15   42 1   
    36   16   22 ar  
    37   16   24 ar  
    38   16   43 1   
    39   17   44 1   
    40   17   45 1   
    41   18   22 1   
    42   18   46 1   
    43   18   47 1   
    44   19   23 1   
    45   20   24 1   
    46   21   25 1   
    47   23   25 ar  
    48   24   25 ar  
@<TRIPOS>SUBSTRUCTURE
     1 EKB         1 TEMP              0 ****  ****    0 ROOT
