@<TRIPOS>MOLECULE
EKB
   49    50     1     0     0
SMALL
bcc


@<TRIPOS>ATOM
      1 N1          0.4730    0.6300    0.0120 nb        1 EKB     -0.660000
      2 C2          1.6950    0.1850    0.3960 ca        1 EKB      0.725900
      3 N3          2.0720   -0.2460    1.6540 nb        1 EKB     -0.638000
      4 C4          1.1360   -0.2270    2.6150 ca        1 EKB      0.540600
      5 C5         -0.2190    0.2280    2.3350 ca        1 EKB     -0.002600
      6 C6         -0.4740    0.6420    1.0040 ca        1 EKB      0.458200
      7 C1A         2.4580    0.2800    4.6680 c3        1 EKB     -0.100100
      8 C1B         0.7830   -3.4810    8.7380 c3        1 EKB      0.113200
      9 C1C        -2.4120    2.0040   10.1840 c3        1 EKB      0.113200
     10 C1D        -0.4520   -1.5010   11.2440 c3        1 EKB      0.107700
     11 N1E         2.7650    0.1490   -0.6430 n4        1 EKB     -0.813300
     12 N1F        -1.8190    1.1170    0.6280 n4        1 EKB     -0.813300
     13 C1G        -1.9470    0.2170    4.2640 c1        1 EKB      0.175900
     14 C1H        -1.1940    0.2500    3.3190 cg        1 EKB     -0.355000
     15 C1I        -1.2420   -1.3440    6.6170 ca        1 EKB     -0.206500
     16 C1J        -2.1750    0.5630    7.7890 ca        1 EKB     -0.206500
     17 C1K         1.5040   -0.6830    4.0010 c3        1 EKB     -0.157700
     18 C1L        -2.8150    0.1620    5.4030 c3        1 EKB     -0.007000
     19 O1O         0.3030   -2.7960    7.5800 os        1 EKB     -0.322400
     20 O1P        -1.5040    0.9050   10.1180 os        1 EKB     -0.322400
     21 O1Q         0.2120   -1.2310   10.0040 os        1 EKB     -0.327900
     22 C1S        -2.0530   -0.2140    6.6360 ca        1 EKB     -0.072300
     23 C1V        -0.5140   -1.7080    7.7680 ca        1 EKB      0.153100
     24 C1W        -1.4600    0.2030    8.9390 ca        1 EKB      0.153100
     25 C1Y        -0.6120   -0.9340    8.9400 ca        1 EKB      0.041100
     26 H1A         2.6660   -0.0820    5.7070 hc        1 EKB      0.066700
     27 H1AA        3.4280    0.3380    4.1170 hc        1 EKB      0.066700
     28 H1AB        2.0180    1.3040    4.7370 hc        1 EKB      0.066700
     29 H1B         1.1790   -4.4410    8.3180 h1        1 EKB      0.058700
     30 H1BA        1.5960   -2.8840    9.2190 h1        1 EKB      0.058700
     31 H1BB       -0.0450   -3.6710    9.4630 h1        1 EKB      0.058700
     32 H1C        -2.1150    2.8000    9.4590 h1        1 EKB      0.058700
     33 H1CA       -2.2920    2.3650   11.2390 h1        1 EKB      0.058700
     34 H1CB       -3.4590    1.6640    9.9980 h1        1 EKB      0.058700
     35 H1D         0.3880   -1.8150   11.9150 h1        1 EKB      0.058033
     36 H1DA       -0.9450   -0.5790   11.6340 h1        1 EKB      0.058033
     37 H1DB       -1.1940   -2.3250   11.1170 h1        1 EKB      0.058033
     38 HN1E        3.1090   -0.8200   -0.7370 hn        1 EKB      0.496800
     39 HN1A        3.5450    0.7550   -0.3420 hn        1 EKB      0.496800
     40 HN1F       -2.2180    0.5130   -0.1060 hn        1 EKB      0.489467
     41 HN1B       -1.7710    2.0840    0.2750 hn        1 EKB      0.489467
     42 H1I        -1.1690   -1.9830    5.7270 ha        1 EKB      0.143000
     43 H1J        -2.8260    1.4490    7.7950 ha        1 EKB      0.143000
     44 H1K         1.9810   -1.7020    3.9390 hc        1 EKB      0.108200
     45 H1KA        0.5700   -0.7890    4.6220 hc        1 EKB      0.108200
     46 H1L        -3.6290   -0.6030    5.2190 hc        1 EKB      0.116200
     47 H1LA       -3.3240    1.1620    5.5400 hc        1 EKB      0.116200
     48 H1E3        2.4060    0.4760   -1.5520 hn        1 EKB      0.496800
     49 H1F3       -2.4250    1.0870    1.4630 hn        1 EKB      0.489467
@<TRIPOS>BOND
     1    1    2 ar  
     2    1    6 ar  
     3    2    3 ar  
     4    2   11 1   
     5    3    4 ar  
     6    4    5 ar  
     7    4   17 1   
     8    5    6 ar  
     9    5   14 1   
    10    6   12 1   
    11    7   17 1   
    12    7   26 1   
    13    7   27 1   
    14    7   28 1   
    15    8   19 1   
    16    8   29 1   
    17    8   30 1   
    18    8   31 1   
    19    9   20 1   
    20    9   32 1   
    21    9   33 1   
    22    9   34 1   
    23   10   21 1   
    24   10   35 1   
    25   10   36 1   
    26   10   37 1   
    27   11   38 1   
    28   11   39 1   
    29   11   48 1   
    30   12   40 1   
    31   12   41 1   
    32   12   49 1   
    33   13   14 3   
    34   13   18 1   
    35   15   22 ar  
    36   15   23 ar  
    37   15   42 1   
    38   16   22 ar  
    39   16   24 ar  
    40   16   43 1   
    41   17   44 1   
    42   17   45 1   
    43   18   22 1   
    44   18   46 1   
    45   18   47 1   
    46   19   23 1   
    47   20   24 1   
    48   21   25 1   
    49   23   25 ar  
    50   24   25 ar  
@<TRIPOS>SUBSTRUCTURE
     1 EKB         1 TEMP              0 ****  ****    0 ROOT
