@<TRIPOS>MOLECULE
EKB
   47    48     1     0     0
SMALL
bcc


@<TRIPOS>ATOM
      1 N1         -0.0750    0.2440   -0.0480 nb        1 EKB     -0.832000
      2 C2          1.1520    0.8530    0.1350 ca        1 EKB      0.915900
      3 N3          1.8120    0.9960    1.3510 nb        1 EKB     -0.793000
      4 C4          1.1710    0.5440    2.4460 ca        1 EKB      0.539600
      5 C5         -0.1040   -0.0710    2.3870 ca        1 EKB     -0.340600
      6 C6         -0.6990   -0.2230    1.0780 ca        1 EKB      0.748200
      7 C1A         2.0090    2.1470    4.1690 c3        1 EKB     -0.087100
      8 C1B        -7.7550   -2.7140    5.7010 c3        1 EKB      0.113700
      9 C1C        -4.5690    3.0180    4.9600 c3        1 EKB      0.113700
     10 C1D        -7.8580    1.1170    6.9980 c3        1 EKB      0.117700
     11 N1E         1.7530    1.4220   -0.9900 nv        1 EKB     -0.931500
     12 N1F        -1.8980   -0.8870    0.9390 nv        1 EKB     -0.958500
     13 C1G        -1.3670   -0.9170    4.4930 c1        1 EKB     -0.158100
     14 C1H        -0.7750   -0.5260    3.5250 cg        1 EKB     -0.083000
     15 C1I        -4.4690   -1.8840    6.0660 ca        1 EKB     -0.181000
     16 C1J        -3.8130    0.3760    5.4870 ca        1 EKB     -0.181000
     17 C1K         1.8630    0.6970    3.7760 c3        1 EKB     -0.138700
     18 C1L        -2.0530   -1.4020    5.6530 c3        1 EKB      0.051000
     19 O1O        -6.7210   -2.3990    6.6350 os        1 EKB     -0.330400
     20 O1P        -5.5650    2.0920    5.3820 os        1 EKB     -0.330400
     21 O1Q        -7.4950    0.2310    5.9380 os        1 EKB     -0.331900
     22 C1S        -3.4790   -0.9620    5.7280 ca        1 EKB     -0.043300
     23 C1V        -5.8030   -1.4660    6.1810 ca        1 EKB      0.118600
     24 C1W        -5.1430    0.7930    5.5860 ca        1 EKB      0.118600
     25 C1Y        -6.1580   -0.1280    5.9390 ca        1 EKB      0.042100
     26 H1A         2.4860    2.2170    5.1770 hc        1 EKB      0.040367
     27 H1AA        2.6470    2.6960    3.4360 hc        1 EKB      0.040367
     28 H1AB        1.0120    2.6470    4.2140 hc        1 EKB      0.040367
     29 H1B        -8.3920   -3.4470    6.2560 h1        1 EKB      0.046867
     30 H1BA       -8.3380   -1.8000    5.4330 h1        1 EKB      0.046867
     31 H1BB       -7.3170   -3.1810    4.7870 h1        1 EKB      0.046867
     32 H1C        -4.1060    2.6910    3.9980 h1        1 EKB      0.046867
     33 H1CA       -3.7880    3.1410    5.7500 h1        1 EKB      0.046867
     34 H1CB       -5.1440    3.9680    4.8210 h1        1 EKB      0.046867
     35 H1D        -7.6760    0.6320    7.9870 h1        1 EKB      0.044700
     36 H1DA       -7.2880    2.0740    6.9180 h1        1 EKB      0.044700
     37 H1DB       -8.9510    1.2880    6.8320 h1        1 EKB      0.044700
     38 HN1E        2.7190    1.6430   -0.9200 hn        1 EKB      0.430300
     39 HN1A        1.4250    1.1250   -1.8790 hn        1 EKB      0.430300
     40 HN1F       -2.4170   -1.0810    1.7600 hn        1 EKB      0.440300
     41 HN1B       -2.3690   -0.8820    0.0680 hn        1 EKB      0.440300
     42 H1I        -4.2220   -2.9380    6.2610 ha        1 EKB      0.149500
     43 H1J        -3.0180    1.0840    5.2120 ha        1 EKB      0.149500
     44 H1K         1.2790    0.1480    4.5620 hc        1 EKB      0.062700
     45 H1KA        2.8780    0.2180    3.7170 hc        1 EKB      0.062700
     46 H1L        -2.0000   -2.5290    5.6670 hc        1 EKB      0.070200
     47 H1LA       -1.5180   -1.0350    6.5780 hc        1 EKB      0.070200
@<TRIPOS>BOND
     1    1    2 ar  
     2    1    6 ar  
     3    2    3 ar  
     4    2   11 1   
     5    3    4 ar  
     6    4    5 ar  
     7    4   17 1   
     8    5    6 ar  
     9    5   14 1   
    10    6   12 1   
    11    7   17 1   
    12    7   26 1   
    13    7   27 1   
    14    7   28 1   
    15    8   19 1   
    16    8   29 1   
    17    8   30 1   
    18    8   31 1   
    19    9   20 1   
    20    9   32 1   
    21    9   33 1   
    22    9   34 1   
    23   10   21 1   
    24   10   35 1   
    25   10   36 1   
    26   10   37 1   
    27   11   38 1   
    28   11   39 1   
    29   12   40 1   
    30   12   41 1   
    31   13   14 3   
    32   13   18 1   
    33   15   22 ar  
    34   15   23 ar  
    35   15   42 1   
    36   16   22 ar  
    37   16   24 ar  
    38   16   43 1   
    39   17   44 1   
    40   17   45 1   
    41   18   22 1   
    42   18   46 1   
    43   18   47 1   
    44   19   23 1   
    45   20   24 1   
    46   21   25 1   
    47   23   25 ar  
    48   24   25 ar  
@<TRIPOS>SUBSTRUCTURE
     1 EKB         1 TEMP              0 ****  ****    0 ROOT
