@<TRIPOS>MOLECULE
EKB
   47    48     1     0     0
SMALL
bcc


@<TRIPOS>ATOM
      1 N1         -0.0490   -0.1640   -0.1170 nb        1 EKB     -0.831000
      2 C2          1.3060    0.1020   -0.0820 ca        1 EKB      0.915900
      3 N3          2.0620    0.3080    1.0680 nb        1 EKB     -0.792000
      4 C4          1.4180    0.1920    2.2450 ca        1 EKB      0.538600
      5 C5          0.0360   -0.1070    2.3360 ca        1 EKB     -0.338600
      6 C6         -0.6840   -0.2620    1.0920 ca        1 EKB      0.745200
      7 C1A         2.6790    1.8200    3.6560 c3        1 EKB     -0.087100
      8 C1B        -4.1210   -5.1460    5.6460 c3        1 EKB      0.111200
      9 C1C        -6.4920    1.5990    4.9740 c3        1 EKB      0.111200
     10 C1D        -8.1250   -2.3210    6.0670 c3        1 EKB      0.115700
     11 N1E         1.9860    0.1060   -1.3030 nh        1 EKB     -0.932500
     12 N1F        -2.0480   -0.4660    1.1060 nh        1 EKB     -0.954500
     13 C1G        -1.2110   -0.3730    4.5980 c1        1 EKB     -0.159100
     14 C1H        -0.6270   -0.2470    3.5580 cg        1 EKB     -0.078000
     15 C1I        -3.5420   -2.4050    5.7040 ca        1 EKB     -0.221500
     16 C1J        -4.3440   -0.1270    5.4760 ca        1 EKB     -0.221500
     17 C1K         2.2210    0.3910    3.5050 c3        1 EKB     -0.138700
     18 C1L        -1.9000   -0.5210    5.8450 c3        1 EKB      0.052000
     19 O1O        -5.1980   -4.2160    5.5950 os        1 EKB     -0.312400
     20 O1P        -6.7540    0.2090    5.1410 os        1 EKB     -0.312400
     21 O1Q        -7.1680   -2.4890    5.0190 os        1 EKB     -0.310900
     22 C1S        -3.2960   -1.0320    5.6650 ca        1 EKB     -0.020300
     23 C1V        -4.8480   -2.8840    5.5450 ca        1 EKB      0.137600
     24 C1W        -5.6500   -0.6030    5.3080 ca        1 EKB      0.137600
     25 C1Y        -5.9170   -1.9880    5.3230 ca        1 EKB      0.040100
     26 H1A         3.2330    1.9380    4.6200 hc        1 EKB      0.040367
     27 H1AA        3.3580    2.1120    2.8190 hc        1 EKB      0.040367
     28 H1AB        1.8060    2.5170    3.6630 hc        1 EKB      0.040367
     29 H1B        -4.6360   -6.1390    5.5970 h1        1 EKB      0.046367
     30 H1BA       -3.4360   -5.0120    4.7740 h1        1 EKB      0.046367
     31 H1BB       -3.5590   -5.0420    6.6060 h1        1 EKB      0.046367
     32 H1C        -5.8150    1.7750    4.1040 h1        1 EKB      0.046367
     33 H1CA       -6.0530    2.0290    5.9070 h1        1 EKB      0.046367
     34 H1CB       -7.5070    2.0300    4.7790 h1        1 EKB      0.046367
     35 H1D        -7.8030   -2.8770    6.9790 h1        1 EKB      0.041367
     36 H1DA       -8.2630   -1.2360    6.2950 h1        1 EKB      0.041367
     37 H1DB       -9.0600   -2.7630    5.6410 h1        1 EKB      0.041367
     38 HN1E        2.8880    0.5210   -1.3140 hn        1 EKB      0.430300
     39 HN1A        1.4380    0.1980   -2.1260 hn        1 EKB      0.430300
     40 HN1F       -2.4650   -0.7170    1.9700 hn        1 EKB      0.438800
     41 HN1B       -2.5150   -0.7150    0.2680 hn        1 EKB      0.438800
     42 H1I        -2.7060   -3.1020    5.8600 ha        1 EKB      0.144000
     43 H1J        -4.1320    0.9510    5.4540 ha        1 EKB      0.144000
     44 H1K         1.5970    0.0970    4.3910 hc        1 EKB      0.062700
     45 H1KA        3.1150   -0.2910    3.4830 hc        1 EKB      0.062700
     46 H1L        -1.3230   -1.2300    6.5060 hc        1 EKB      0.065700
     47 H1LA       -1.9310    0.4750    6.3730 hc        1 EKB      0.065700
@<TRIPOS>BOND
     1    1    2 ar  
     2    1    6 ar  
     3    2    3 ar  
     4    2   11 1   
     5    3    4 ar  
     6    4    5 ar  
     7    4   17 1   
     8    5    6 ar  
     9    5   14 1   
    10    6   12 1   
    11    7   17 1   
    12    7   26 1   
    13    7   27 1   
    14    7   28 1   
    15    8   19 1   
    16    8   29 1   
    17    8   30 1   
    18    8   31 1   
    19    9   20 1   
    20    9   32 1   
    21    9   33 1   
    22    9   34 1   
    23   10   21 1   
    24   10   35 1   
    25   10   36 1   
    26   10   37 1   
    27   11   38 1   
    28   11   39 1   
    29   12   40 1   
    30   12   41 1   
    31   13   14 3   
    32   13   18 1   
    33   15   22 ar  
    34   15   23 ar  
    35   15   42 1   
    36   16   22 ar  
    37   16   24 ar  
    38   16   43 1   
    39   17   44 1   
    40   17   45 1   
    41   18   22 1   
    42   18   46 1   
    43   18   47 1   
    44   19   23 1   
    45   20   24 1   
    46   21   25 1   
    47   23   25 ar  
    48   24   25 ar  
@<TRIPOS>SUBSTRUCTURE
     1 EKB         1 TEMP              0 ****  ****    0 ROOT
