@<TRIPOS>MOLECULE
EKB
   47    42     1     0     0
SMALL
bcc


@<TRIPOS>ATOM
      1 N1         -0.5680   -1.2170   -5.5140 n1        1 EKB     -0.309000
      2 C2          0.7310   -1.0750   -5.8230 c1        1 EKB      0.202000
      3 N3          1.6760   -0.9960   -4.8180 n1        1 EKB     -0.264000
      4 C4          1.2990   -1.0610   -3.5300 c1        1 EKB      0.120000
      5 C5         -0.0180   -1.2060   -3.2130 c1        1 EKB     -0.218000
      6 C6         -0.9550   -1.2840   -4.2110 c2        1 EKB      0.230000
      7 C1A         3.6560   -0.4820   -3.0600 c3        1 EKB     -0.201000
      8 C1B         1.9390    0.3830    4.9780 c3        1 EKB     -0.074000
      9 C1C        -1.3980    3.8210    2.0140 c3        1 EKB     -0.077000
     10 C1D        -2.1960    1.9830    5.3650 c3        1 EKB     -0.076000
     11 N1E         1.1440   -1.0080   -7.2200 n3        1 EKB     -0.333000
     12 N1F        -2.2050   -1.8830   -4.3610 n3        1 EKB     -0.356000
     13 C1G        -0.7480   -1.7550   -0.6080 c1        1 EKB     -0.136500
     14 C1H        -0.4270   -1.5140   -1.7530 c1        1 EKB     -0.136500
     15 C1I        -0.1550   -0.9260    2.8980 c1        1 EKB     -0.145000
     16 C1J        -1.6240    0.3770    1.4470 c1        1 EKB     -0.131000
     17 C1K         2.3250   -0.8280   -2.4320 c3        1 EKB     -0.123000
     18 C1L        -1.1500   -2.0560    0.8300 c2        1 EKB     -0.006000
     19 O1O         0.5600   -0.0390    5.0300 os        1 EKB     -0.222000
     20 O1P        -2.2750    2.6940    2.0540 os        1 EKB     -0.228000
     21 O1Q        -0.9120    1.9370    4.8130 os        1 EKB     -0.230000
     22 C1S        -0.9030   -0.8050    1.7050 c1        1 EKB     -0.054000
     23 C1V        -0.1310    0.1130    3.8110 c2        1 EKB      0.062000
     24 C1W        -1.5990    1.4220    2.3660 c1        1 EKB      0.044000
     25 C1Y        -0.8530    1.2970    3.5520 c2        1 EKB     -0.005000
     26 H1A         3.5670    0.3320   -3.5730 hc        1 EKB      0.079333
     27 H1AA        3.9390   -1.2140   -3.6540 hc        1 EKB      0.079333
     28 H1AB        4.3290   -0.3530   -2.3530 hc        1 EKB      0.079333
     29 H1B         2.5560   -0.4510    4.9070 h1        1 EKB      0.085667
     30 H1BA        2.0750    0.9550    4.2010 h1        1 EKB      0.085667
     31 H1BB        2.1530    0.8710    5.7760 h1        1 EKB      0.085667
     32 H1C        -0.7780    3.7220    1.2700 h1        1 EKB      0.085333
     33 H1CA       -0.8840    3.8750    2.8720 h1        1 EKB      0.085333
     34 H1CB       -1.9130    4.6240    1.8990 h1        1 EKB      0.085333
     35 H1D        -2.8590    1.8480    4.6610 h1        1 EKB      0.086333
     36 H1DA       -2.3410    2.8600    5.7880 h1        1 EKB      0.086333
     37 H1DB       -2.2840    1.3010    6.0170 h1        1 EKB      0.086333
     38 HN1E        1.9530   -0.6640   -7.4360 hn        1 EKB      0.228000
     39 HN1A        0.5240   -1.2410   -7.9150 hn        1 EKB      0.228000
     40 HN1F       -2.9490   -1.4760   -4.0260 hn        1 EKB      0.233500
     41 HN1B       -2.2710   -2.6820   -4.7460 hn        1 EKB      0.233500
     42 H1I         0.3680   -1.7840    3.0860 ha        1 EKB      0.150000
     43 H1J        -2.1430    0.4630    0.6200 ha        1 EKB      0.156000
     44 H1K         2.4220   -1.6670   -1.8750 hc        1 EKB      0.103500
     45 H1KA        2.0360   -0.1030   -1.8720 hc        1 EKB      0.103500
     46 H1L        -2.1060   -2.2960    0.8620 ha        1 EKB      0.110000
     47 H1LA       -0.6090   -2.8090    1.1720 ha        1 EKB      0.110000
@<TRIPOS>BOND
     1    1    6 1   
     2    2    3 1   
     3    2   11 1   
     4    4    5 1   
     5    4   17 1   
     6    5    6 1   
     7    6   12 1   
     8    7   17 1   
     9    7   26 1   
    10    7   27 1   
    11    7   28 1   
    12    8   19 1   
    13    8   29 1   
    14    8   30 1   
    15    8   31 1   
    16    9   20 1   
    17    9   32 1   
    18    9   33 1   
    19    9   34 1   
    20   10   21 1   
    21   10   35 1   
    22   10   36 1   
    23   10   37 1   
    24   11   38 1   
    25   11   39 1   
    26   12   40 1   
    27   12   41 1   
    28   13   14 1   
    29   15   23 1   
    30   15   42 1   
    31   16   22 1   
    32   16   43 1   
    33   17   44 1   
    34   17   45 1   
    35   18   22 1   
    36   18   46 1   
    37   18   47 1   
    38   19   23 1   
    39   20   24 1   
    40   21   25 1   
    41   23   25 1   
    42   24   25 1   
@<TRIPOS>SUBSTRUCTURE
     1 EKB         1 TEMP              0 ****  ****    0 ROOT
