@<TRIPOS>MOLECULE
EKE
   22    21     1     0     0
SMALL
bcc


@<TRIPOS>ATOM
      1 N          -1.7470    0.2180   -0.2280 n3        1 EKE     -0.897800
      2 CA         -0.3370    0.0980   -0.3770 c3        1 EKE      0.114500
      3 CB          0.3170    0.1270    0.9860 c3        1 EKE     -0.108400
      4 CG          0.2540    1.5320    1.5450 c3        1 EKE     -0.204400
      5 CD          0.9220    1.5640    2.9020 c         1 EKE      0.910600
      6 OE1         2.1690    1.7200    2.9870 o         1 EKE     -0.847300
      7 OE2         0.2320    1.4360    3.9470 o         1 EKE     -0.847300
      8 C          -0.0120   -1.2080   -1.0630 c3        1 EKE      0.149100
      9 O           1.3190   -1.5680   -0.7810 oh        1 EKE     -0.621800
     10 CMK        -0.1850   -1.0490   -2.5570 c3        1 EKE     -0.077100
     11 HN1        -2.0490    0.9200   -0.7330 hn        1 EKE      0.339800
     12 HN2        -2.1510   -0.5550   -0.5080 hn        1 EKE      0.339800
     13 HA         -0.0020    0.8420   -0.9150 h1        1 EKE      0.062700
     14 HB1         1.2520   -0.1490    0.9040 hc        1 EKE      0.050200
     15 HB2        -0.1530   -0.4840    1.5870 hc        1 EKE      0.050200
     16 HG1         0.7160    2.1450    0.9390 hc        1 EKE      0.021700
     17 HG2        -0.6810    1.8050    1.6350 hc        1 EKE      0.021700
     18 H          -0.6140   -1.9060   -0.7380 h1        1 EKE      0.022700
     19 HO          1.4200   -2.4440   -0.8930 ho        1 EKE      0.415000
     20 HMK1        0.3440   -0.2840   -2.8680 hc        1 EKE      0.035700
     21 HMK2       -1.1320   -0.8960   -2.7620 hc        1 EKE      0.035700
     22 HMK3        0.1190   -1.8630   -3.0100 hc        1 EKE      0.035700
@<TRIPOS>BOND
     1    1    2 1   
     2    1   11 1   
     3    1   12 1   
     4    2    3 1   
     5    2    8 1   
     6    2   13 1   
     7    3    4 1   
     8    3   14 1   
     9    3   15 1   
    10    4    5 1   
    11    4   16 1   
    12    4   17 1   
    13    5    6 1   
    14    5    7 1   
    15    8    9 1   
    16    8   10 1   
    17    8   18 1   
    18    9   19 1   
    19   10   20 1   
    20   10   21 1   
    21   10   22 1   
@<TRIPOS>SUBSTRUCTURE
     1 EKE         1 TEMP              0 ****  ****    0 ROOT
