@<TRIPOS>MOLECULE
EKE
   22    21     1     0     0
SMALL
bcc


@<TRIPOS>ATOM
      1 N           0.9310   -1.4710    0.7480 n3        1 EKE     -0.902800
      2 CA          1.1020   -0.3770   -0.1940 c3        1 EKE      0.145500
      3 CB         -0.0550    0.6350   -0.2240 c3        1 EKE     -0.097400
      4 CG         -1.3650   -0.0030   -0.6140 c3        1 EKE     -0.201400
      5 CD         -2.0330   -0.7990    0.5200 c         1 EKE      0.899600
      6 OE1        -1.6300   -0.6390    1.7110 o         1 EKE     -0.851800
      7 OE2        -2.9670   -1.5890    0.2010 o         1 EKE     -0.851800
      8 C           2.4220    0.3940    0.0670 c3        1 EKE      0.135100
      9 O           2.6290    1.3930   -0.9270 oh        1 EKE     -0.614800
     10 CMK         3.6240   -0.5320    0.1090 c3        1 EKE     -0.109100
     11 HN1         0.6910   -1.0930    1.6510 hn        1 EKE      0.367300
     12 HN2         0.1370   -2.0170    0.4550 hn        1 EKE      0.367300
     13 HA          1.1890   -0.8380   -1.2250 h1        1 EKE      0.026700
     14 HB1        -0.1670    1.0950    0.7940 hc        1 EKE      0.039200
     15 HB2         0.2090    1.4500   -0.9470 hc        1 EKE      0.039200
     16 HG1        -2.0870    0.7970   -0.9220 hc        1 EKE      0.025200
     17 HG2        -1.2240   -0.6850   -1.4910 hc        1 EKE      0.025200
     18 H           2.3430    0.9800    1.0250 h1        1 EKE      0.068700
     19 HO          2.4740    0.9770   -1.7830 ho        1 EKE      0.390000
     20 HMK1        4.5660    0.0680    0.1080 hc        1 EKE      0.033700
     21 HMK2        3.5930   -1.1600    1.0300 hc        1 EKE      0.033700
     22 HMK3        3.6290   -1.2050   -0.7810 hc        1 EKE      0.033700
@<TRIPOS>BOND
     1    1    2 1   
     2    1   11 1   
     3    1   12 1   
     4    2    3 1   
     5    2    8 1   
     6    2   13 1   
     7    3    4 1   
     8    3   14 1   
     9    3   15 1   
    10    4    5 1   
    11    4   16 1   
    12    4   17 1   
    13    5    6 1   
    14    5    7 1   
    15    8    9 1   
    16    8   10 1   
    17    8   18 1   
    18    9   19 1   
    19   10   20 1   
    20   10   21 1   
    21   10   22 1   
@<TRIPOS>SUBSTRUCTURE
     1 EKE         1 TEMP              0 ****  ****    0 ROOT
