@<TRIPOS>MOLECULE
EKO
   39    41     1     0     0
SMALL
bcc


@<TRIPOS>ATOM
      1 O          -0.0020   -0.0170   -0.0020 os        1 EKO     -0.428600
      2 Cl1         4.2900    0.9660    0.3600 cl        1 EKO     -0.090400
      3 Cl2         3.3610    0.7230    5.6010 cl        1 EKO     -0.087400
      4 Cl3        -6.5050    0.8140   -0.7440 cl        1 EKO     -0.093400
      5 CB          1.4320   -0.0930   -0.0270 c3        1 EKO      0.189400
      6 CG          1.9230    0.1110    1.3770 ca        1 EKO     -0.070300
      7 CZ          2.8170    0.4920    4.0070 ca        1 EKO      0.026400
      8 CB2        -0.5480    0.5200   -1.2080 c3        1 EKO      0.174700
      9 CB3         1.8950   -1.4240   -0.6270 c3        1 EKO     -0.111700
     10 CD1         3.2180    0.5920    1.6300 ca        1 EKO      0.031400
     11 ND1         2.2560   -3.7210    0.3900 nc        1 EKO     -0.660000
     12 CD2         1.0890   -0.1700    2.4660 ca        1 EKO     -0.084000
     13 CD3        -2.6400    0.7220    0.1820 ca        1 EKO     -0.109000
     14 CD4        -2.8280    0.4880   -2.2190 ca        1 EKO     -0.109000
     15 CD5         0.1140   -2.8970    0.5310 cd        1 EKO     -0.238600
     16 CE1         3.6710    0.7810    2.9400 ca        1 EKO     -0.122000
     17 CE2         1.5230    0.0180    3.7750 ca        1 EKO     -0.128000
     18 NE2         0.1450   -4.1650    1.1060 na        1 EKO     -0.322900
     19 CE3        -4.0280    0.7970    0.2880 ca        1 EKO     -0.126000
     20 CE4        -4.2160    0.5660   -2.1230 ca        1 EKO     -0.126000
     21 CE5         1.4630   -4.6270    0.9980 cd        1 EKO      0.382400
     22 CG2        -2.0340    0.5690   -1.0690 ca        1 EKO     -0.089300
     23 CG4         1.4280   -2.6280    0.0890 cc        1 EKO      0.295600
     24 CZ2        -4.8120    0.7200   -0.8670 ca        1 EKO      0.018400
     25 HB          1.8360    0.7390   -0.6780 h1        1 EKO      0.058700
     26 HB2        -0.1480    1.5600   -1.3690 h1        1 EKO      0.043200
     27 HB2A       -0.2480   -0.1280   -2.0760 h1        1 EKO      0.043200
     28 HB3         3.0180   -1.4060   -0.6670 hc        1 EKO      0.066200
     29 HB3A        1.5160   -1.4770   -1.6850 hc        1 EKO      0.066200
     30 HD2         0.0710   -0.5480    2.2710 ha        1 EKO      0.155000
     31 HD3        -2.0110    0.7780    1.0850 ha        1 EKO      0.145000
     32 HD4        -2.3580    0.3620   -3.2050 ha        1 EKO      0.145000
     33 HD5        -0.7820   -2.2800    0.4800 h4        1 EKO      0.191000
     34 HE1         4.6910    1.1530    3.1260 ha        1 EKO      0.162000
     35 HE2         0.8530   -0.2100    4.6170 ha        1 EKO      0.149000
     36 HNE2       -0.6160   -4.6400    1.5100 hn        1 EKO      0.299700
     37 HE3        -4.4990    0.9180    1.2750 ha        1 EKO      0.148000
     38 HE4        -4.8360    0.5060   -3.0290 ha        1 EKO      0.148000
     39 HE5         1.7810   -5.6050    1.3700 h5        1 EKO      0.060100
@<TRIPOS>BOND
     1    1    5 1   
     2    1    8 1   
     3    2   10 1   
     4    3    7 1   
     5    4   24 1   
     6    5    6 1   
     7    5    9 1   
     8    5   25 1   
     9    6   10 ar  
    10    6   12 ar  
    11    7   16 ar  
    12    7   17 ar  
    13    8   22 1   
    14    8   26 1   
    15    8   27 1   
    16    9   23 1   
    17    9   28 1   
    18    9   29 1   
    19   10   16 ar  
    20   11   21 2   
    21   11   23 1   
    22   12   17 ar  
    23   12   30 1   
    24   13   19 ar  
    25   13   22 ar  
    26   13   31 1   
    27   14   20 ar  
    28   14   22 ar  
    29   14   32 1   
    30   15   18 1   
    31   15   23 2   
    32   15   33 1   
    33   16   34 1   
    34   17   35 1   
    35   18   21 1   
    36   18   36 1   
    37   19   24 ar  
    38   19   37 1   
    39   20   24 ar  
    40   20   38 1   
    41   21   39 1   
@<TRIPOS>SUBSTRUCTURE
     1 EKO         1 TEMP              0 ****  ****    0 ROOT
