@<TRIPOS>MOLECULE
EKO
   39    41     1     0     0
SMALL
bcc


@<TRIPOS>ATOM
      1 O           0.5460   -0.3190    0.7470 os        1 EKO     -0.428600
      2 CL1        -3.3890   -0.1100    2.7470 cl        1 EKO     -0.090400
      3 CL2        -4.7300    2.9790   -1.3810 cl        1 EKO     -0.087400
      4 CL3         6.8260    1.0600   -0.7320 cl        1 EKO     -0.093400
      5 CB         -0.7500   -0.6530    1.2690 c3        1 EKO      0.189400
      6 CG         -1.7520    0.2520    0.6120 ca        1 EKO     -0.070300
      7 CZ         -3.6060    1.9510   -0.6290 ca        1 EKO      0.026400
      8 CB2         1.5920   -0.5140    1.7010 c3        1 EKO      0.174700
      9 CB3        -1.0590   -2.1360    1.0470 c3        1 EKO     -0.111700
     10 CD1        -2.9790    0.5440    1.2290 ca        1 EKO      0.031400
     11 ND1        -2.0420   -3.3990   -0.9230 nc        1 EKO     -0.660000
     12 CD2        -1.4740    0.8290   -0.6330 ca        1 EKO     -0.084000
     13 CD3         2.9360    0.8420    0.0560 ca        1 EKO     -0.109000
     14 CD4         4.0700   -0.7280    1.5060 ca        1 EKO     -0.109000
     15 CD5        -0.0750   -2.2830   -1.3380 cd        1 EKO     -0.238600
     16 CE1        -3.9090    1.3890    0.6120 ca        1 EKO     -0.122000
     17 CE2        -2.3870    1.6740   -1.2560 ca        1 EKO     -0.128000
     18 NE2        -0.4710   -2.9400   -2.5000 na        1 EKO     -0.322900
     19 CE3         4.1560    1.2130   -0.5050 ca        1 EKO     -0.126000
     20 CE4         5.2940   -0.3600    0.9540 ca        1 EKO     -0.126000
     21 CE5        -1.6680   -3.6050   -2.2010 cd        1 EKO      0.382400
     22 CG2         2.8850   -0.1270    1.0630 ca        1 EKO     -0.089300
     23 CG4        -1.0560   -2.5710   -0.3640 cc        1 EKO      0.295600
     24 CZ2         5.3340    0.6110   -0.0530 ca        1 EKO      0.018400
     25 HB         -0.7620   -0.4600    2.3840 h1        1 EKO      0.058700
     26 HB2         1.4030    0.1350    2.6010 h1        1 EKO      0.043200
     27 HB2A        1.6100   -1.5910    2.0210 h1        1 EKO      0.043200
     28 HB3        -0.2860   -2.7370    1.6010 hc        1 EKO      0.066200
     29 HB3A       -2.0580   -2.3490    1.5180 hc        1 EKO      0.066200
     30 HD2        -0.5110    0.6010   -1.1200 ha        1 EKO      0.155000
     31 HD3         2.0000    1.3070   -0.2940 ha        1 EKO      0.145000
     32 HD4         4.0370   -1.4940    2.2940 ha        1 EKO      0.145000
     33 HD5         0.8210   -1.6670   -1.2700 h4        1 EKO      0.191000
     34 HE1        -4.8710    1.6060    1.1030 ha        1 EKO      0.162000
     35 HE2        -2.1500    2.1180   -2.2350 ha        1 EKO      0.149000
     36 HNE2        0.0030   -2.9360   -3.3620 hn        1 EKO      0.299700
     37 HE3         4.1890    1.9760   -1.2970 ha        1 EKO      0.148000
     38 HE4         6.2230   -0.8330    1.3070 ha        1 EKO      0.148000
     39 HE5        -2.2100   -4.2090   -2.9360 h5        1 EKO      0.060100
@<TRIPOS>BOND
     1    1    5 1   
     2    1    8 1   
     3    2   10 1   
     4    3    7 1   
     5    4   24 1   
     6    5    6 1   
     7    5    9 1   
     8    5   25 1   
     9    6   10 ar  
    10    6   12 ar  
    11    7   16 ar  
    12    7   17 ar  
    13    8   22 1   
    14    8   26 1   
    15    8   27 1   
    16    9   23 1   
    17    9   28 1   
    18    9   29 1   
    19   10   16 ar  
    20   11   21 2   
    21   11   23 1   
    22   12   17 ar  
    23   12   30 1   
    24   13   19 ar  
    25   13   22 ar  
    26   13   31 1   
    27   14   20 ar  
    28   14   22 ar  
    29   14   32 1   
    30   15   18 1   
    31   15   23 2   
    32   15   33 1   
    33   16   34 1   
    34   17   35 1   
    35   18   21 1   
    36   18   36 1   
    37   19   24 ar  
    38   19   37 1   
    39   20   24 ar  
    40   20   38 1   
    41   21   39 1   
@<TRIPOS>SUBSTRUCTURE
     1 EKO         1 TEMP              0 ****  ****    0 ROOT
