@<TRIPOS>MOLECULE
EKO
   39    35     1     0     0
SMALL
bcc


@<TRIPOS>ATOM
      1 O          -0.8870   -0.2370    0.2580 os        1 EKO     -0.416600
      2 CL1        -0.0570   -2.8750    2.7730 cl        1 EKO     -0.080400
      3 CL2         2.7330   -0.1230    5.9670 cl        1 EKO     -0.086400
      4 CL3        -5.8200    3.0420   -3.3430 cl        1 EKO     -0.110900
      5 CB          0.5350   -0.2640    0.3800 c3        1 EKO      0.195400
      6 CG          0.9200   -0.2040    1.8510 ca        1 EKO     -0.073300
      7 CZ          1.7840   -0.1680    4.4970 ca        1 EKO      0.027400
      8 CB2        -1.3690    0.6020   -0.8240 c3        1 EKO      0.137500
      9 CB3         1.0680   -1.5330   -0.2260 c3        1 EKO     -0.026200
     10 CD1         0.6710   -1.2880    2.6750 ca        1 EKO      0.051400
     11 ND1         3.4310   -1.4980   -0.4910 n1        1 EKO     -0.957500
     12 CD2         1.5990    0.8980    2.3440 ca        1 EKO     -0.102000
     13 CD3        -3.4570    0.0970   -1.8330 c1        1 EKO     -0.068500
     14 CD4        -3.2650    2.0560   -0.4510 c1        1 EKO     -0.053500
     15 CD5         2.5290   -1.1420   -2.4520 c1        1 EKO      0.122500
     16 CE1         1.1060   -1.2690    4.0060 ca        1 EKO     -0.130000
     17 CE2         2.0330    0.9160    3.6740 ca        1 EKO     -0.128000
     18 NE2         3.8370   -1.3930   -2.6450 ne        1 EKO     -0.478400
     19 CE3        -4.3440    0.7740   -2.6680 c1        1 EKO     -0.068500
     20 CE4        -4.1510    2.7320   -1.2870 c1        1 EKO     -0.053500
     21 CE5         4.4020   -1.6140   -1.4390 cg        1 EKO      0.276800
     22 CG2        -2.9190    0.7400   -0.7260 c1        1 EKO     -0.050100
     23 CG4         2.2800   -1.2090   -1.1090 ce        1 EKO      0.291400
     24 CZ2        -4.6900    2.0890   -2.3940 c1        1 EKO      0.026900
     25 HB          0.9170    0.5060   -0.0880 h1        1 EKO      0.067700
     26 HB2        -1.1330    0.1970   -1.6790 h1        1 EKO      0.045200
     27 HB2A       -0.9590    1.4850   -0.7580 h1        1 EKO      0.045200
     28 HB3         0.3700   -1.9530   -0.7700 hc        1 EKO      0.072200
     29 HB3A        1.3430   -2.1540    0.4960 hc        1 EKO      0.072200
     30 HD2         1.7740    1.6580    1.7670 ha        1 EKO      0.147000
     31 HD3        -3.2140   -0.8300   -2.0260 ha        1 EKO      0.076500
     32 HD4        -2.8870    2.5080    0.3250 ha        1 EKO      0.097000
     33 HD5         1.8750   -0.9480   -3.1450 DU        1 EKO      0.211333
     34 HE1         0.9410   -2.0380    4.5840 ha        1 EKO      0.161000
     35 HE2         2.5130    1.6940    4.0220 ha        1 EKO      0.152000
     36 HNE2        4.2650   -1.4110   -3.4470 DU        1 EKO      0.211333
     37 HE3        -4.7220    0.3230   -3.4450 ha        1 EKO      0.087500
     38 HE4        -4.3940    3.6540   -1.0950 ha        1 EKO      0.097000
     39 HE5         5.3380   -1.8200   -1.2760 DU        1 EKO      0.211333
@<TRIPOS>BOND
     1    1    5 1   
     2    1    8 1   
     3    2   10 1   
     4    3    7 1   
     5    4   24 1   
     6    5    6 1   
     7    5    9 1   
     8    5   25 1   
     9    6   10 ar  
    10    6   12 ar  
    11    7   16 ar  
    12    7   17 ar  
    13    8   22 1   
    14    8   26 1   
    15    8   27 1   
    16    9   23 1   
    17    9   28 1   
    18    9   29 1   
    19   10   16 ar  
    20   11   21 3   
    21   11   23 1   
    22   12   17 ar  
    23   12   30 1   
    24   13   22 3   
    25   13   31 1   
    26   14   20 3   
    27   14   32 1   
    28   15   18 2   
    29   15   23 2   
    30   16   34 1   
    31   17   35 1   
    32   18   21 1   
    33   19   24 3   
    34   19   37 1   
    35   20   38 1   
@<TRIPOS>SUBSTRUCTURE
     1 EKO         1 TEMP              0 ****  ****    0 ROOT
