@<TRIPOS>MOLECULE
EKO
   39    41     1     0     0
SMALL
bcc


@<TRIPOS>ATOM
      1 O           0.0010   -0.0220   -0.0080 os        1 EKO     -0.428600
      2 CL1         4.2890    0.9730    0.3760 cl        1 EKO     -0.090400
      3 CL2         3.3190    0.7890    5.6120 cl        1 EKO     -0.087400
      4 CL3        -6.4990    0.7780   -0.8130 cl        1 EKO     -0.093400
      5 CB          1.4350   -0.0960   -0.0210 c3        1 EKO      0.189400
      6 CG          1.9160    0.1260    1.3850 ca        1 EKO     -0.070300
      7 CZ          2.7880    0.5400    4.0170 ca        1 EKO      0.026400
      8 CB2        -0.5370    0.5010   -1.2240 c3        1 EKO      0.174700
      9 CB3         1.9050   -1.4330   -0.6020 c3        1 EKO     -0.111700
     10 CD1         3.2070    0.6120    1.6420 ca        1 EKO      0.031400
     11 ND1         2.2630   -3.7170    0.4450 nc        1 EKO     -0.660000
     12 CD2         1.0730   -0.1430    2.4700 ca        1 EKO     -0.084000
     13 CD3        -2.6410    0.7070    0.1460 ca        1 EKO     -0.109000
     14 CD4        -2.8080    0.4540   -2.2530 ca        1 EKO     -0.109000
     15 CD5         0.1180   -2.8960    0.5590 cd        1 EKO     -0.238600
     16 CE1         3.6490    0.8170    2.9530 ca        1 EKO     -0.122000
     17 CE2         1.4970    0.0600    3.7800 ca        1 EKO     -0.128000
     18 NE2         0.1470   -4.1560    1.1490 na        1 EKO     -0.322900
     19 CE3        -4.0300    0.7780    0.2400 ca        1 EKO     -0.126000
     20 CE4        -4.1960    0.5280   -2.1700 ca        1 EKO     -0.126000
     21 CE5         1.4670   -4.6170    1.0570 cd        1 EKO      0.382400
     22 CG2        -2.0240    0.5460   -1.0980 ca        1 EKO     -0.089300
     23 CG4         1.4350   -2.6290    0.1250 cc        1 EKO      0.295600
     24 CZ2        -4.8040    0.6900   -0.9200 ca        1 EKO      0.018400
     25 HB          1.8430    0.7300   -0.6780 h1        1 EKO      0.058700
     26 HB2        -0.1380    1.5400   -1.3920 h1        1 EKO      0.043200
     27 HB2A       -0.2270   -0.1540   -2.0820 h1        1 EKO      0.043200
     28 HB3         1.5350   -1.4980   -1.6620 hc        1 EKO      0.066200
     29 HB3A        3.0290   -1.4120   -0.6340 hc        1 EKO      0.066200
     30 HD2         0.0570   -0.5260    2.2720 ha        1 EKO      0.155000
     31 HD3        -2.0200    0.7730    1.0540 ha        1 EKO      0.145000
     32 HD4        -2.3290    0.3220   -3.2350 ha        1 EKO      0.145000
     33 HD5        -0.7790   -2.2810    0.4940 h4        1 EKO      0.191000
     34 HE1         4.6670    1.1930    3.1420 ha        1 EKO      0.162000
     35 HE2         0.8210   -0.1590    4.6200 ha        1 EKO      0.149000
     36 HNE2       -0.6160   -4.6280    1.5530 hn        1 EKO      0.299700
     37 HE3        -4.5100    0.9060    1.2220 ha        1 EKO      0.148000
     38 HE4        -4.8090    0.4580   -3.0820 ha        1 EKO      0.148000
     39 HE5         1.7840   -5.5900    1.4430 h5        1 EKO      0.060100
@<TRIPOS>BOND
     1    1    5 1   
     2    1    8 1   
     3    2   10 1   
     4    3    7 1   
     5    4   24 1   
     6    5    6 1   
     7    5    9 1   
     8    5   25 1   
     9    6   10 ar  
    10    6   12 ar  
    11    7   16 ar  
    12    7   17 ar  
    13    8   22 1   
    14    8   26 1   
    15    8   27 1   
    16    9   23 1   
    17    9   28 1   
    18    9   29 1   
    19   10   16 ar  
    20   11   21 2   
    21   11   23 1   
    22   12   17 ar  
    23   12   30 1   
    24   13   19 ar  
    25   13   22 ar  
    26   13   31 1   
    27   14   20 ar  
    28   14   22 ar  
    29   14   32 1   
    30   15   18 1   
    31   15   23 2   
    32   15   33 1   
    33   16   34 1   
    34   17   35 1   
    35   18   21 1   
    36   18   36 1   
    37   19   24 ar  
    38   19   37 1   
    39   20   24 ar  
    40   20   38 1   
    41   21   39 1   
@<TRIPOS>SUBSTRUCTURE
     1 EKO         1 TEMP              0 ****  ****    0 ROOT
