@<TRIPOS>MOLECULE
EKZ
   26    26     1     0     0
SMALL
bcc


@<TRIPOS>ATOM
      1 CAA         0.0220   -0.0900   -0.0440 c3        1 EKZ     -0.086767
      2 CAL         1.5480   -0.0450   -0.0060 c3        1 EKZ     -0.007700
      3 CAB         2.0150   -0.0320    1.4470 c3        1 EKZ     -0.086767
      4 CAC         2.0780   -1.3120   -0.6650 c3        1 EKZ     -0.086767
      5 CAK         2.0270    1.2060   -0.6960 ca        1 EKZ     -0.059300
      6 CAH         1.6150    2.4490   -0.1950 ca        1 EKZ     -0.134000
      7 CAJ         2.0390    3.6330   -0.8060 ca        1 EKZ      0.111100
      8 OAE         1.5980    4.8170   -0.2640 oh        1 EKZ     -0.496100
      9 CAI         2.8850    3.5760   -1.9350 ca        1 EKZ      0.036100
     10 OAD         3.2590    4.7870   -2.4820 oh        1 EKZ     -0.518100
     11 CAF         3.2950    2.3400   -2.4340 ca        1 EKZ     -0.170000
     12 CAG         2.8660    1.1660   -1.8150 ca        1 EKZ     -0.129000
     13 H1         -0.3430   -1.0160    0.4630 hc        1 EKZ      0.037367
     14 H2         -0.4120    0.7950    0.4790 hc        1 EKZ      0.037367
     15 H3         -0.3380   -0.0940   -1.1000 hc        1 EKZ      0.037367
     16 H4          1.6040    0.8540    1.9860 hc        1 EKZ      0.037367
     17 H5          1.6670   -0.9570    1.9660 hc        1 EKZ      0.037367
     18 H6          3.1300    0.0060    1.4940 hc        1 EKZ      0.037367
     19 H7          3.1930   -1.3350   -0.6360 hc        1 EKZ      0.037367
     20 H8          1.6940   -2.2080   -0.1180 hc        1 EKZ      0.037367
     21 H9          1.7370   -1.3770   -1.7260 hc        1 EKZ      0.037367
     22 H10         0.9560    2.5170    0.6840 ha        1 EKZ      0.153000
     23 H11         1.9700    5.5430   -0.7900 ho        1 EKZ      0.436000
     24 H12         3.8320    4.6030   -3.2400 ho        1 EKZ      0.428000
     25 H13         3.9540    2.2920   -3.3120 ha        1 EKZ      0.133000
     26 H14         3.2050    0.2060   -2.2310 ha        1 EKZ      0.138000
@<TRIPOS>BOND
     1    1    2 1   
     2    1   13 1   
     3    1   14 1   
     4    1   15 1   
     5    2    3 1   
     6    2    4 1   
     7    2    5 1   
     8    3   16 1   
     9    3   17 1   
    10    3   18 1   
    11    4   19 1   
    12    4   20 1   
    13    4   21 1   
    14    5    6 ar  
    15    5   12 ar  
    16    6    7 ar  
    17    6   22 1   
    18    7    8 1   
    19    7    9 ar  
    20    8   23 1   
    21    9   10 1   
    22    9   11 ar  
    23   10   24 1   
    24   11   12 ar  
    25   11   25 1   
    26   12   26 1   
@<TRIPOS>SUBSTRUCTURE
     1 EKZ         1 TEMP              0 ****  ****    0 ROOT
