@<TRIPOS>MOLECULE
EKZ
   26    26     1     0     0
SMALL
bcc


@<TRIPOS>ATOM
      1 CAA         0.0170   -0.0860   -0.0480 c3        1 EKZ     -0.086767
      2 CAL         1.5430   -0.0460   -0.0110 c3        1 EKZ     -0.007700
      3 CAB         2.0120   -0.0420    1.4420 c3        1 EKZ     -0.086767
      4 CAC         2.0680   -1.3120   -0.6770 c3        1 EKZ     -0.086767
      5 CAK         2.0270    1.2060   -0.6960 ca        1 EKZ     -0.059300
      6 CAH         1.6210    2.4490   -0.1890 ca        1 EKZ     -0.134000
      7 CAJ         2.0480    3.6340   -0.7950 ca        1 EKZ      0.111100
      8 OAE         1.6120    4.8170   -0.2470 oh        1 EKZ     -0.496100
      9 CAI         2.8930    3.5790   -1.9250 ca        1 EKZ      0.036100
     10 OAD         3.2710    4.7910   -2.4670 oh        1 EKZ     -0.518100
     11 CAF         3.2970    2.3430   -2.4300 ca        1 EKZ     -0.170000
     12 CAG         2.8650    1.1680   -1.8160 ca        1 EKZ     -0.129000
     13 H1         -0.3510   -1.0120    0.4550 hc        1 EKZ      0.037367
     14 H2         -0.4130    0.8000    0.4780 hc        1 EKZ      0.037367
     15 H3         -0.3440   -0.0840   -1.1040 hc        1 EKZ      0.037367
     16 H4          1.6040    0.8440    1.9850 hc        1 EKZ      0.037367
     17 H5          1.6600   -0.9680    1.9570 hc        1 EKZ      0.037367
     18 H6          3.1260   -0.0070    1.4880 hc        1 EKZ      0.037367
     19 H7          3.1830   -1.3390   -0.6490 hc        1 EKZ      0.037367
     20 H8          1.6810   -2.2090   -0.1330 hc        1 EKZ      0.037367
     21 H9          1.7260   -1.3710   -1.7370 hc        1 EKZ      0.037367
     22 H10         0.9630    2.5150    0.6900 ha        1 EKZ      0.153000
     23 H11         1.9870    5.5430   -0.7700 ho        1 EKZ      0.436000
     24 H12         3.8420    4.6070   -3.2260 ho        1 EKZ      0.428000
     25 H13         3.9550    2.2970   -3.3090 ha        1 EKZ      0.133000
     26 H14         3.2000    0.2090   -2.2370 ha        1 EKZ      0.138000
@<TRIPOS>BOND
     1    1    2 1   
     2    1   13 1   
     3    1   14 1   
     4    1   15 1   
     5    2    3 1   
     6    2    4 1   
     7    2    5 1   
     8    3   16 1   
     9    3   17 1   
    10    3   18 1   
    11    4   19 1   
    12    4   20 1   
    13    4   21 1   
    14    5    6 ar  
    15    5   12 ar  
    16    6    7 ar  
    17    6   22 1   
    18    7    8 1   
    19    7    9 ar  
    20    8   23 1   
    21    9   10 1   
    22    9   11 ar  
    23   10   24 1   
    24   11   12 ar  
    25   11   25 1   
    26   12   26 1   
@<TRIPOS>SUBSTRUCTURE
     1 EKZ         1 TEMP              0 ****  ****    0 ROOT
