@<TRIPOS>MOLECULE
EL
   34    26     1     0     0
SMALL
bcc


@<TRIPOS>ATOM
      1 C1          0.4820   -0.0790   -4.4100 c1        1 EL      -0.103750
      2 C2          1.8710   -0.0790   -4.4100 c1        1 EL      -0.103750
      3 C3          2.5650   -0.0790   -3.2090 c1        1 EL      -0.103750
      4 C4          1.8630   -0.0790   -1.9920 c1        1 EL      -0.027500
      5 C5          0.4900   -0.0790   -1.9920 c1        1 EL      -0.027500
      6 C6         -0.2120   -0.0790   -3.2080 c1        1 EL      -0.103750
      7 N7          2.2910   -0.0790   -0.6740 n1        1 EL      -0.211000
      8 C8          1.1710   -0.0790    0.1420 c1        1 EL       0.142000
      9 C9          0.0590   -0.0790   -0.6620 c1        1 EL      -0.052000
     10 C10         1.0270   -0.0790    1.5390 c1        1 EL      -0.133000
     11 C11         2.2750    0.0520    2.3860 c2        1 EL      -0.180000
     12 C12        -0.2640   -0.0790    2.1170 c2        1 EL       0.058000
     13 C13        -1.3670   -0.0790    1.3180 c1        1 EL      -0.130000
     14 C14        -1.2220   -0.0790   -0.0880 c1        1 EL       0.040000
     15 C15        -2.4370    0.3700   -0.8720 c3        1 EL      -0.207000
     16 C16        -0.4080   -0.0790    3.4950 c1        1 EL      -0.118000
     17 C17        -1.6790   -0.0790    4.0610 c1        1 EL      -0.059000
     18 N18        -2.7900   -0.0790    3.2550 n2        1 EL      -0.120000
     19 C19        -2.6510   -0.0790    1.8940 c1        1 EL       0.073000
     20 H1         -0.0060   -0.0790   -5.2560 ha        1 EL       0.153000
     21 H2          2.3590   -0.0790   -5.2560 ha        1 EL       0.153000
     22 H3          3.5410   -0.0790   -3.2090 ha        1 EL       0.153000
     23 H6         -1.1880   -0.0790   -3.2090 ha        1 EL       0.153000
     24 HN7         3.1590   -0.0740   -0.3930 DU        1 EL       0.275000
     25 H111        2.2090    0.8520    2.9410 ha        1 EL       0.097333
     26 H112        2.3640   -0.7340    2.9580 ha        1 EL       0.097333
     27 H113        3.0560    0.1220    1.8050 ha        1 EL       0.097333
     28 H151       -2.9160   -0.4120   -1.2070 hc        1 EL       0.108000
     29 H152       -3.0260    0.8870   -0.2900 hc        1 EL       0.108000
     30 H153       -2.1530    0.9240   -1.6230 hc        1 EL       0.108000
     31 H16         0.3810   -0.0790    4.0680 ha        1 EL       0.186000
     32 H17        -1.7800   -0.0790    5.0320 ha        1 EL       0.199000
     33 H18        -3.6230   -0.0790    3.6280 hn        1 EL       0.284000
     34 H19        -3.4420   -0.0790    1.3230 ha        1 EL       0.196000
@<TRIPOS>BOND
     1    1    6 1   
     2    1   20 1   
     3    2    3 1   
     4    2   21 1   
     5    3   22 1   
     6    4    5 1   
     7    6   23 1   
     8    7    8 1   
     9    8   10 1   
    10    9   14 1   
    11   10   12 1   
    12   11   25 1   
    13   11   26 1   
    14   11   27 1   
    15   12   13 1   
    16   12   16 1   
    17   13   19 1   
    18   14   15 1   
    19   15   28 1   
    20   15   29 1   
    21   15   30 1   
    22   16   31 1   
    23   17   18 1   
    24   17   32 1   
    25   18   33 1   
    26   19   34 1   
@<TRIPOS>SUBSTRUCTURE
     1 EL          1 TEMP              0 ****  ****    0 ROOT
