@<TRIPOS>MOLECULE
EL
   34    37     1     0     0
SMALL
bcc


@<TRIPOS>ATOM
      1 C1          4.2600   -1.3090    0.1060 ca        1 EL      -0.136000
      2 C2          4.7620   -0.0050    0.0840 ca        1 EL      -0.077000
      3 C3          3.9120    1.1010    0.0430 ca        1 EL      -0.135000
      4 C4          2.5390    0.8570    0.0150 ca        1 EL      -0.009200
      5 C5          2.0070   -0.4860    0.0170 cp        1 EL      -0.091000
      6 C6          2.8870   -1.5600    0.0780 ca        1 EL      -0.067000
      7 N7          1.4720    1.7810   -0.0100 na        1 EL      -0.215500
      8 C8          0.2770    1.0890   -0.0180 ca        1 EL       0.142000
      9 C9          0.5550   -0.3590   -0.0190 cp        1 EL      -0.052000
     10 C10        -1.0340    1.5850   -0.0310 ca        1 EL      -0.140300
     11 C11        -1.3270    3.0360   -0.0520 c3        1 EL      -0.054800
     12 C12        -2.0780    0.6450   -0.0180 ca        1 EL       0.058000
     13 C13        -1.8160   -0.7710   -0.0210 ca        1 EL      -0.130000
     14 C14        -0.4720   -1.2690   -0.0660 ca        1 EL       0.032700
     15 C15        -0.2070   -2.7220   -0.1710 c3        1 EL      -0.081800
     16 C16        -3.4500    1.0590    0.0080 cc        1 EL      -0.118000
     17 C17        -4.4670    0.1400    0.0510 cd        1 EL      -0.083300
     18 N18        -4.1910   -1.2180    0.0730 na        1 EL      -0.121100
     19 C19        -2.9140   -1.6570    0.0380 cc        1 EL       0.048700
     20 H1          4.9620   -2.1580    0.1490 ha        1 EL       0.154000
     21 H2          5.8530    0.1570    0.1040 ha        1 EL       0.157000
     22 H3          4.3160    2.1230    0.0350 ha        1 EL       0.156000
     23 H6          2.5210   -2.5960    0.1170 ha        1 EL       0.145000
     24 HN7         1.5750    2.7640   -0.0090 hn        1 EL       0.324700
     25 H111       -1.9600    3.2930   -0.9400 hc        1 EL       0.058033
     26 H112       -1.8810    3.3340    0.8750 hc        1 EL       0.058033
     27 H113       -0.4030    3.6600   -0.1090 hc        1 EL       0.058033
     28 H151       -0.1130   -3.1740    0.8500 hc        1 EL       0.068700
     29 H152       -1.0120   -3.2570   -0.7320 hc        1 EL       0.068700
     30 H153        0.7500   -2.9040   -0.7250 hc        1 EL       0.068700
     31 H16        -3.6940    2.1350   -0.0030 ha        1 EL       0.186000
     32 H17        -5.5370    0.4220    0.0740 h4        1 EL       0.199000
     33 H18        -4.9510   -1.8710    0.1190 hn        1 EL       0.333700
     34 H19        -2.7670   -2.7580    0.0720 h4        1 EL       0.196000
@<TRIPOS>BOND
     1    1    2 ar  
     2    1    6 ar  
     3    1   20 1   
     4    2    3 ar  
     5    2   21 1   
     6    3    4 ar  
     7    3   22 1   
     8    4    5 ar  
     9    4    7 1   
    10    5    6 ar  
    11    5    9 1   
    12    6   23 1   
    13    7    8 2   
    14    7   24 1   
    15    8    9 ar  
    16    8   10 ar  
    17    9   14 ar  
    18   10   11 1   
    19   10   12 ar  
    20   11   25 1   
    21   11   26 1   
    22   11   27 1   
    23   12   13 ar  
    24   12   16 1   
    25   13   14 ar  
    26   13   19 2   
    27   14   15 1   
    28   15   28 1   
    29   15   29 1   
    30   15   30 1   
    31   16   17 2   
    32   16   31 1   
    33   17   18 1   
    34   17   32 1   
    35   18   19 1   
    36   18   33 1   
    37   19   34 1   
@<TRIPOS>SUBSTRUCTURE
     1 EL          1 TEMP              0 ****  ****    0 ROOT
