@<TRIPOS>MOLECULE
EL
   34    37     1     0     0
SMALL
bcc


@<TRIPOS>ATOM
      1 C1          0.0310    0.0710   -0.0250 ca        1 EL      -0.136000
      2 C2          1.4280    0.0360   -0.0030 ca        1 EL      -0.077000
      3 C3          2.1350   -0.0030    1.2000 ca        1 EL      -0.135000
      4 C4          1.3950   -0.0150    2.3820 ca        1 EL      -0.009200
      5 C5         -0.0490    0.0020    2.3730 cp        1 EL      -0.091000
      6 C6         -0.7150    0.0600    1.1550 ca        1 EL      -0.067000
      7 N7          1.8530   -0.0340    3.7180 na        1 EL      -0.215500
      8 C8          0.7640   -0.0250    4.5670 ca        1 EL       0.142000
      9 C9         -0.4740   -0.0210    3.7670 cp        1 EL      -0.052000
     10 C10         0.7330   -0.0280    5.9680 ca        1 EL      -0.140300
     11 C11         1.9700   -0.0540    6.7830 c3        1 EL      -0.054800
     12 C12        -0.5290    0.0020    6.5850 ca        1 EL       0.058000
     13 C13        -1.7440    0.0040    5.8120 ca        1 EL      -0.130000
     14 C14        -1.7040   -0.0510    4.3800 ca        1 EL       0.032700
     15 C15        -2.9530   -0.1500    3.5900 c3        1 EL      -0.081800
     16 C16        -0.6570    0.0390    8.0110 cc        1 EL      -0.118000
     17 C17        -1.8900    0.0990    8.6110 cd        1 EL      -0.083300
     18 N18        -3.0450    0.1260    7.8460 na        1 EL      -0.121100
     19 C19        -2.9760    0.0810    6.4990 cc        1 EL       0.048700
     20 H1         -0.4920    0.1120   -0.9940 ha        1 EL       0.154000
     21 H2          1.9870    0.0440   -0.9530 ha        1 EL       0.157000
     22 H3          3.2340   -0.0210    1.2080 ha        1 EL       0.156000
     23 H6         -1.8120    0.1090    1.1060 ha        1 EL       0.145000
     24 HN7         2.8030   -0.0400    3.9900 hn        1 EL       0.324700
     25 H111        2.8930   -0.1240    6.1600 hc        1 EL       0.058033
     26 H112        1.9630   -0.9380    7.4720 hc        1 EL       0.058033
     27 H113        2.0470    0.8760    7.4020 hc        1 EL       0.058033
     28 H151       -2.7690   -0.7130    2.6400 hc        1 EL       0.068700
     29 H152       -3.3260    0.8730    3.3270 hc        1 EL       0.068700
     30 H153       -3.7560   -0.6980    4.1410 hc        1 EL       0.068700
     31 H16         0.2490    0.0240    8.6400 ha        1 EL       0.186000
     32 H17        -2.0290    0.1310    9.7080 h4        1 EL       0.199000
     33 H18        -3.9350    0.1840    8.3060 hn        1 EL       0.333700
     34 H19        -3.9410    0.1200    5.9500 h4        1 EL       0.196000
@<TRIPOS>BOND
     1    1    2 ar  
     2    1    6 ar  
     3    1   20 1   
     4    2    3 ar  
     5    2   21 1   
     6    3    4 ar  
     7    3   22 1   
     8    4    5 ar  
     9    4    7 1   
    10    5    6 ar  
    11    5    9 1   
    12    6   23 1   
    13    7    8 2   
    14    7   24 1   
    15    8    9 ar  
    16    8   10 ar  
    17    9   14 ar  
    18   10   11 1   
    19   10   12 ar  
    20   11   25 1   
    21   11   26 1   
    22   11   27 1   
    23   12   13 ar  
    24   12   16 1   
    25   13   14 ar  
    26   13   19 2   
    27   14   15 1   
    28   15   28 1   
    29   15   29 1   
    30   15   30 1   
    31   16   17 2   
    32   16   31 1   
    33   17   18 1   
    34   17   32 1   
    35   18   19 1   
    36   18   33 1   
    37   19   34 1   
@<TRIPOS>SUBSTRUCTURE
     1 EL          1 TEMP              0 ****  ****    0 ROOT
