@<TRIPOS>MOLECULE
EL1
   60    63     1     0     0
SMALL
bcc


@<TRIPOS>ATOM
      1 C01         0.6560   -1.1130    0.9770 c3        1 EL1      0.083100
      2 N05         1.4690    0.0000    0.4430 ny        1 EL1     -0.684800
      3 C07         2.2780    0.6750    1.5640 c         1 EL1      0.597700
      4 O08         1.6040    1.3110    2.3550 o         1 EL1     -0.395100
      5 C09         3.7120    0.4390    1.5000 ca        1 EL1     -0.266600
      6 C10         4.4340    0.6030    0.3020 ca        1 EL1     -0.062000
      7 C12         5.8050    0.4350    0.2790 ca        1 EL1     -0.162000
      8 C14         6.5080    0.1040    1.4600 cp        1 EL1      0.096000
      9 C15         5.8090   -0.0430    2.6590 ca        1 EL1     -0.214000
     10 C17         4.4130    0.1130    2.6880 ca        1 EL1      0.230100
     11 O18         3.6280   -0.0740    3.7900 os        1 EL1     -0.330900
     12 C19         4.2760   -0.3370    5.0530 c3        1 EL1      0.127100
     13 C21         3.1370   -0.6570    6.0300 c3        1 EL1     -0.096400
     14 C24         3.1620    0.4540    7.0910 c3        1 EL1      0.072000
     15 N27         4.2140    1.4020    6.7420 n         1 EL1     -0.456800
     16 C28         4.9720    0.9320    5.6030 c3        1 EL1      0.047000
     17 C31         4.0020    2.7700    6.9840 c         1 EL1      0.700700
     18 O32         2.9900    3.1310    7.6120 o         1 EL1     -0.562100
     19 C33         5.0310    3.7310    6.5670 cc        1 EL1     -0.192700
     20 C34         4.8380    5.1020    6.6790 cd        1 EL1     -0.076000
     21 C36         5.9820    5.8350    6.2500 cd        1 EL1     -0.125000
     22 C38         7.0010    4.9940    5.8350 cc        1 EL1     -0.073000
     23 Br          8.6430    5.5080    5.2090 br        1 EL1     -0.000100
     24 S40         6.5610    3.3850    5.9770 ss        1 EL1      0.069200
     25 C41         7.9610   -0.0510    1.4280 cp        1 EL1     -0.151000
     26 C42         8.7390    0.7510    2.2760 ca        1 EL1     -0.072000
     27 C44        10.1250    0.6950    2.2410 ca        1 EL1     -0.153000
     28 C46        10.7570   -0.1710    1.3450 ca        1 EL1     -0.057000
     29 C48        10.0120   -0.9940    0.5110 ca        1 EL1     -0.190000
     30 C50         8.5970   -0.9660    0.5450 ca        1 EL1      0.217600
     31 N51         7.8450   -1.8360   -0.2480 nu        1 EL1     -0.774500
     32 S53         8.3420   -2.9050   -1.4000 s6        1 EL1      1.467900
     33 C54         8.9450   -4.1990   -0.4960 c3        1 EL1     -0.383300
     34 O58         7.1620   -3.3100   -2.0550 o         1 EL1     -0.638300
     35 O59         9.3790   -2.3730   -2.1750 o         1 EL1     -0.638300
     36 H1         -0.0170   -0.7220    1.7890 hx        1 EL1      0.109700
     37 H2          0.0350   -1.5550    0.1520 hx        1 EL1      0.109700
     38 H3          1.3330   -1.9020    1.4010 hx        1 EL1      0.109700
     39 H4          0.8460    0.6970    0.0190 hn        1 EL1      0.455300
     40 H5          3.9170    0.9080   -0.6220 ha        1 EL1      0.137000
     41 H6          6.3660    0.5920   -0.6580 ha        1 EL1      0.176000
     42 H7          6.3620   -0.2710    3.5840 ha        1 EL1      0.171000
     43 H8          4.9900   -1.1900    4.9310 h1        1 EL1      0.076700
     44 H9          3.3050   -1.6570    6.4980 hc        1 EL1      0.075700
     45 H10         2.1530   -0.6750    5.4990 hc        1 EL1      0.075700
     46 H11         2.1630    0.9710    7.1580 h1        1 EL1      0.079200
     47 H12         3.4010    0.0280    8.1040 h1        1 EL1      0.079200
     48 H13         5.0520    1.7120    4.7930 h1        1 EL1      0.065700
     49 H14         6.0130    0.6660    5.9460 h1        1 EL1      0.065700
     50 H15         3.9210    5.5640    7.0610 ha        1 EL1      0.186000
     51 H16         6.0300    6.9280    6.2600 ha        1 EL1      0.179000
     52 H17         8.2340    1.4480    2.9640 ha        1 EL1      0.138000
     53 H18        10.7230    1.3370    2.9050 ha        1 EL1      0.154000
     54 H19        11.8570   -0.2040    1.2960 ha        1 EL1      0.156000
     55 H20        10.5420   -1.6470   -0.2040 ha        1 EL1      0.162000
     56 H21         6.8620   -1.7640   -0.0940 hn        1 EL1      0.444800
     57 H22         9.4350   -4.9530   -1.1690 h1        1 EL1      0.128033
     58 H23         9.7260   -3.9140    0.2520 h1        1 EL1      0.128033
     59 H24         8.1580   -4.7600    0.0650 h1        1 EL1      0.128033
     60 H052        2.1090   -0.3520   -0.2760 hn        1 EL1      0.455300
@<TRIPOS>BOND
     1    1    2 1   
     2    1   36 1   
     3    1   37 1   
     4    1   38 1   
     5    2    3 1   
     6    2   39 1   
     7    2   60 1   
     8    3    4 2   
     9    3    5 1   
    10    5    6 ar  
    11    5   10 ar  
    12    6    7 ar  
    13    6   40 1   
    14    7    8 ar  
    15    7   41 1   
    16    8    9 ar  
    17    8   25 1   
    18    9   10 ar  
    19    9   42 1   
    20   10   11 1   
    21   11   12 1   
    22   12   13 1   
    23   12   16 1   
    24   12   43 1   
    25   13   14 1   
    26   13   44 1   
    27   13   45 1   
    28   14   15 1   
    29   14   46 1   
    30   14   47 1   
    31   15   16 1   
    32   15   17 1   
    33   16   48 1   
    34   16   49 1   
    35   17   18 2   
    36   17   19 1   
    37   19   20 2   
    38   19   24 1   
    39   20   21 1   
    40   20   50 1   
    41   21   22 2   
    42   21   51 1   
    43   22   23 1   
    44   22   24 1   
    45   25   26 ar  
    46   25   30 ar  
    47   26   27 ar  
    48   26   52 1   
    49   27   28 ar  
    50   27   53 1   
    51   28   29 ar  
    52   28   54 1   
    53   29   30 ar  
    54   29   55 1   
    55   30   31 1   
    56   31   32 1   
    57   31   56 1   
    58   32   33 1   
    59   32   34 2   
    60   32   35 2   
    61   33   57 1   
    62   33   58 1   
    63   33   59 1   
@<TRIPOS>SUBSTRUCTURE
     1 EL1         1 TEMP              0 ****  ****    0 ROOT
