@<TRIPOS>MOLECULE
EL1
   60    63     1     0     0
SMALL
bcc


@<TRIPOS>ATOM
      1 C01         1.4270    2.7320    1.7260 c3        1 EL1      0.090100
      2 N05         2.7920    2.1980    1.9110 n4        1 EL1     -0.650800
      3 C07         3.4650    1.7630    0.6330 c         1 EL1      0.574700
      4 O08         2.8610    2.0300   -0.4020 o         1 EL1     -0.445100
      5 C09         4.7380    1.0520    0.7330 ca        1 EL1     -0.246600
      6 C10         5.1250    0.3150   -0.4070 ca        1 EL1     -0.015000
      7 C12         6.3210   -0.3840   -0.4350 ca        1 EL1     -0.171000
      8 C14         7.1850   -0.3700    0.6760 cp        1 EL1      0.094000
      9 C15         6.8270    0.3690    1.8110 ca        1 EL1     -0.210000
     10 C17         5.6180    1.0730    1.8410 ca        1 EL1      0.190100
     11 O18         5.1980    1.7830    2.9390 os        1 EL1     -0.389900
     12 C19         6.1780    2.2470    3.8890 c3        1 EL1      0.120100
     13 C21         6.3030    1.2580    5.0550 c3        1 EL1     -0.132400
     14 C24         5.5310    1.9010    6.2280 c3        1 EL1      0.048000
     15 N27         4.8220    3.0840    5.7230 n         1 EL1     -0.416800
     16 C28         5.5190    3.5080    4.5120 c3        1 EL1      0.040000
     17 C31         3.4020    2.9820    5.6380 c         1 EL1      0.726700
     18 O32         2.8140    3.1110    4.5390 o         1 EL1     -0.674100
     19 C33         2.6710    2.8010    6.8860 cc        1 EL1     -0.248700
     20 C34         1.3140    2.4690    6.9240 cd        1 EL1     -0.078000
     21 C36         0.8330    2.3920    8.2540 cd        1 EL1     -0.136000
     22 C38         1.8370    2.6790    9.1760 cc        1 EL1     -0.083000
     23 BR          1.6370    2.6980   10.9960 br        1 EL1      0.024900
     24 S40         3.2780    3.0210    8.4250 ss        1 EL1      0.204200
     25 C41         8.4600   -1.0840    0.6430 cp        1 EL1     -0.150000
     26 C42         9.6340   -0.3510    0.8760 ca        1 EL1     -0.074000
     27 C44        10.8820   -0.9530    0.7980 ca        1 EL1     -0.156000
     28 C46        10.9710   -2.3100    0.4800 ca        1 EL1     -0.058000
     29 C48         9.8270   -3.0640    0.2650 ca        1 EL1     -0.194000
     30 C50         8.5420   -2.4730    0.3570 ca        1 EL1      0.220600
     31 N51         7.3890   -3.2460    0.2000 nh        1 EL1     -0.772500
     32 S53         7.2490   -4.8650   -0.0800 s6        1 EL1      1.467900
     33 C54         7.6490   -5.5480    1.4150 c3        1 EL1     -0.381300
     34 O58         5.8820   -5.0850   -0.3340 o         1 EL1     -0.635300
     35 O59         8.1780   -5.3000   -1.0320 o         1 EL1     -0.635300
     36 H1          0.7590    1.9270    1.3190 hx        1 EL1      0.108367
     37 H2          1.4530    3.5860    0.9980 hx        1 EL1      0.108367
     38 H3          1.0530    3.0880    2.7270 hx        1 EL1      0.108367
     39 H4          3.3800    2.9160    2.3760 hn        1 EL1      0.475300
     40 H5          4.4600    0.3080   -1.2900 ha        1 EL1      0.175000
     41 H6          6.6120   -0.9330   -1.3470 ha        1 EL1      0.177000
     42 H7          7.4960    0.3830    2.6860 ha        1 EL1      0.165000
     43 H8          7.1460    2.4730    3.3800 h1        1 EL1      0.090700
     44 H9          5.8660    0.2670    4.7860 hc        1 EL1      0.078200
     45 H10         7.3750    1.1100    5.3300 hc        1 EL1      0.078200
     46 H11         6.2540    2.2560    7.0140 h1        1 EL1      0.077700
     47 H12         4.8260    1.1670    6.7000 h1        1 EL1      0.077700
     48 H13         6.3290    4.2260    4.8200 h1        1 EL1      0.088200
     49 H14         4.8330    4.0160    3.7850 h1        1 EL1      0.088200
     50 H15         0.6970    2.2980    6.0380 ha        1 EL1      0.166000
     51 H16        -0.2010    2.1420    8.5100 ha        1 EL1      0.182000
     52 H17         9.5560    0.7240    1.1050 ha        1 EL1      0.135000
     53 H18        11.7940   -0.3640    0.9730 ha        1 EL1      0.152000
     54 H19        11.9600   -2.7900    0.3930 ha        1 EL1      0.155000
     55 H20         9.9350   -4.1270   -0.0150 ha        1 EL1      0.166000
     56 H21         6.5430   -2.7190    0.2530 hn        1 EL1      0.449800
     57 H22         6.8960   -5.3450    2.2160 h1        1 EL1      0.125700
     58 H23         8.6400   -5.2230    1.8180 h1        1 EL1      0.125700
     59 H24         7.7100   -6.6660    1.3300 h1        1 EL1      0.125700
     60 H052        2.7710    1.4020    2.5620 hn        1 EL1      0.475300
@<TRIPOS>BOND
     1    1    2 1   
     2    1   36 1   
     3    1   37 1   
     4    1   38 1   
     5    2    3 1   
     6    2   39 1   
     7    2   60 1   
     8    3    4 2   
     9    3    5 1   
    10    5    6 ar  
    11    5   10 ar  
    12    6    7 ar  
    13    6   40 1   
    14    7    8 ar  
    15    7   41 1   
    16    8    9 ar  
    17    8   25 1   
    18    9   10 ar  
    19    9   42 1   
    20   10   11 1   
    21   11   12 1   
    22   12   13 1   
    23   12   16 1   
    24   12   43 1   
    25   13   14 1   
    26   13   44 1   
    27   13   45 1   
    28   14   15 1   
    29   14   46 1   
    30   14   47 1   
    31   15   16 1   
    32   15   17 1   
    33   16   48 1   
    34   16   49 1   
    35   17   18 2   
    36   17   19 1   
    37   19   20 2   
    38   19   24 1   
    39   20   21 1   
    40   20   50 1   
    41   21   22 2   
    42   21   51 1   
    43   22   23 1   
    44   22   24 1   
    45   25   26 ar  
    46   25   30 ar  
    47   26   27 ar  
    48   26   52 1   
    49   27   28 ar  
    50   27   53 1   
    51   28   29 ar  
    52   28   54 1   
    53   29   30 ar  
    54   29   55 1   
    55   30   31 1   
    56   31   32 1   
    57   31   56 1   
    58   32   33 1   
    59   32   34 2   
    60   32   35 2   
    61   33   57 1   
    62   33   58 1   
    63   33   59 1   
@<TRIPOS>SUBSTRUCTURE
     1 EL1         1 TEMP              0 ****  ****    0 ROOT
