@<TRIPOS>MOLECULE
EL3
   39    41     1     0     0
SMALL
bcc


@<TRIPOS>ATOM
      1 CAI         0.0230    0.0760   -0.0250 c3        1 EL3     -0.070400
      2 CAO         1.5610    0.0630   -0.0500 c3        1 EL3     -0.018800
      3 CAH         1.8970    1.4240   -0.6890 c3        1 EL3     -0.065400
      4 CAG         0.7470    2.3490   -0.2810 c3        1 EL3     -0.080400
      5 CAM        -0.2280    1.4860    0.5360 c3        1 EL3     -0.058700
      6 CAN         0.0790    1.4980    2.0500 c3        1 EL3     -0.001800
      7 CAC         0.1810    2.9360    2.5530 c3        1 EL3     -0.085100
      8 CAD        -1.0870    0.8300    2.7820 c3        1 EL3     -0.085100
      9 CAJ         1.3520    0.7390    2.3540 c2        1 EL3     -0.109400
     10 CAA         1.8000    0.7300    3.7670 c3        1 EL3     -0.054900
     11 CAK         2.0170    0.0730    1.3940 c2        1 EL3     -0.112400
     12 CAE         3.2130   -0.8010    1.5550 c3        1 EL3     -0.038200
     13 CAF         3.4230   -1.5000    0.2130 c3        1 EL3     -0.075400
     14 CAL         2.2090   -1.1750   -0.6690 c3        1 EL3     -0.049700
     15 CAB         2.5920   -1.0460   -2.1200 c3        1 EL3     -0.084100
     16 HAI        -0.3960   -0.0280   -1.0540 hc        1 EL3      0.048200
     17 HAIA       -0.3950   -0.7320    0.6170 hc        1 EL3      0.048200
     18 HAH         2.8810    1.8040   -0.3260 hc        1 EL3      0.045200
     19 HAHA        1.9450    1.3380   -1.8020 hc        1 EL3      0.045200
     20 HAG         1.1200    3.2290    0.2930 hc        1 EL3      0.042700
     21 HAGA        0.2240    2.7390   -1.1900 hc        1 EL3      0.042700
     22 HAM        -1.2840    1.8170    0.3750 hc        1 EL3      0.053700
     23 HAC        -0.0120    2.9790    3.6520 hc        1 EL3      0.035200
     24 HACA       -0.5750    3.5760    2.0390 hc        1 EL3      0.035200
     25 HACB        1.1990    3.3540    2.3650 hc        1 EL3      0.035200
     26 HAD        -2.0360    1.3750    2.5610 hc        1 EL3      0.035200
     27 HADA       -0.9140    0.8500    3.8850 hc        1 EL3      0.035200
     28 HADB       -1.2010   -0.2330    2.4630 hc        1 EL3      0.035200
     29 HAA         1.1260    0.0790    4.3790 hc        1 EL3      0.039700
     30 HAAA        2.8430    0.3370    3.8600 hc        1 EL3      0.039700
     31 HAAB        1.7760    1.7620    4.1980 hc        1 EL3      0.039700
     32 HAE         4.1130   -0.1960    1.8350 hc        1 EL3      0.049200
     33 HAEA        3.0440   -1.5490    2.3720 hc        1 EL3      0.049200
     34 HAF         4.3630   -1.1330   -0.2700 hc        1 EL3      0.041200
     35 HAFA        3.5220   -2.6050    0.3490 hc        1 EL3      0.041200
     36 HAL         1.4680   -2.0200   -0.5780 hc        1 EL3      0.048700
     37 HAB         3.3810   -0.2680   -2.2630 hc        1 EL3      0.034367
     38 HABA        1.7020   -0.7690   -2.7360 hc        1 EL3      0.034367
     39 HABB        2.9940   -2.0200   -2.4940 hc        1 EL3      0.034367
@<TRIPOS>BOND
     1    1    2 1   
     2    1    5 1   
     3    1   16 1   
     4    1   17 1   
     5    2    3 1   
     6    2   11 1   
     7    2   14 1   
     8    3    4 1   
     9    3   18 1   
    10    3   19 1   
    11    4    5 1   
    12    4   20 1   
    13    4   21 1   
    14    5    6 1   
    15    5   22 1   
    16    6    7 1   
    17    6    8 1   
    18    6    9 1   
    19    7   23 1   
    20    7   24 1   
    21    7   25 1   
    22    8   26 1   
    23    8   27 1   
    24    8   28 1   
    25    9   10 1   
    26    9   11 2   
    27   10   29 1   
    28   10   30 1   
    29   10   31 1   
    30   11   12 1   
    31   12   13 1   
    32   12   32 1   
    33   12   33 1   
    34   13   14 1   
    35   13   34 1   
    36   13   35 1   
    37   14   15 1   
    38   14   36 1   
    39   15   37 1   
    40   15   38 1   
    41   15   39 1   
@<TRIPOS>SUBSTRUCTURE
     1 EL3         1 TEMP              0 ****  ****    0 ROOT
