@<TRIPOS>MOLECULE
EL3
   39    41     1     0     0
SMALL
bcc


@<TRIPOS>ATOM
      1 CAI        -0.1580   -1.1560   -1.1520 c3        1 EL3     -0.070400
      2 CAO        -0.9990   -0.3910   -0.1170 c3        1 EL3     -0.018800
      3 CAH        -0.8900   -1.2870    1.1310 c3        1 EL3     -0.065400
      4 CAG         0.4780   -1.9650    1.0160 c3        1 EL3     -0.080400
      5 CAM         1.0880   -1.4750   -0.3080 c3        1 EL3     -0.058700
      6 CAN         1.9370   -0.1950   -0.1440 c3        1 EL3     -0.001800
      7 CAC         2.9710   -0.3890    0.9620 c3        1 EL3     -0.085100
      8 CAD         2.6930    0.0500   -1.4510 c3        1 EL3     -0.085100
      9 CAJ         1.0630    1.0040    0.1530 c2        1 EL3     -0.109400
     10 CAA         1.7600    2.2900    0.4010 c3        1 EL3     -0.054900
     11 CAK        -0.2780    0.9120    0.1490 c2        1 EL3     -0.112400
     12 CAE        -1.2650    2.0160    0.3130 c3        1 EL3     -0.038200
     13 CAF        -2.6360    1.4230   -0.0100 c3        1 EL3     -0.075400
     14 CAL        -2.4050    0.0100   -0.5650 c3        1 EL3     -0.049700
     15 CAB        -3.5060   -0.9350   -0.1590 c3        1 EL3     -0.084100
     16 HAI        -0.6730   -2.0920   -1.4760 hc        1 EL3      0.048200
     17 HAIA        0.0680   -0.5400   -2.0510 hc        1 EL3      0.048200
     18 HAH        -0.9740   -0.6820    2.0660 hc        1 EL3      0.045200
     19 HAHA       -1.7000   -2.0560    1.1400 hc        1 EL3      0.045200
     20 HAG         1.1220   -1.7270    1.8940 hc        1 EL3      0.042700
     21 HAGA        0.3570   -3.0760    0.9790 hc        1 EL3      0.042700
     22 HAM         1.7160   -2.2720   -0.7760 hc        1 EL3      0.053700
     23 HAC         3.3680   -1.4320    0.9360 hc        1 EL3      0.035200
     24 HACA        3.8270    0.3160    0.8250 hc        1 EL3      0.035200
     25 HACB        2.5240   -0.1960    1.9670 hc        1 EL3      0.035200
     26 HAD         1.9850    0.2150   -2.2970 hc        1 EL3      0.035200
     27 HADA        3.3460    0.9510   -1.3580 hc        1 EL3      0.035200
     28 HADB        3.3370   -0.8310   -1.6880 hc        1 EL3      0.035200
     29 HAA         2.1900    2.6840   -0.5540 hc        1 EL3      0.039700
     30 HAAA        1.0590    3.0580    0.8130 hc        1 EL3      0.039700
     31 HAAB        2.5960    2.1530    1.1310 hc        1 EL3      0.039700
     32 HAE        -1.2410    2.4190    1.3590 hc        1 EL3      0.049200
     33 HAEA       -1.0250    2.8630   -0.3790 hc        1 EL3      0.049200
     34 HAF        -3.2650    1.3790    0.9140 hc        1 EL3      0.041200
     35 HAFA       -3.1770    2.0520   -0.7580 hc        1 EL3      0.041200
     36 HAL        -2.3930    0.0680   -1.6900 hc        1 EL3      0.048700
     37 HAB        -3.6130   -0.9790    0.9530 hc        1 EL3      0.034367
     38 HABA       -4.4790   -0.5900   -0.5880 hc        1 EL3      0.034367
     39 HABB       -3.2970   -1.9650   -0.5380 hc        1 EL3      0.034367
@<TRIPOS>BOND
     1    1    2 1   
     2    1    5 1   
     3    1   16 1   
     4    1   17 1   
     5    2    3 1   
     6    2   11 1   
     7    2   14 1   
     8    3    4 1   
     9    3   18 1   
    10    3   19 1   
    11    4    5 1   
    12    4   20 1   
    13    4   21 1   
    14    5    6 1   
    15    5   22 1   
    16    6    7 1   
    17    6    8 1   
    18    6    9 1   
    19    7   23 1   
    20    7   24 1   
    21    7   25 1   
    22    8   26 1   
    23    8   27 1   
    24    8   28 1   
    25    9   10 1   
    26    9   11 2   
    27   10   29 1   
    28   10   30 1   
    29   10   31 1   
    30   11   12 1   
    31   12   13 1   
    32   12   32 1   
    33   12   33 1   
    34   13   14 1   
    35   13   34 1   
    36   13   35 1   
    37   14   15 1   
    38   14   36 1   
    39   15   37 1   
    40   15   38 1   
    41   15   39 1   
@<TRIPOS>SUBSTRUCTURE
     1 EL3         1 TEMP              0 ****  ****    0 ROOT
