@<TRIPOS>MOLECULE
EL3
   39    41     1     0     0
SMALL
bcc


@<TRIPOS>ATOM
      1 CAI         0.0220    0.0770   -0.0190 c3        1 EL3     -0.070400
      2 CAO         1.5590    0.0550   -0.0440 c3        1 EL3     -0.018800
      3 CAH         1.9030    1.4100   -0.6910 c3        1 EL3     -0.065400
      4 CAG         0.7590    2.3450   -0.2880 c3        1 EL3     -0.080400
      5 CAM        -0.2210    1.4920    0.5340 c3        1 EL3     -0.058700
      6 CAN         0.0860    1.5100    2.0480 c3        1 EL3     -0.001800
      7 CAC         0.1980    2.9490    2.5430 c3        1 EL3     -0.085100
      8 CAD        -1.0830    0.8530    2.7830 c3        1 EL3     -0.085100
      9 CAJ         1.3550    0.7450    2.3560 c2        1 EL3     -0.109400
     10 CAA         1.8040    0.7420    3.7690 c3        1 EL3     -0.054900
     11 CAK         2.0160    0.0700    1.3990 c2        1 EL3     -0.112400
     12 CAE         3.2060   -0.8110    1.5640 c3        1 EL3     -0.038200
     13 CAF         3.4120   -1.5180    0.2260 c3        1 EL3     -0.075400
     14 CAL         2.2000   -1.1910   -0.6570 c3        1 EL3     -0.049700
     15 CAB         2.5830   -1.0710   -2.1100 c3        1 EL3     -0.084100
     16 HAI        -0.4020   -0.7250    0.6270 hc        1 EL3      0.048200
     17 HAIA       -0.3980   -0.0290   -1.0480 hc        1 EL3      0.048200
     18 HAH         2.8900    1.7860   -0.3300 hc        1 EL3      0.045200
     19 HAHA        1.9510    1.3180   -1.8030 hc        1 EL3      0.045200
     20 HAG         1.1390    3.2250    0.2820 hc        1 EL3      0.042700
     21 HAGA        0.2390    2.7330   -1.1990 hc        1 EL3      0.042700
     22 HAM        -1.2740    1.8290    0.3710 hc        1 EL3      0.053700
     23 HAC         1.2170    3.3610    2.3530 hc        1 EL3      0.035200
     24 HACA        0.0060    2.9990    3.6430 hc        1 EL3      0.035200
     25 HACB       -0.5550    3.5910    2.0270 hc        1 EL3      0.035200
     26 HAD        -0.9110    0.8780    3.8860 hc        1 EL3      0.035200
     27 HADA       -1.2030   -0.2110    2.4710 hc        1 EL3      0.035200
     28 HADB       -2.0290    1.4020    2.5580 hc        1 EL3      0.035200
     29 HAA         1.7920    1.7770    4.1910 hc        1 EL3      0.039700
     30 HAAA        2.8420    0.3370    3.8640 hc        1 EL3      0.039700
     31 HAAB        1.1220    0.1030    4.3860 hc        1 EL3      0.039700
     32 HAE         4.1100   -0.2100    1.8410 hc        1 EL3      0.049200
     33 HAEA        3.0330   -1.5540    2.3850 hc        1 EL3      0.049200
     34 HAF         3.5040   -2.6230    0.3680 hc        1 EL3      0.041200
     35 HAFA        4.3540   -1.1600   -0.2590 hc        1 EL3      0.041200
     36 HAL         1.4530   -2.0300   -0.5610 hc        1 EL3      0.048700
     37 HAB         3.3770   -0.2990   -2.2560 hc        1 EL3      0.034367
     38 HABA        1.6950   -0.7930   -2.7260 hc        1 EL3      0.034367
     39 HABB        2.9780   -2.0500   -2.4780 hc        1 EL3      0.034367
@<TRIPOS>BOND
     1    1    2 1   
     2    1    5 1   
     3    1   16 1   
     4    1   17 1   
     5    2    3 1   
     6    2   11 1   
     7    2   14 1   
     8    3    4 1   
     9    3   18 1   
    10    3   19 1   
    11    4    5 1   
    12    4   20 1   
    13    4   21 1   
    14    5    6 1   
    15    5   22 1   
    16    6    7 1   
    17    6    8 1   
    18    6    9 1   
    19    7   23 1   
    20    7   24 1   
    21    7   25 1   
    22    8   26 1   
    23    8   27 1   
    24    8   28 1   
    25    9   10 1   
    26    9   11 2   
    27   10   29 1   
    28   10   30 1   
    29   10   31 1   
    30   11   12 1   
    31   12   13 1   
    32   12   32 1   
    33   12   33 1   
    34   13   14 1   
    35   13   34 1   
    36   13   35 1   
    37   14   15 1   
    38   14   36 1   
    39   15   37 1   
    40   15   38 1   
    41   15   39 1   
@<TRIPOS>SUBSTRUCTURE
     1 EL3         1 TEMP              0 ****  ****    0 ROOT
