@<TRIPOS>MOLECULE
EL3
   39    41     1     0     0
SMALL
bcc


@<TRIPOS>ATOM
      1 CAI        -1.0460   -0.3440   -0.9420 c3        1 EL3     -0.070400
      2 CAO         0.4190   -0.3440   -0.9420 c3        1 EL3     -0.018800
      3 CAH         0.6950    1.0060   -1.5750 c3        1 EL3     -0.065400
      4 CAG        -0.7390    1.8580   -1.1860 c3        1 EL3     -0.080400
      5 CAM        -1.5680    0.7350   -0.3960 c3        1 EL3     -0.058700
      6 CAN        -1.2650    0.9480    1.0930 c3        1 EL3     -0.001800
      7 CAC        -1.2990    2.4410    1.3790 c3        1 EL3     -0.085100
      8 CAD        -2.3620    0.2780    1.9050 c3        1 EL3     -0.085100
      9 CAJ         0.1880    0.3570    1.6000 c2        1 EL3     -0.109400
     10 CAA         0.3720   -0.0670    3.0470 c3        1 EL3     -0.054900
     11 CAK         1.0820   -0.3440    0.4210 c2        1 EL3     -0.112400
     12 CAE         1.7150   -1.7630    0.6480 c3        1 EL3     -0.038200
     13 CAF         1.7870   -2.4090   -0.8490 c3        1 EL3     -0.075400
     14 CAL         0.9980   -1.5190   -1.7820 c3        1 EL3     -0.049700
     15 CAB         1.8840   -0.9900   -2.8390 c3        1 EL3     -0.084100
     16 HAI        -1.3590   -1.1260   -0.4490 hc        1 EL3      0.048200
     17 HAIA       -1.3590   -0.4100   -1.8650 hc        1 EL3      0.048200
     18 HAH         1.4760    1.4290   -1.1690 hc        1 EL3      0.045200
     19 HAHA        0.8020    0.9240   -2.5420 hc        1 EL3      0.045200
     20 HAG        -0.5460    2.6210   -0.6080 hc        1 EL3      0.042700
     21 HAGA       -1.2100    2.1370   -1.9940 hc        1 EL3      0.042700
     22 HAM        -2.5230    0.8050   -0.5830 hc        1 EL3      0.053700
     23 HAC        -1.9370    2.8730    0.7790 hc        1 EL3      0.035200
     24 HACA       -1.5700    2.5890    2.3040 hc        1 EL3      0.035200
     25 HACB       -0.4110    2.8200    1.2360 hc        1 EL3      0.035200
     26 HAD        -3.2330    0.5390    1.5510 hc        1 EL3      0.035200
     27 HADA       -2.2920    0.5570    2.8380 hc        1 EL3      0.035200
     28 HADB       -2.2640   -0.6910    1.8460 hc        1 EL3      0.035200
     29 HAA         1.3240   -0.1460    3.2450 hc        1 EL3      0.039700
     30 HAAA       -0.0290    0.6010    3.6350 hc        1 EL3      0.039700
     31 HAAB       -0.0620   -0.9300    3.1900 hc        1 EL3      0.039700
     32 HAE         2.5300   -1.6750    1.1790 hc        1 EL3      0.049200
     33 HAEA        1.1790   -2.3530    1.2110 hc        1 EL3      0.049200
     34 HAF         1.3990   -3.3050   -0.8400 hc        1 EL3      0.041200
     35 HAFA        2.7160   -2.4550   -1.1440 hc        1 EL3      0.041200
     36 HAL         0.2690   -2.0270   -2.1850 hc        1 EL3      0.048700
     37 HAB         2.4080   -1.7200   -3.2200 hc        1 EL3      0.034367
     38 HABA        2.4850   -0.3230   -2.4560 hc        1 EL3      0.034367
     39 HABB        1.3440   -0.5780   -3.5400 hc        1 EL3      0.034367
@<TRIPOS>BOND
     1    1    2 1   
     2    1    5 1   
     3    1   16 1   
     4    1   17 1   
     5    2    3 1   
     6    2   11 1   
     7    2   14 1   
     8    3    4 1   
     9    3   18 1   
    10    3   19 1   
    11    4    5 1   
    12    4   20 1   
    13    4   21 1   
    14    5    6 1   
    15    5   22 1   
    16    6    7 1   
    17    6    8 1   
    18    6    9 1   
    19    7   23 1   
    20    7   24 1   
    21    7   25 1   
    22    8   26 1   
    23    8   27 1   
    24    8   28 1   
    25    9   10 1   
    26    9   11 2   
    27   10   29 1   
    28   10   30 1   
    29   10   31 1   
    30   11   12 1   
    31   12   13 1   
    32   12   32 1   
    33   12   33 1   
    34   13   14 1   
    35   13   34 1   
    36   13   35 1   
    37   14   15 1   
    38   14   36 1   
    39   15   37 1   
    40   15   38 1   
    41   15   39 1   
@<TRIPOS>SUBSTRUCTURE
     1 EL3         1 TEMP              0 ****  ****    0 ROOT
