@<TRIPOS>MOLECULE
ELA
   53    52     1     0     0
SMALL
bcc


@<TRIPOS>ATOM
      1 CA         -0.0370   -1.0490    0.0660 c3        1 ELA     -0.194400
      2 C           0.7230   -2.2370   -0.5500 c         1 ELA      0.907600
      3 O           1.1290   -3.1580    0.2170 o         1 ELA     -0.853300
      4 C3         -1.0930   -1.5170    1.0380 c3        1 ELA     -0.065400
      5 C4         -1.7200   -0.3610    1.7900 c3        1 ELA     -0.078400
      6 C5         -2.7900   -0.8400    2.7480 c3        1 ELA     -0.078400
      7 C6         -3.4110    0.3130    3.5070 c3        1 ELA     -0.079400
      8 C7         -4.4820   -0.1670    4.4630 c3        1 ELA     -0.077400
      9 C8         -5.0980    0.9890    5.2230 c3        1 ELA     -0.052200
     10 C9         -6.1530    0.5480    6.1660 c2        1 ELA     -0.160200
     11 C10        -6.9090    1.3860    6.8840 c2        1 ELA     -0.190200
     12 C11        -6.7910    2.8620    6.8160 c3        1 ELA     -0.046200
     13 C12        -7.6510    3.5770    7.8370 c3        1 ELA     -0.074400
     14 C13        -7.1300    3.3980    9.2460 c3        1 ELA     -0.080400
     15 C14        -8.0170    4.0960   10.2550 c3        1 ELA     -0.078400
     16 C15        -7.4900    3.9220   11.6630 c3        1 ELA     -0.079400
     17 C16        -8.3780    4.6190   12.6720 c3        1 ELA     -0.078400
     18 C17        -7.8520    4.4450   14.0810 c3        1 ELA     -0.080400
     19 C18        -8.7320    5.1370   15.0900 c3        1 ELA     -0.092100
     20 OXT         0.9230   -2.2230   -1.7990 o         1 ELA     -0.853300
     21 HA1         0.7100   -0.4030    0.5950 hc        1 ELA      0.018700
     22 HA2        -0.5000   -0.4410   -0.7500 hc        1 ELA      0.018700
     23 H31        -0.6230   -2.2380    1.7580 hc        1 ELA      0.044200
     24 H32        -1.8890   -2.0770    0.4810 hc        1 ELA      0.044200
     25 H41        -2.1660    0.3650    1.0610 hc        1 ELA      0.025700
     26 H42        -0.9270    0.1900    2.3600 hc        1 ELA      0.025700
     27 H51        -3.5870   -1.3860    2.1770 hc        1 ELA      0.036700
     28 H52        -2.3440   -1.5710    3.4720 hc        1 ELA      0.036700
     29 H61        -3.8550    1.0450    2.7820 hc        1 ELA      0.034200
     30 H62        -2.6140    0.8580    4.0790 hc        1 ELA      0.034200
     31 H71        -4.0370   -0.9000    5.1870 hc        1 ELA      0.039700
     32 H72        -5.2790   -0.7110    3.8920 hc        1 ELA      0.039700
     33 H81        -4.2960    1.5340    5.7930 hc        1 ELA      0.046700
     34 H82        -5.5320    1.7280    4.4940 hc        1 ELA      0.046700
     35 H9         -6.2930   -0.5420    6.2550 ha        1 ELA      0.122000
     36 H10        -7.6760    0.9940    7.5720 ha        1 ELA      0.116000
     37 H111       -7.0880    3.2020    5.7850 hc        1 ELA      0.047700
     38 H112       -5.7150    3.1590    6.9570 hc        1 ELA      0.047700
     39 H121       -8.7050    3.1980    7.7750 hc        1 ELA      0.036700
     40 H122       -7.6770    4.6720    7.5880 hc        1 ELA      0.036700
     41 H131       -6.0870    3.8070    9.3160 hc        1 ELA      0.042700
     42 H132       -7.0720    2.3040    9.4870 hc        1 ELA      0.042700
     43 H141       -8.0790    5.1890   10.0090 hc        1 ELA      0.036700
     44 H142       -9.0580    3.6840   10.1890 hc        1 ELA      0.036700
     45 H151       -7.4280    2.8290   11.9080 hc        1 ELA      0.040700
     46 H152       -6.4490    4.3350   11.7290 hc        1 ELA      0.040700
     47 H161       -8.4410    5.7120   12.4270 hc        1 ELA      0.037700
     48 H162       -9.4190    4.2050   12.6070 hc        1 ELA      0.037700
     49 H171       -7.7880    3.3520   14.3240 hc        1 ELA      0.038700
     50 H172       -6.8100    4.8580   14.1440 hc        1 ELA      0.038700
     51 H181       -8.3260    4.9970   16.1210 hc        1 ELA      0.030367
     52 H182       -9.7680    4.7220   15.0590 hc        1 ELA      0.030367
     53 H183       -8.7880    6.2320   14.8790 hc        1 ELA      0.030367
@<TRIPOS>BOND
     1    1    2 1   
     2    1    4 1   
     3    1   21 1   
     4    1   22 1   
     5    2    3 1   
     6    2   20 1   
     7    4    5 1   
     8    4   23 1   
     9    4   24 1   
    10    5    6 1   
    11    5   25 1   
    12    5   26 1   
    13    6    7 1   
    14    6   27 1   
    15    6   28 1   
    16    7    8 1   
    17    7   29 1   
    18    7   30 1   
    19    8    9 1   
    20    8   31 1   
    21    8   32 1   
    22    9   10 1   
    23    9   33 1   
    24    9   34 1   
    25   10   11 2   
    26   10   35 1   
    27   11   12 1   
    28   11   36 1   
    29   12   13 1   
    30   12   37 1   
    31   12   38 1   
    32   13   14 1   
    33   13   39 1   
    34   13   40 1   
    35   14   15 1   
    36   14   41 1   
    37   14   42 1   
    38   15   16 1   
    39   15   43 1   
    40   15   44 1   
    41   16   17 1   
    42   16   45 1   
    43   16   46 1   
    44   17   18 1   
    45   17   47 1   
    46   17   48 1   
    47   18   19 1   
    48   18   49 1   
    49   18   50 1   
    50   19   51 1   
    51   19   52 1   
    52   19   53 1   
@<TRIPOS>SUBSTRUCTURE
     1 ELA         1 TEMP              0 ****  ****    0 ROOT
