@<TRIPOS>MOLECULE
ELA
   53    52     1     0     0
SMALL
bcc


@<TRIPOS>ATOM
      1 CA          0.4780   -0.4460    0.4340 c3        1 ELA     -0.194400
      2 C           1.0130   -1.2750   -0.7480 c         1 ELA      0.907600
      3 O           0.7780   -2.5180   -0.7700 o         1 ELA     -0.853300
      4 C3         -0.9630   -0.7810    0.7300 c3        1 ELA     -0.065400
      5 C4         -1.4480   -0.1140    2.0010 c3        1 ELA     -0.078400
      6 C5         -2.9000   -0.4410    2.2800 c3        1 ELA     -0.078400
      7 C6         -3.3820    0.2180    3.5540 c3        1 ELA     -0.079400
      8 C7         -4.8340   -0.1090    3.8300 c3        1 ELA     -0.077400
      9 C8         -5.3130    0.5510    5.1060 c3        1 ELA     -0.053200
     10 C9         -6.7330    0.2500    5.4020 c2        1 ELA     -0.159200
     11 C10        -7.3920    0.7320    6.4620 c2        1 ELA     -0.191200
     12 C11        -6.7800    1.6270    7.4710 c3        1 ELA     -0.046200
     13 C12        -7.7500    2.0020    8.5720 c3        1 ELA     -0.076400
     14 C13        -7.0990    2.9160    9.5870 c3        1 ELA     -0.080400
     15 C14        -8.0660    3.2920   10.6890 c3        1 ELA     -0.078400
     16 C15        -7.4150    4.2060   11.7040 c3        1 ELA     -0.079400
     17 C16        -8.3820    4.5820   12.8060 c3        1 ELA     -0.078400
     18 C17        -7.7320    5.4960   13.8220 c3        1 ELA     -0.080400
     19 C18        -8.6910    5.8740   14.9210 c3        1 ELA     -0.092100
     20 OXT         1.6810   -0.6700   -1.6350 o         1 ELA     -0.853300
     21 HA1         1.1150   -0.6740    1.3260 hc        1 ELA      0.018700
     22 HA2         0.5860    0.6430    0.2030 hc        1 ELA      0.018700
     23 H31        -1.0630   -1.8960    0.8160 hc        1 ELA      0.044200
     24 H32        -1.6060   -0.4570   -0.1300 hc        1 ELA      0.044200
     25 H41        -1.3230    0.9970    1.9150 hc        1 ELA      0.025700
     26 H42        -0.8160   -0.4510    2.8650 hc        1 ELA      0.025700
     27 H51        -3.5320   -0.1000    1.4180 hc        1 ELA      0.036700
     28 H52        -3.0230   -1.5530    2.3600 hc        1 ELA      0.036700
     29 H61        -3.2560    1.3290    3.4740 hc        1 ELA      0.034200
     30 H62        -2.7500   -0.1240    4.4160 hc        1 ELA      0.034200
     31 H71        -4.9600   -1.2210    3.9110 hc        1 ELA      0.039200
     32 H72        -5.4660    0.2340    2.9690 hc        1 ELA      0.039200
     33 H81        -4.6730    0.2110    5.9680 hc        1 ELA      0.046700
     34 H82        -5.1760    1.6650    5.0270 hc        1 ELA      0.046700
     35 H9         -7.2440   -0.4130    4.6840 ha        1 ELA      0.122000
     36 H10        -8.4490    0.4690    6.6270 ha        1 ELA      0.116000
     37 H111       -6.4070    2.5610    6.9640 hc        1 ELA      0.047700
     38 H112       -5.8780    1.1250    7.9190 hc        1 ELA      0.047700
     39 H121       -8.1170    1.0720    9.0820 hc        1 ELA      0.038700
     40 H122       -8.6460    2.5100    8.1270 hc        1 ELA      0.038700
     41 H131       -6.7310    3.8450    9.0760 hc        1 ELA      0.040700
     42 H132       -6.2030    2.4070   10.0310 hc        1 ELA      0.040700
     43 H141       -8.9620    3.8010   10.2450 hc        1 ELA      0.037700
     44 H142       -8.4340    2.3630   11.2000 hc        1 ELA      0.037700
     45 H151       -6.5190    3.6970   12.1480 hc        1 ELA      0.039700
     46 H152       -7.0470    5.1340   11.1930 hc        1 ELA      0.039700
     47 H161       -9.2780    5.0910   12.3620 hc        1 ELA      0.038700
     48 H162       -8.7500    3.6540   13.3170 hc        1 ELA      0.038700
     49 H171       -6.8350    4.9860   14.2640 hc        1 ELA      0.038700
     50 H172       -7.3630    6.4230   13.3090 hc        1 ELA      0.038700
     51 H181       -8.1920    6.5480   15.6590 hc        1 ELA      0.031033
     52 H182       -9.0500    4.9650   15.4610 hc        1 ELA      0.031033
     53 H183       -9.5800    6.4060   14.5030 hc        1 ELA      0.031033
@<TRIPOS>BOND
     1    1    2 1   
     2    1    4 1   
     3    1   21 1   
     4    1   22 1   
     5    2    3 1   
     6    2   20 1   
     7    4    5 1   
     8    4   23 1   
     9    4   24 1   
    10    5    6 1   
    11    5   25 1   
    12    5   26 1   
    13    6    7 1   
    14    6   27 1   
    15    6   28 1   
    16    7    8 1   
    17    7   29 1   
    18    7   30 1   
    19    8    9 1   
    20    8   31 1   
    21    8   32 1   
    22    9   10 1   
    23    9   33 1   
    24    9   34 1   
    25   10   11 2   
    26   10   35 1   
    27   11   12 1   
    28   11   36 1   
    29   12   13 1   
    30   12   37 1   
    31   12   38 1   
    32   13   14 1   
    33   13   39 1   
    34   13   40 1   
    35   14   15 1   
    36   14   41 1   
    37   14   42 1   
    38   15   16 1   
    39   15   43 1   
    40   15   44 1   
    41   16   17 1   
    42   16   45 1   
    43   16   46 1   
    44   17   18 1   
    45   17   47 1   
    46   17   48 1   
    47   18   19 1   
    48   18   49 1   
    49   18   50 1   
    50   19   51 1   
    51   19   52 1   
    52   19   53 1   
@<TRIPOS>SUBSTRUCTURE
     1 ELA         1 TEMP              0 ****  ****    0 ROOT
