@<TRIPOS>MOLECULE
ELA
   53    52     1     0     0
SMALL
bcc


@<TRIPOS>ATOM
      1 CA          0.0480    0.3590   -7.9160 c3        1 ELA     -0.194400
      2 C           1.0870   -0.1670   -8.9220 c         1 ELA      0.907600
      3 O           2.3000   -0.2240   -8.5640 o         1 ELA     -0.852800
      4 C3          0.2310   -0.2730   -6.5580 c3        1 ELA     -0.065400
      5 C4         -0.6630    0.3640   -5.5140 c3        1 ELA     -0.078400
      6 C5         -0.4870   -0.2910   -4.1600 c3        1 ELA     -0.078400
      7 C6         -1.3780    0.3470   -3.1160 c3        1 ELA     -0.079400
      8 C7         -1.2040   -0.3130   -1.7640 c3        1 ELA     -0.076400
      9 C8         -2.1060    0.3230   -0.7240 c3        1 ELA     -0.052200
     10 C9         -1.9640   -0.3300    0.5990 c2        1 ELA     -0.155200
     11 C10        -1.9030    0.3390    1.7530 c2        1 ELA     -0.189200
     12 C11        -1.8010   -0.3170    3.0790 c3        1 ELA     -0.043200
     13 C12        -0.7430    0.3400    3.9440 c3        1 ELA     -0.076400
     14 C13        -0.6570   -0.3250    5.3010 c3        1 ELA     -0.079400
     15 C14         0.3970    0.3300    6.1680 c3        1 ELA     -0.079400
     16 C15         0.4840   -0.3350    7.5250 c3        1 ELA     -0.078400
     17 C16         1.5370    0.3210    8.3920 c3        1 ELA     -0.079400
     18 C17         1.6260   -0.3430    9.7490 c3        1 ELA     -0.080400
     19 C18         2.6740    0.3060   10.6160 c3        1 ELA     -0.092100
     20 OXT         0.6770   -0.4990  -10.0720 o         1 ELA     -0.852800
     21 HA1        -0.9810    0.1570   -8.3060 hc        1 ELA      0.018700
     22 HA2         0.1750    1.4690   -7.8410 hc        1 ELA      0.018700
     23 H31         1.3080   -0.1740   -6.2580 hc        1 ELA      0.044200
     24 H32         0.0060   -1.3700   -6.6240 hc        1 ELA      0.044200
     25 H41        -1.7350    0.2810   -5.8340 hc        1 ELA      0.025700
     26 H42        -0.4260    1.4570   -5.4340 hc        1 ELA      0.025700
     27 H51         0.5850   -0.2100   -3.8420 hc        1 ELA      0.037200
     28 H52        -0.7250   -1.3850   -4.2400 hc        1 ELA      0.037200
     29 H61        -2.4500    0.2690   -3.4380 hc        1 ELA      0.034700
     30 H62        -1.1370    1.4400   -3.0340 hc        1 ELA      0.034700
     31 H71        -0.1350   -0.2260   -1.4380 hc        1 ELA      0.040200
     32 H72        -1.4380   -1.4070   -1.8480 hc        1 ELA      0.040200
     33 H81        -3.1770    0.2310   -1.0560 hc        1 ELA      0.044700
     34 H82        -1.8780    1.4200   -0.6530 hc        1 ELA      0.044700
     35 H9         -1.9180   -1.4320    0.5750 ha        1 ELA      0.119000
     36 H10        -1.9360    1.4410    1.7760 ha        1 ELA      0.118000
     37 H111       -1.5640   -1.4090    2.9650 hc        1 ELA      0.041200
     38 H112       -2.7980   -0.2480    3.5950 hc        1 ELA      0.041200
     39 H121       -0.9840    1.4280    4.0720 hc        1 ELA      0.042700
     40 H122        0.2520    0.2790    3.4300 hc        1 ELA      0.042700
     41 H131       -0.4140   -1.4130    5.1720 hc        1 ELA      0.038200
     42 H132       -1.6540   -0.2680    5.8130 hc        1 ELA      0.038200
     43 H141        0.1540    1.4180    6.2970 hc        1 ELA      0.040200
     44 H142        1.3930    0.2730    5.6560 hc        1 ELA      0.040200
     45 H151        0.7270   -1.4220    7.3960 hc        1 ELA      0.038700
     46 H152       -0.5130   -0.2780    8.0370 hc        1 ELA      0.038700
     47 H161        1.2950    1.4090    8.5210 hc        1 ELA      0.039700
     48 H162        2.5340    0.2640    7.8800 hc        1 ELA      0.039700
     49 H171        1.8680   -1.4310    9.6180 hc        1 ELA      0.037700
     50 H172        0.6280   -0.2870   10.2590 hc        1 ELA      0.037700
     51 H181        2.7230   -0.1980   11.6110 hc        1 ELA      0.031367
     52 H182        3.6800    0.2380   10.1360 hc        1 ELA      0.031367
     53 H183        2.4370    1.3860   10.7780 hc        1 ELA      0.031367
@<TRIPOS>BOND
     1    1    2 1   
     2    1    4 1   
     3    1   21 1   
     4    1   22 1   
     5    2    3 1   
     6    2   20 1   
     7    4    5 1   
     8    4   23 1   
     9    4   24 1   
    10    5    6 1   
    11    5   25 1   
    12    5   26 1   
    13    6    7 1   
    14    6   27 1   
    15    6   28 1   
    16    7    8 1   
    17    7   29 1   
    18    7   30 1   
    19    8    9 1   
    20    8   31 1   
    21    8   32 1   
    22    9   10 1   
    23    9   33 1   
    24    9   34 1   
    25   10   11 2   
    26   10   35 1   
    27   11   12 1   
    28   11   36 1   
    29   12   13 1   
    30   12   37 1   
    31   12   38 1   
    32   13   14 1   
    33   13   39 1   
    34   13   40 1   
    35   14   15 1   
    36   14   41 1   
    37   14   42 1   
    38   15   16 1   
    39   15   43 1   
    40   15   44 1   
    41   16   17 1   
    42   16   45 1   
    43   16   46 1   
    44   17   18 1   
    45   17   47 1   
    46   17   48 1   
    47   18   19 1   
    48   18   49 1   
    49   18   50 1   
    50   19   51 1   
    51   19   52 1   
    52   19   53 1   
@<TRIPOS>SUBSTRUCTURE
     1 ELA         1 TEMP              0 ****  ****    0 ROOT
