@<TRIPOS>MOLECULE
ELD
   55    52     1     0     0
SMALL
bcc


@<TRIPOS>ATOM
      1 C1          6.9580   -2.7140    5.9890 c1        1 ELD      0.299000
      2 N1          8.3300   -3.0740    5.9720 n2        1 ELD     -0.444000
      3 O2          6.3290   -2.7630    7.0270 o         1 ELD     -0.373000
      4 C2          6.2750   -2.2760    4.7110 c3        1 ELD     -0.177000
      5 C3          4.7910   -2.1200    4.9610 c3        1 ELD     -0.153000
      6 C4          4.1090   -1.6800    3.6840 c3        1 ELD     -0.158000
      7 C5          2.6350   -1.4640    3.9490 c3        1 ELD     -0.157000
      8 C6          1.9350   -1.1200    2.6520 c3        1 ELD     -0.158000
      9 C7          0.4500   -0.9800    2.9030 c3        1 ELD     -0.156000
     10 C8         -0.2530   -0.6560    1.6030 c3        1 ELD     -0.132000
     11 C9         -1.7500   -0.7330    1.8060 c2        1 ELD     -0.170000
     12 C10        -2.5840   -0.3350    0.8250 c1        1 ELD     -0.170000
     13 C11        -2.0240    0.1880   -0.4790 c2        1 ELD     -0.132000
     14 C12        -3.1510    0.3940   -1.4660 c3        1 ELD     -0.156000
     15 C13        -2.6360    1.1540   -2.6680 c3        1 ELD     -0.158000
     16 C14        -3.7720    1.3890   -3.6400 c3        1 ELD     -0.158000
     17 C15        -3.2760    2.2210   -4.8030 c3        1 ELD     -0.158000
     18 C16        -4.4060    2.4380   -5.7850 c3        1 ELD     -0.158000
     19 C17        -3.9360    3.3460   -6.9010 c3        1 ELD     -0.159000
     20 C18        -5.0680    3.5690   -7.8800 c3        1 ELD     -0.210000
     21 HN11        8.7400   -3.3480    6.7420 hn        1 ELD      0.223000
     22 HN12        8.8040   -3.0340    5.1910 hn        1 ELD      0.223000
     23 H21         6.6480   -1.4210    4.4190 hc        1 ELD      0.100000
     24 H22         6.4200   -2.9500    4.0170 hc        1 ELD      0.100000
     25 H31         4.6470   -1.4470    5.6560 hc        1 ELD      0.100000
     26 H32         4.4170   -2.9760    5.2520 hc        1 ELD      0.100000
     27 H41         4.5100   -0.8440    3.3720 hc        1 ELD      0.076000
     28 H42         4.2200   -2.3700    3.0000 hc        1 ELD      0.076000
     29 H51         2.2480   -2.2820    4.3210 hc        1 ELD      0.083000
     30 H52         2.5220   -0.7300    4.5850 hc        1 ELD      0.083000
     31 H61         2.2880   -0.2770    2.3050 hc        1 ELD      0.078000
     32 H62         2.0900   -1.8320    2.0000 hc        1 ELD      0.078000
     33 H71         0.0990   -1.8190    3.2630 hc        1 ELD      0.082000
     34 H72         0.2940   -0.2590    3.5460 hc        1 ELD      0.082000
     35 H81        -0.0090    0.2470    1.3170 hc        1 ELD      0.086000
     36 H82         0.0170   -1.2990    0.9180 hc        1 ELD      0.086000
     37 H9         -2.1120   -1.0710    2.6470 ha        1 ELD      0.122000
     38 H10        -3.5500   -0.3850    0.9560 ha        1 ELD      0.122000
     39 H111       -1.5700    1.0400   -0.3200 ha        1 ELD      0.086000
     40 H112       -1.3860   -0.4580   -0.8420 ha        1 ELD      0.086000
     41 H121       -3.4960   -0.4750   -1.7530 hc        1 ELD      0.081000
     42 H122       -3.8680    0.9050   -1.0400 hc        1 ELD      0.081000
     43 H131       -2.2720    2.0150   -2.3790 hc        1 ELD      0.079000
     44 H132       -1.9340    0.6340   -3.1070 hc        1 ELD      0.079000
     45 H141       -4.1010    0.5300   -3.9710 hc        1 ELD      0.079000
     46 H142       -4.4970    1.8640   -3.1860 hc        1 ELD      0.079000
     47 H151       -2.9590    3.0850   -4.4740 hc        1 ELD      0.079000
     48 H152       -2.5420    1.7520   -5.2490 hc        1 ELD      0.079000
     49 H161       -5.1630    2.8530   -5.3250 hc        1 ELD      0.079000
     50 H162       -4.6830    1.5780   -6.1590 hc        1 ELD      0.079000
     51 H171       -3.6550    4.2040   -6.5270 hc        1 ELD      0.078000
     52 H172       -3.1820    2.9290   -7.3640 hc        1 ELD      0.078000
     53 H181       -4.7550    4.1290   -8.6200 hc        1 ELD      0.072000
     54 H182       -5.8110    4.0170   -7.4230 hc        1 ELD      0.072000
     55 H183       -5.3730    2.7060   -8.2300 hc        1 ELD      0.072000
@<TRIPOS>BOND
     1    1    3 1   
     2    1    4 1   
     3    2   21 1   
     4    2   22 1   
     5    4    5 1   
     6    4   23 1   
     7    4   24 1   
     8    5    6 1   
     9    5   25 1   
    10    5   26 1   
    11    6    7 1   
    12    6   27 1   
    13    6   28 1   
    14    7    8 1   
    15    7   29 1   
    16    7   30 1   
    17    8    9 1   
    18    8   31 1   
    19    8   32 1   
    20    9   10 1   
    21    9   33 1   
    22    9   34 1   
    23   10   11 1   
    24   10   35 1   
    25   10   36 1   
    26   11   12 1   
    27   11   37 1   
    28   12   38 1   
    29   13   14 1   
    30   13   39 1   
    31   13   40 1   
    32   14   15 1   
    33   14   41 1   
    34   14   42 1   
    35   15   16 1   
    36   15   43 1   
    37   15   44 1   
    38   16   17 1   
    39   16   45 1   
    40   16   46 1   
    41   17   18 1   
    42   17   47 1   
    43   17   48 1   
    44   18   19 1   
    45   18   49 1   
    46   18   50 1   
    47   19   20 1   
    48   19   51 1   
    49   19   52 1   
    50   20   53 1   
    51   20   54 1   
    52   20   55 1   
@<TRIPOS>SUBSTRUCTURE
     1 ELD         1 TEMP              0 ****  ****    0 ROOT
