@<TRIPOS>MOLECULE
ELD
   55    54     1     0     0
SMALL
bcc


@<TRIPOS>ATOM
      1 C1         -8.9080    0.8750    0.1430 c         1 ELD      0.655100
      2 N1         -9.8330    1.8930    0.1690 n         1 ELD     -0.684000
      3 O2         -9.2980   -0.3100    0.1260 o         1 ELD     -0.612100
      4 C2         -7.4420    1.2590    0.1360 c3        1 ELD     -0.148400
      5 C3         -6.5580    0.0320    0.1070 c3        1 ELD     -0.074400
      6 C4         -5.0950    0.4170    0.1010 c3        1 ELD     -0.079400
      7 C5         -4.2080   -0.8100    0.0710 c3        1 ELD     -0.078400
      8 C6         -2.7440   -0.4290    0.0650 c3        1 ELD     -0.079400
      9 C7         -1.8580   -1.6560    0.0360 c3        1 ELD     -0.077400
     10 C8         -0.3930   -1.2730    0.0290 c3        1 ELD     -0.049200
     11 C9          0.4970   -2.4570    0.0010 c2        1 ELD     -0.174200
     12 C10         1.8330   -2.3820   -0.0060 c2        1 ELD     -0.174200
     13 C11         2.5850   -1.1060    0.0150 c3        1 ELD     -0.049200
     14 C12         4.0840   -1.3210   -0.0020 c3        1 ELD     -0.077400
     15 C13         4.8260   -0.0020    0.0190 c3        1 ELD     -0.079400
     16 C14         6.3250   -0.2150    0.0030 c3        1 ELD     -0.079400
     17 C15         7.0670    1.1040    0.0240 c3        1 ELD     -0.079400
     18 C16         8.5660    0.8910    0.0080 c3        1 ELD     -0.079400
     19 C17         9.3100    2.2100    0.0300 c3        1 ELD     -0.080400
     20 C18        10.8020    2.0030    0.0130 c3        1 ELD     -0.092100
     21 HN11       -9.5530    2.8370    0.1820 hn        1 ELD      0.309500
     22 HN12      -10.7980    1.6780    0.1740 hn        1 ELD      0.309500
     23 H21        -7.2170    1.8690    1.0520 hc        1 ELD      0.060700
     24 H22        -7.2330    1.9000   -0.7610 hc        1 ELD      0.060700
     25 H31        -6.8000   -0.5800   -0.8020 hc        1 ELD      0.060700
     26 H32        -6.7840   -0.6120    0.9980 hc        1 ELD      0.060700
     27 H41        -4.8600    1.0280    1.0120 hc        1 ELD      0.036700
     28 H42        -4.8760    1.0600   -0.7930 hc        1 ELD      0.036700
     29 H51        -4.4430   -1.4210   -0.8400 hc        1 ELD      0.043700
     30 H52        -4.4270   -1.4520    0.9650 hc        1 ELD      0.043700
     31 H61        -2.5100    0.1820    0.9770 hc        1 ELD      0.038700
     32 H62        -2.5260    0.2140   -0.8290 hc        1 ELD      0.038700
     33 H71        -2.0920   -2.2670   -0.8760 hc        1 ELD      0.042700
     34 H72        -2.0760   -2.2990    0.9290 hc        1 ELD      0.042700
     35 H81        -0.1620   -0.6550    0.9400 hc        1 ELD      0.046700
     36 H82        -0.1780   -0.6230   -0.8630 hc        1 ELD      0.046700
     37 H9         -0.0040   -3.4390   -0.0150 ha        1 ELD      0.122000
     38 H10         2.4410   -3.3010   -0.0280 ha        1 ELD      0.122000
     39 H111        2.3000   -0.5190    0.9310 hc        1 ELD      0.046700
     40 H112        2.2850   -0.4810   -0.8720 hc        1 ELD      0.046700
     41 H121        4.3710   -1.8990   -0.9190 hc        1 ELD      0.041700
     42 H122        4.3860   -1.9370    0.8860 hc        1 ELD      0.041700
     43 H131        4.5390    0.5770    0.9370 hc        1 ELD      0.039700
     44 H132        4.5240    0.6140   -0.8680 hc        1 ELD      0.039700
     45 H141        6.6120   -0.7930   -0.9140 hc        1 ELD      0.039700
     46 H142        6.6270   -0.8310    0.8900 hc        1 ELD      0.039700
     47 H151        6.7790    1.6830    0.9420 hc        1 ELD      0.039700
     48 H152        6.7650    1.7200   -0.8630 hc        1 ELD      0.039700
     49 H161        8.8540    0.3130   -0.9090 hc        1 ELD      0.039700
     50 H162        8.8680    0.2750    0.8960 hc        1 ELD      0.039700
     51 H171        9.0190    2.7880    0.9470 hc        1 ELD      0.038700
     52 H172        9.0050    2.8250   -0.8580 hc        1 ELD      0.038700
     53 H181       11.3310    2.9860    0.0300 hc        1 ELD      0.032700
     54 H182       11.1280    1.4120    0.9040 hc        1 ELD      0.032700
     55 H183       11.1140    1.4500   -0.9060 hc        1 ELD      0.032700
@<TRIPOS>BOND
     1    1    2 1   
     2    1    3 2   
     3    1    4 1   
     4    2   21 1   
     5    2   22 1   
     6    4    5 1   
     7    4   23 1   
     8    4   24 1   
     9    5    6 1   
    10    5   25 1   
    11    5   26 1   
    12    6    7 1   
    13    6   27 1   
    14    6   28 1   
    15    7    8 1   
    16    7   29 1   
    17    7   30 1   
    18    8    9 1   
    19    8   31 1   
    20    8   32 1   
    21    9   10 1   
    22    9   33 1   
    23    9   34 1   
    24   10   11 1   
    25   10   35 1   
    26   10   36 1   
    27   11   12 2   
    28   11   37 1   
    29   12   13 1   
    30   12   38 1   
    31   13   14 1   
    32   13   39 1   
    33   13   40 1   
    34   14   15 1   
    35   14   41 1   
    36   14   42 1   
    37   15   16 1   
    38   15   43 1   
    39   15   44 1   
    40   16   17 1   
    41   16   45 1   
    42   16   46 1   
    43   17   18 1   
    44   17   47 1   
    45   17   48 1   
    46   18   19 1   
    47   18   49 1   
    48   18   50 1   
    49   19   20 1   
    50   19   51 1   
    51   19   52 1   
    52   20   53 1   
    53   20   54 1   
    54   20   55 1   
@<TRIPOS>SUBSTRUCTURE
     1 ELD         1 TEMP              0 ****  ****    0 ROOT
