@<TRIPOS>MOLECULE
ELD
   56    55     1     0     0
SMALL
bcc


@<TRIPOS>ATOM
      1 C1          0.0320   -0.6660    0.6100 c         1 ELD      0.551100
      2 N1          1.5480   -0.4770    0.6650 n4        1 ELD     -0.776400
      3 O2         -0.4330   -1.2180    1.5890 o         1 ELD     -0.376100
      4 C2         -0.6260   -0.1460   -0.6300 c3        1 ELD     -0.149400
      5 C3         -2.1260   -0.3860   -0.5740 c3        1 ELD     -0.084400
      6 C4         -2.7840    0.1430   -1.8310 c3        1 ELD     -0.081400
      7 C5         -4.2800   -0.0900   -1.7880 c3        1 ELD     -0.079400
      8 C6         -4.9470    0.4350   -3.0420 c3        1 ELD     -0.079400
      9 C7         -6.4430    0.2030   -2.9990 c3        1 ELD     -0.077400
     10 C8         -7.1110    0.7280   -4.2530 c3        1 ELD     -0.045200
     11 C9         -8.5770    0.5120   -4.2360 c2        1 ELD     -0.189200
     12 C10        -9.3930    0.8920   -5.2260 c2        1 ELD     -0.156200
     13 C11        -8.9330    1.5740   -6.4580 c3        1 ELD     -0.051200
     14 C12       -10.0740    1.8810   -7.4060 c3        1 ELD     -0.078400
     15 C13        -9.5750    2.5760   -8.6540 c3        1 ELD     -0.078400
     16 C14       -10.7140    2.8830   -9.6030 c3        1 ELD     -0.079400
     17 C15       -10.2160    3.5790  -10.8520 c3        1 ELD     -0.078400
     18 C16       -11.3550    3.8860  -11.8000 c3        1 ELD     -0.079400
     19 C17       -10.8600    4.5820  -13.0500 c3        1 ELD     -0.079400
     20 C18       -11.9910    4.8890  -13.9970 c3        1 ELD     -0.093100
     21 HN11        1.7780    0.5190    0.6120 hn        1 ELD      0.467467
     22 HN12        1.9900   -0.9600   -0.1220 hn        1 ELD      0.467467
     23 H21        -0.4210    0.9560   -0.7280 hc        1 ELD      0.104700
     24 H22        -0.1920   -0.6640   -1.5300 hc        1 ELD      0.104700
     25 H31        -2.3300   -1.4840   -0.4670 hc        1 ELD      0.074700
     26 H32        -2.5580    0.1240    0.3280 hc        1 ELD      0.074700
     27 H41        -2.3510   -0.3680   -2.7320 hc        1 ELD      0.049700
     28 H42        -2.5780    1.2410   -1.9360 hc        1 ELD      0.049700
     29 H51        -4.4890   -1.1880   -1.6830 hc        1 ELD      0.049700
     30 H52        -4.7160    0.4190   -0.8880 hc        1 ELD      0.049700
     31 H61        -4.7400    1.5330   -3.1480 hc        1 ELD      0.043700
     32 H62        -4.5130   -0.0740   -3.9420 hc        1 ELD      0.043700
     33 H71        -6.8780    0.7120   -2.0990 hc        1 ELD      0.045700
     34 H72        -6.6510   -0.8940   -2.8930 hc        1 ELD      0.045700
     35 H81        -6.6690    0.2220   -5.1550 hc        1 ELD      0.047700
     36 H82        -6.8960    1.8270   -4.3620 hc        1 ELD      0.047700
     37 H9         -8.9820    0.0080   -3.3440 ha        1 ELD      0.123000
     38 H10       -10.4770    0.7030   -5.1540 ha        1 ELD      0.128000
     39 H111       -8.1730    0.9290   -6.9800 hc        1 ELD      0.046700
     40 H112       -8.4070    2.5300   -6.1810 hc        1 ELD      0.046700
     41 H121      -10.8280    2.5300   -6.8890 hc        1 ELD      0.044700
     42 H122      -10.5940    0.9280   -7.6880 hc        1 ELD      0.044700
     43 H131       -9.0540    3.5290   -8.3720 hc        1 ELD      0.037700
     44 H132       -8.8200    1.9270   -9.1710 hc        1 ELD      0.037700
     45 H141      -11.4690    3.5320   -9.0860 hc        1 ELD      0.041700
     46 H142      -11.2350    1.9310   -9.8860 hc        1 ELD      0.041700
     47 H151       -9.4610    2.9300  -11.3680 hc        1 ELD      0.038700
     48 H152       -9.6950    4.5320  -10.5690 hc        1 ELD      0.038700
     49 H161      -12.1110    4.5350  -11.2840 hc        1 ELD      0.040700
     50 H162      -11.8760    2.9330  -12.0830 hc        1 ELD      0.040700
     51 H171      -10.1030    3.9330  -13.5640 hc        1 ELD      0.037700
     52 H172      -10.3380    5.5340  -12.7650 hc        1 ELD      0.037700
     53 H181      -12.5080    3.9510  -14.3110 hc        1 ELD      0.034033
     54 H182      -12.7430    5.5560  -13.5100 hc        1 ELD      0.034033
     55 H183      -11.6040    5.4020  -14.9100 hc        1 ELD      0.034033
     56 H13         1.9210   -0.8600    1.5440 hn        1 ELD      0.467467
@<TRIPOS>BOND
     1    1    2 1   
     2    1    3 2   
     3    1    4 1   
     4    2   21 1   
     5    2   22 1   
     6    2   56 1   
     7    4    5 1   
     8    4   23 1   
     9    4   24 1   
    10    5    6 1   
    11    5   25 1   
    12    5   26 1   
    13    6    7 1   
    14    6   27 1   
    15    6   28 1   
    16    7    8 1   
    17    7   29 1   
    18    7   30 1   
    19    8    9 1   
    20    8   31 1   
    21    8   32 1   
    22    9   10 1   
    23    9   33 1   
    24    9   34 1   
    25   10   11 1   
    26   10   35 1   
    27   10   36 1   
    28   11   12 2   
    29   11   37 1   
    30   12   13 1   
    31   12   38 1   
    32   13   14 1   
    33   13   39 1   
    34   13   40 1   
    35   14   15 1   
    36   14   41 1   
    37   14   42 1   
    38   15   16 1   
    39   15   43 1   
    40   15   44 1   
    41   16   17 1   
    42   16   45 1   
    43   16   46 1   
    44   17   18 1   
    45   17   47 1   
    46   17   48 1   
    47   18   19 1   
    48   18   49 1   
    49   18   50 1   
    50   19   20 1   
    51   19   51 1   
    52   19   52 1   
    53   20   53 1   
    54   20   54 1   
    55   20   55 1   
@<TRIPOS>SUBSTRUCTURE
     1 ELD         1 TEMP              0 ****  ****    0 ROOT
