@<TRIPOS>MOLECULE
ELD
   56    55     1     0     0
SMALL
bcc


@<TRIPOS>ATOM
      1 C1          0.0260   -0.6130    0.6300 c         1 ELD      0.551100
      2 N1          1.5510   -0.5010    0.6520 n4        1 ELD     -0.776400
      3 O2         -0.4500   -1.0660    1.6530 o         1 ELD     -0.376100
      4 C2         -0.6250   -0.1470   -0.6340 c3        1 ELD     -0.149400
      5 C3         -2.1290   -0.3580   -0.5640 c3        1 ELD     -0.084400
      6 C4         -2.7820    0.1270   -1.8420 c3        1 ELD     -0.081400
      7 C5         -4.2820   -0.0820   -1.7860 c3        1 ELD     -0.079400
      8 C6         -4.9440    0.4020   -3.0580 c3        1 ELD     -0.079400
      9 C7         -6.4420    0.1930   -3.0040 c3        1 ELD     -0.077400
     10 C8         -7.1060    0.6780   -4.2770 c3        1 ELD     -0.045200
     11 C9         -8.5750    0.4850   -4.2480 c2        1 ELD     -0.189200
     12 C10        -9.3950    0.9000   -5.2190 c2        1 ELD     -0.156200
     13 C11        -8.9390    1.6080   -6.4390 c3        1 ELD     -0.052200
     14 C12       -10.0740    1.8830   -7.4030 c3        1 ELD     -0.078400
     15 C13        -9.5790    2.6050   -8.6380 c3        1 ELD     -0.078400
     16 C14       -10.7130    2.8800   -9.6030 c3        1 ELD     -0.079400
     17 C15       -10.2190    3.6030  -10.8380 c3        1 ELD     -0.078400
     18 C16       -11.3530    3.8780  -11.8030 c3        1 ELD     -0.079400
     19 C17       -10.8610    4.6020  -13.0380 c3        1 ELD     -0.079400
     20 C18       -11.9870    4.8770  -14.0010 c3        1 ELD     -0.093100
     21 HN11        1.8320    0.4730    0.5100 hn        1 ELD      0.467467
     22 HN12        1.9180   -0.8270    1.5550 hn        1 ELD      0.467467
     23 H21        -0.4020    0.9460   -0.7850 hc        1 ELD      0.104700
     24 H22        -0.2030   -0.7150   -1.5090 hc        1 ELD      0.104700
     25 H31        -2.5490    0.1980    0.3160 hc        1 ELD      0.074200
     26 H32        -2.3520   -1.4470   -0.4090 hc        1 ELD      0.074200
     27 H41        -2.3590   -0.4280   -2.7200 hc        1 ELD      0.049700
     28 H42        -2.5600    1.2160   -1.9930 hc        1 ELD      0.049700
     29 H51        -4.7070    0.4710   -0.9070 hc        1 ELD      0.049700
     30 H52        -4.5060   -1.1710   -1.6350 hc        1 ELD      0.049700
     31 H61        -4.5180   -0.1490   -3.9380 hc        1 ELD      0.043700
     32 H62        -4.7210    1.4910   -3.2090 hc        1 ELD      0.043700
     33 H71        -6.6660   -0.8960   -2.8550 hc        1 ELD      0.045200
     34 H72        -6.8680    0.7430   -2.1250 hc        1 ELD      0.045200
     35 H81        -6.8730    1.7680   -4.4310 hc        1 ELD      0.047200
     36 H82        -6.6750    0.1290   -5.1590 hc        1 ELD      0.047200
     37 H9         -8.9780   -0.0340   -3.3640 ha        1 ELD      0.123000
     38 H10       -10.4810    0.7250   -5.1410 ha        1 ELD      0.128000
     39 H111       -8.4520    2.5790   -6.1450 hc        1 ELD      0.046200
     40 H112       -8.1490    0.9950   -6.9540 hc        1 ELD      0.046200
     41 H121      -10.8590    2.5020   -6.8940 hc        1 ELD      0.044700
     42 H122      -10.5580    0.9150   -7.7010 hc        1 ELD      0.044700
     43 H131       -9.0950    3.5720   -8.3400 hc        1 ELD      0.038200
     44 H132       -8.7950    1.9850   -9.1470 hc        1 ELD      0.038200
     45 H141      -11.1960    1.9130   -9.9010 hc        1 ELD      0.041700
     46 H142      -11.4980    3.4990   -9.0940 hc        1 ELD      0.041700
     47 H151       -9.4340    2.9850  -11.3470 hc        1 ELD      0.038700
     48 H152       -9.7360    4.5710  -10.5390 hc        1 ELD      0.038700
     49 H161      -12.1390    4.4960  -11.2930 hc        1 ELD      0.040700
     50 H162      -11.8360    2.9110  -12.1020 hc        1 ELD      0.040700
     51 H171      -10.0740    3.9840  -13.5450 hc        1 ELD      0.037700
     52 H172      -10.3780    5.5690  -12.7370 hc        1 ELD      0.037700
     53 H181      -11.6030    5.4110  -14.9040 hc        1 ELD      0.034033
     54 H182      -12.7700    5.5130  -13.5220 hc        1 ELD      0.034033
     55 H183      -12.4650    3.9240  -14.3320 hc        1 ELD      0.034033
     56 H13         1.9530   -1.0730   -0.0960 hn        1 ELD      0.467467
@<TRIPOS>BOND
     1    1    2 1   
     2    1    3 2   
     3    1    4 1   
     4    2   21 1   
     5    2   22 1   
     6    2   56 1   
     7    4    5 1   
     8    4   23 1   
     9    4   24 1   
    10    5    6 1   
    11    5   25 1   
    12    5   26 1   
    13    6    7 1   
    14    6   27 1   
    15    6   28 1   
    16    7    8 1   
    17    7   29 1   
    18    7   30 1   
    19    8    9 1   
    20    8   31 1   
    21    8   32 1   
    22    9   10 1   
    23    9   33 1   
    24    9   34 1   
    25   10   11 1   
    26   10   35 1   
    27   10   36 1   
    28   11   12 2   
    29   11   37 1   
    30   12   13 1   
    31   12   38 1   
    32   13   14 1   
    33   13   39 1   
    34   13   40 1   
    35   14   15 1   
    36   14   41 1   
    37   14   42 1   
    38   15   16 1   
    39   15   43 1   
    40   15   44 1   
    41   16   17 1   
    42   16   45 1   
    43   16   46 1   
    44   17   18 1   
    45   17   47 1   
    46   17   48 1   
    47   18   19 1   
    48   18   49 1   
    49   18   50 1   
    50   19   20 1   
    51   19   51 1   
    52   19   52 1   
    53   20   53 1   
    54   20   54 1   
    55   20   55 1   
@<TRIPOS>SUBSTRUCTURE
     1 ELD         1 TEMP              0 ****  ****    0 ROOT
