@<TRIPOS>MOLECULE
ELD
   56    55     1     0     0
SMALL
bcc


@<TRIPOS>ATOM
      1 C1          0.0340   -0.6470    0.6120 c         1 ELD      0.551100
      2 N1          1.5570   -0.5040    0.6450 nz        1 ELD     -0.776400
      3 O2         -0.4370   -1.1380    1.6200 o         1 ELD     -0.376100
      4 C2         -0.6210   -0.1610   -0.6430 c3        1 ELD     -0.149400
      5 C3         -2.1240   -0.3710   -0.5710 c3        1 ELD     -0.084400
      6 C4         -2.7800    0.1270   -1.8430 c3        1 ELD     -0.081400
      7 C5         -4.2800   -0.0770   -1.7840 c3        1 ELD     -0.079400
      8 C6         -4.9440    0.4180   -3.0510 c3        1 ELD     -0.079400
      9 C7         -6.4430    0.2140   -2.9940 c3        1 ELD     -0.077400
     10 C8         -7.1090    0.7100   -4.2610 c3        1 ELD     -0.045200
     11 C9         -8.5790    0.5220   -4.2290 c2        1 ELD     -0.189200
     12 C10        -9.3980    0.9250   -5.2070 c2        1 ELD     -0.156200
     13 C11        -8.9390    1.6100   -6.4380 c3        1 ELD     -0.051200
     14 C12       -10.0770    1.8980   -7.3940 c3        1 ELD     -0.078400
     15 C13        -9.5800    2.5970   -8.6410 c3        1 ELD     -0.078400
     16 C14       -10.7160    2.8860   -9.5980 c3        1 ELD     -0.079400
     17 C15       -10.2200    3.5850  -10.8450 c3        1 ELD     -0.078400
     18 C16       -11.3570    3.8730  -11.8030 c3        1 ELD     -0.079400
     19 C17       -10.8620    4.5730  -13.0510 c3        1 ELD     -0.079400
     20 C18       -11.9910    4.8620  -14.0070 c3        1 ELD     -0.093100
     21 HN11        1.8170    0.4790    0.5380 hn        1 ELD      0.467467
     22 HN12        1.9740   -1.0410   -0.1210 hn        1 ELD      0.467467
     23 H21        -0.3960    0.9330   -0.7820 hc        1 ELD      0.105200
     24 H22        -0.2010   -0.7200   -1.5260 hc        1 ELD      0.105200
     25 H31        -2.3490   -1.4610   -0.4260 hc        1 ELD      0.074200
     26 H32        -2.5410    0.1770    0.3150 hc        1 ELD      0.074200
     27 H41        -2.3610   -0.4220   -2.7270 hc        1 ELD      0.049700
     28 H42        -2.5550    1.2170   -1.9860 hc        1 ELD      0.049700
     29 H51        -4.5070   -1.1670   -1.6410 hc        1 ELD      0.049700
     30 H52        -4.7010    0.4690   -0.8990 hc        1 ELD      0.049700
     31 H61        -4.7180    1.5080   -3.1950 hc        1 ELD      0.043700
     32 H62        -4.5240   -0.1280   -3.9370 hc        1 ELD      0.043700
     33 H71        -6.8650    0.7590   -2.1090 hc        1 ELD      0.045700
     34 H72        -6.6700   -0.8760   -2.8520 hc        1 ELD      0.045700
     35 H81        -6.6820    0.1660   -5.1480 hc        1 ELD      0.047700
     36 H82        -6.8730    1.8000   -4.4080 hc        1 ELD      0.047700
     37 H9         -8.9830    0.0180   -3.3370 ha        1 ELD      0.123000
     38 H10       -10.4840    0.7540   -5.1260 ha        1 ELD      0.128000
     39 H111       -8.1660    0.9760   -6.9530 hc        1 ELD      0.046700
     40 H112       -8.4300    2.5740   -6.1590 hc        1 ELD      0.046700
     41 H121      -10.8440    2.5380   -6.8840 hc        1 ELD      0.044700
     42 H122      -10.5830    0.9370   -7.6770 hc        1 ELD      0.044700
     43 H131       -9.0740    3.5580   -8.3580 hc        1 ELD      0.038200
     44 H132       -8.8120    1.9570   -9.1510 hc        1 ELD      0.038200
     45 H141      -11.4840    3.5250   -9.0880 hc        1 ELD      0.041700
     46 H142      -11.2220    1.9250   -9.8820 hc        1 ELD      0.041700
     47 H151       -9.4520    2.9460  -11.3550 hc        1 ELD      0.038700
     48 H152       -9.7150    4.5460  -10.5620 hc        1 ELD      0.038700
     49 H161      -12.1250    4.5130  -11.2930 hc        1 ELD      0.040700
     50 H162      -11.8620    2.9130  -12.0870 hc        1 ELD      0.040700
     51 H171      -10.0930    3.9330  -13.5580 hc        1 ELD      0.037700
     52 H172      -10.3560    5.5330  -12.7650 hc        1 ELD      0.037700
     53 H181      -12.4920    3.9150  -14.3220 hc        1 ELD      0.034033
     54 H182      -12.7560    5.5190  -13.5270 hc        1 ELD      0.034033
     55 H183      -11.6050    5.3770  -14.9190 hc        1 ELD      0.034033
     56 H13         1.9260   -0.8540    1.5380 hn        1 ELD      0.467467
@<TRIPOS>BOND
     1    1    2 1   
     2    1    3 2   
     3    1    4 1   
     4    2   21 1   
     5    2   22 1   
     6    2   56 1   
     7    4    5 1   
     8    4   23 1   
     9    4   24 1   
    10    5    6 1   
    11    5   25 1   
    12    5   26 1   
    13    6    7 1   
    14    6   27 1   
    15    6   28 1   
    16    7    8 1   
    17    7   29 1   
    18    7   30 1   
    19    8    9 1   
    20    8   31 1   
    21    8   32 1   
    22    9   10 1   
    23    9   33 1   
    24    9   34 1   
    25   10   11 1   
    26   10   35 1   
    27   10   36 1   
    28   11   12 2   
    29   11   37 1   
    30   12   13 1   
    31   12   38 1   
    32   13   14 1   
    33   13   39 1   
    34   13   40 1   
    35   14   15 1   
    36   14   41 1   
    37   14   42 1   
    38   15   16 1   
    39   15   43 1   
    40   15   44 1   
    41   16   17 1   
    42   16   45 1   
    43   16   46 1   
    44   17   18 1   
    45   17   47 1   
    46   17   48 1   
    47   18   19 1   
    48   18   49 1   
    49   18   50 1   
    50   19   20 1   
    51   19   51 1   
    52   19   52 1   
    53   20   53 1   
    54   20   54 1   
    55   20   55 1   
@<TRIPOS>SUBSTRUCTURE
     1 ELD         1 TEMP              0 ****  ****    0 ROOT
