@<TRIPOS>MOLECULE
ELI
   38    46     1     0     0
SMALL
bcc


@<TRIPOS>ATOM
      1 C1          0.0000    0.0000    0.0000 c3        1 ELI     -0.273000
      2 C2          1.5090    0.0000    0.0000 c2        1 ELI     -0.103000
      3 C3          2.2630    0.0000    1.2920 c2        1 ELI     -0.210000
      4 C4          1.4380   -0.0020    2.6620 c2        1 ELI     -0.129000
      5 C5         -0.0710   -0.0040    2.6200 c3        1 ELI     -0.159000
      6 C6         -0.7830   -0.0030    1.3030 c2        1 ELI     -0.239000
      7 C10         3.8490   -0.0030    1.3280 c2        1 ELI      0.373000
      8 C11         2.1920   -0.0040    4.0710 c2        1 ELI      0.281000
      9 C14         3.8180    0.0020    4.0900 c3        1 ELI     -0.313000
     10 C15         4.5770    0.0010    2.7970 c2        1 ELI     -0.258000
     11 O16         1.5370   -0.0080    5.1340 o         1 ELI     -0.409000
     12 C17         4.4070    0.0110    5.5220 c3        1 ELI     -0.434000
     13 C18         6.0850    0.0150    2.7260 DU        1 ELI     -0.139000
     14 C19         6.3510    1.5910    2.5440 DU        1 ELI     -0.415000
     15 C20         6.9250    2.9030    2.7030 DU        1 ELI     -0.058000
     16 C23         6.3640    3.3930    1.5140 DU        1 ELI     -0.060000
     17 C26         6.4790    4.8530    1.8500 c3        1 ELI     -0.047000
     18 C43         6.3050    5.9330    0.8920 c2        1 ELI      0.385000
     19 O44         5.9900    5.9740   -0.1560 o         1 ELI     -0.511000
     20 O45         6.6170    7.0680    1.5000 o         1 ELI     -0.511000
     21 H1          1.0670   -0.1360    0.1300 hc        1 ELI      0.083000
     22 H2          0.5250    0.0000   -0.4550 DU        1 ELI      0.154000
     23 H5          0.4830   -0.0030    1.6890 hc        1 ELI      0.271000
     24 H6         -0.7140   -0.0040    2.3850 DU        1 ELI      0.244000
     25 H171        3.5090    0.0080    4.9160 DU        1 ELI      0.257000
     26 H172        4.3770    1.0180    5.9190 hc        1 ELI      0.067000
     27 H173        3.8220   -0.6450    6.1570 hc        1 ELI      0.067000
     28 H181        5.8400   -0.1180    3.7730 ha        1 ELI      0.200500
     29 H182        6.4410   -0.5430    1.8690 ha        1 ELI      0.200500
     30 H191        6.4350    0.6530    3.0790 DU        1 ELI      0.327000
     31 H192        5.3300    1.8960    2.7380 ha        1 ELI      0.119000
     32 H201        6.6530    2.1330    1.9910 DU        1 ELI      0.111000
     33 H202        6.5420    3.4150    3.5780 ha        1 ELI      0.108000
     34 H231        7.2240    3.1270    2.1150 DU        1 ELI      0.037000
     35 H232        6.9630    3.1320    0.6500 ha        1 ELI      0.145000
     36 H261        5.9000    3.9660    1.6250 DU        1 ELI      0.102000
     37 H262        6.0020    5.0990    2.7910 hc        1 ELI      0.112000
     38 O7          4.5170   -0.0030    0.2430 o         1 ELI     -0.376000
@<TRIPOS>BOND
     1    1    2 1   
     2    1    6 1   
     3    1   21 1   
     4    1   22 1   
     5    2    3 1   
     6    2   22 1   
     7    3    4 1   
     8    3    7 1   
     9    4    5 1   
    10    4    8 1   
    11    5    6 1   
    12    5   23 1   
    13    5   24 1   
    14    6   24 1   
    15    7   10 1   
    16    7   38 1   
    17    8    9 1   
    18    8   11 1   
    19    9   10 1   
    20    9   12 1   
    21    9   25 1   
    22   10   13 1   
    23   12   25 1   
    24   12   26 1   
    25   12   27 1   
    26   13   14 1   
    27   13   28 1   
    28   13   29 1   
    29   13   30 1   
    30   14   15 1   
    31   14   30 1   
    32   14   31 1   
    33   14   32 1   
    34   15   16 1   
    35   15   32 1   
    36   15   33 1   
    37   15   34 1   
    38   16   17 1   
    39   16   34 1   
    40   16   35 1   
    41   16   36 1   
    42   17   18 1   
    43   17   36 1   
    44   17   37 1   
    45   18   19 1   
    46   18   20 1   
@<TRIPOS>SUBSTRUCTURE
     1 ELI         1 TEMP              0 ****  ****    0 ROOT
