@<TRIPOS>MOLECULE
ELI
   38    36     1     0     0
SMALL
bcc


@<TRIPOS>ATOM
      1 C1         -5.0980   -0.8340   -1.9060 c1        1 ELI     -0.065000
      2 C2         -3.7030   -0.8320   -1.9260 c1        1 ELI     -0.029500
      3 C3         -2.9870   -0.7700   -0.7290 cg        1 ELI     -0.077200
      4 C4         -3.6730   -0.7080    0.4970 cg        1 ELI     -0.080200
      5 C5         -5.0690   -0.7100    0.5150 c1        1 ELI     -0.030500
      6 C6         -5.7830   -0.7730   -0.6820 c1        1 ELI     -0.065000
      7 O7         -0.8450   -0.7490   -1.8170 o         1 ELI     -0.510100
      8 C10        -1.4360   -0.7240   -0.7560 c         1 ELI      0.518500
      9 C11        -2.8790   -0.6520    1.8300 c         1 ELI      0.522500
     10 C14        -1.3860   -0.6630    1.8110 ce        1 ELI     -0.141400
     11 C15        -0.6670   -0.7080    0.5250 cf        1 ELI     -0.117400
     12 O16        -3.4730   -0.6150    2.8890 o         1 ELI     -0.526100
     13 C17        -0.6130   -0.7010    3.1110 c3        1 ELI     -0.066900
     14 C18         0.8400   -0.8450    0.5050 c3        1 ELI     -0.056200
     15 C19         1.4500    0.3870   -0.1270 c3        1 ELI     -0.072400
     16 C20         2.9540    0.3490    0.0410 c3        1 ELI     -0.079400
     17 C23         3.5970    1.2920   -0.9530 c3        1 ELI     -0.066400
     18 C26         5.0540    1.4880   -0.5920 c3        1 ELI     -0.195400
     19 C43         5.7550    2.2280   -1.7110 c         1 ELI      0.908600
     20 O44         5.6650    3.4820   -1.7890 o         1 ELI     -0.852300
     21 O45         6.4560    1.5940   -2.5430 o         1 ELI     -0.852300
     22 H1         -5.5980   -0.8780   -2.7430 ha        1 ELI      0.078000
     23 H2         -3.2280   -0.8700   -2.7780 ha        1 ELI      0.100500
     24 H5         -5.5460   -0.6670    1.3660 ha        1 ELI      0.097500
     25 H6         -6.7590   -0.7700   -0.6680 ha        1 ELI      0.078000
     26 H171       -0.1720   -1.5710    3.2040 hc        1 ELI      0.061033
     27 H172        0.0630    0.0090    3.1090 hc        1 ELI      0.061033
     28 H173       -1.2290   -0.5640    3.8610 hc        1 ELI      0.061033
     29 H181        1.0890   -1.6350   -0.0150 hc        1 ELI      0.062700
     30 H182        1.1710   -0.9390    1.4200 hc        1 ELI      0.062700
     31 H191        1.2290    0.4080   -1.0800 hc        1 ELI      0.042200
     32 H192        1.0930    1.1880    0.3080 hc        1 ELI      0.042200
     33 H201        3.1870    0.6250    0.9500 hc        1 ELI      0.029200
     34 H202        3.2770   -0.5610   -0.1160 hc        1 ELI      0.029200
     35 H231        3.1370    2.1540   -0.9300 hc        1 ELI      0.045200
     36 H232        3.5320    0.9120   -1.8520 hc        1 ELI      0.045200
     37 H261        5.1190    2.0080    0.2340 hc        1 ELI      0.019700
     38 H262        5.4780    0.6160   -0.4630 hc        1 ELI      0.019700
@<TRIPOS>BOND
     1    1    6 3   
     2    1   22 1   
     3    2    3 3   
     4    2   23 1   
     5    3    8 1   
     6    4    5 3   
     7    4    9 1   
     8    5   24 1   
     9    6   25 1   
    10    7    8 2   
    11    8   11 1   
    12    9   10 1   
    13    9   12 2   
    14   10   11 2   
    15   10   13 1   
    16   11   14 1   
    17   13   26 1   
    18   13   27 1   
    19   13   28 1   
    20   14   15 1   
    21   14   29 1   
    22   14   30 1   
    23   15   16 1   
    24   15   31 1   
    25   15   32 1   
    26   16   17 1   
    27   16   33 1   
    28   16   34 1   
    29   17   18 1   
    30   17   35 1   
    31   17   36 1   
    32   18   19 1   
    33   18   37 1   
    34   18   38 1   
    35   19   20 1   
    36   19   21 1   
@<TRIPOS>SUBSTRUCTURE
     1 ELI         1 TEMP              0 ****  ****    0 ROOT
