@<TRIPOS>MOLECULE
ELI
   38    39     1     0     0
SMALL
bcc


@<TRIPOS>ATOM
      1 C1         80.9240   13.9070   56.5760 ca        1 ELI     -0.122000
      2 C2         81.5150   14.6390   55.5450 ca        1 ELI     -0.087000
      3 C3         82.6250   15.4460   55.8070 ca        1 ELI     -0.127600
      4 C4         83.1510   15.5100   57.1080 ca        1 ELI     -0.130600
      5 C5         82.5620   14.7650   58.1330 ca        1 ELI     -0.088000
      6 C6         81.4470   13.9690   57.8660 ca        1 ELI     -0.124000
      7 C10        83.2520   16.2270   54.7160 c         1 ELI      0.571900
      8 C11        84.3240   16.3670   57.3920 c         1 ELI      0.573900
      9 C14        84.6310   17.4130   56.3860 cc        1 ELI     -0.136400
     10 C15        84.1180   17.3560   55.1370 cd        1 ELI     -0.119400
     11 O16        84.9960   16.2180   58.4220 o         1 ELI     -0.525100
     12 C17        85.5240   18.5080   56.8300 c3        1 ELI     -0.068900
     13 C18        84.3850   18.3960   54.1050 c3        1 ELI     -0.054200
     14 C19        83.4200   19.5640   54.2180 c3        1 ELI     -0.073400
     15 C20        83.7380   20.6310   53.1910 c3        1 ELI     -0.074400
     16 C23        82.9030   21.8790   53.4000 c3        1 ELI     -0.068400
     17 C26        83.4430   22.7700   54.4910 c3        1 ELI     -0.195400
     18 C43        82.4470   23.8900   54.8440 c         1 ELI      0.907600
     19 O44        81.2330   23.5830   55.0200 o         1 ELI     -0.851300
     20 O45        82.9010   25.0650   54.9600 o         1 ELI     -0.851300
     21 H1         80.0440   13.2810   56.3670 ha        1 ELI      0.135000
     22 H2         81.1160   14.5910   54.5190 ha        1 ELI      0.156000
     23 H5         82.9880   14.8160   59.1470 ha        1 ELI      0.154000
     24 H6         80.9810   13.3920   58.6790 ha        1 ELI      0.134000
     25 H171       85.8220   18.3780   57.9000 hc        1 ELI      0.062700
     26 H172       85.0100   19.4970   56.7180 hc        1 ELI      0.062700
     27 H173       86.4530   18.5270   56.2050 hc        1 ELI      0.062700
     28 H181       84.2970   17.9400   53.0810 hc        1 ELI      0.059200
     29 H182       85.4380   18.7730   54.2160 hc        1 ELI      0.059200
     30 H191       83.4750   20.0070   55.2470 hc        1 ELI      0.050700
     31 H192       82.3700   19.2010   54.0690 hc        1 ELI      0.050700
     32 H201       83.5500   20.2170   52.1650 hc        1 ELI      0.021700
     33 H202       84.8270   20.8960   53.2470 hc        1 ELI      0.021700
     34 H231       81.8450   21.6010   53.6550 hc        1 ELI      0.047200
     35 H232       82.8700   22.4570   52.4400 hc        1 ELI      0.047200
     36 H261       84.4160   23.2240   54.1780 hc        1 ELI      0.017700
     37 H262       83.6260   22.1750   55.4220 hc        1 ELI      0.017700
     38 O7         83.0630   15.9380   53.5280 o         1 ELI     -0.515100
@<TRIPOS>BOND
     1    1    2 ar  
     2    1    6 ar  
     3    1   21 1   
     4    2    3 ar  
     5    2   22 1   
     6    3    4 ar  
     7    3    7 1   
     8    4    5 ar  
     9    4    8 1   
    10    5    6 ar  
    11    5   23 1   
    12    6   24 1   
    13    7   10 1   
    14    7   38 2   
    15    8    9 1   
    16    8   11 2   
    17    9   10 2   
    18    9   12 1   
    19   10   13 1   
    20   12   25 1   
    21   12   26 1   
    22   12   27 1   
    23   13   14 1   
    24   13   28 1   
    25   13   29 1   
    26   14   15 1   
    27   14   30 1   
    28   14   31 1   
    29   15   16 1   
    30   15   32 1   
    31   15   33 1   
    32   16   17 1   
    33   16   34 1   
    34   16   35 1   
    35   17   18 1   
    36   17   36 1   
    37   17   37 1   
    38   18   19 1   
    39   18   20 1   
@<TRIPOS>SUBSTRUCTURE
     1 ELI         1 TEMP              0 ****  ****    0 ROOT
