@<TRIPOS>MOLECULE
ELP
   44    39     1     0     0
SMALL
bcc


@<TRIPOS>ATOM
      1 C3          1.7110   -0.8670   -1.2780 c1        1 ELP      0.017000
      2 C2          3.0750   -0.6360   -1.4040 c1        1 ELP     -0.125000
      3 N1          3.8400   -0.4340   -0.2920 n1        1 ELP     -0.164000
      4 C6          3.2670   -0.4590    0.9450 c1        1 ELP     -0.100000
      5 C4          1.1340   -0.8920   -0.0380 c1        1 ELP     -0.112000
      6 C4A        -0.3160   -1.3280    0.1130 c1        1 ELP     -0.141000
      7 N2         -1.2910   -0.4400   -0.0040 n1        1 ELP     -0.114000
      8 C          -0.9840    0.9250   -0.2700 c2        1 ELP     -0.344000
      9 CA1         0.0730    1.0020   -1.3470 c3        1 ELP     -0.141000
     10 CA2        -2.2340    1.6410   -0.7370 c2        1 ELP      0.118000
     11 P2         -0.3650    1.7140    1.2440 p5        1 ELP      1.402500
     12 O6         -0.7820    0.8970    2.4440 o         1 ELP     -0.800500
     13 O7         -0.9390    3.1070    1.3580 o         1 ELP     -0.800500
     14 O8          1.1410    1.7940    1.1890 o         1 ELP     -0.800500
     15 O1          0.9400   -1.1230   -2.4110 oh        1 ELP     -0.303000
     16 C2A         3.7360   -0.7540   -2.7620 c3        1 ELP     -0.127000
     17 C5          1.9030   -0.6890    1.0770 c2        1 ELP     -0.073000
     18 C5A         1.3140   -0.9170    2.4420 c3        1 ELP      0.084000
     19 O2          1.7450   -2.1650    2.9370 os        1 ELP     -0.729000
     20 P1          1.0210   -2.7620    4.2020 p5        1 ELP      1.550500
     21 O3          2.0190   -3.5240    5.0400 o         1 ELP     -0.928833
     22 O4          0.4310   -1.6400    5.0190 o         1 ELP     -0.928833
     23 O5         -0.0800   -3.6950    3.7580 o         1 ELP     -0.928833
     24 CB2        -2.6010    1.2200   -2.0080 c2        1 ELP     -0.266000
     25 CG2        -3.9380    1.1960   -2.3710 c1        1 ELP     -0.090000
     26 CD         -4.9110    1.5920   -1.4640 c1        1 ELP     -0.216000
     27 CG1        -4.5440    2.0130   -0.1940 c1        1 ELP     -0.216000
     28 CB1        -3.2060    2.0370    0.1690 c1        1 ELP     -0.220000
     29 HC6         3.8140   -0.3150    1.7350 ha        1 ELP      0.279000
     30 H4A        -0.5270   -2.2640    0.2960 ha        1 ELP      0.124000
     31 HA11        0.9060    0.6260   -1.0110 hc        1 ELP      0.048000
     32 HA12        0.2150    1.9390   -1.5970 hc        1 ELP      0.048000
     33 HA13       -0.2220    0.4950   -2.1320 hc        1 ELP      0.048000
     34 HO1         1.2150   -1.8760   -2.7930 ho        1 ELP      0.238000
     35 H2A1        3.4660   -1.5970   -3.1850 hc        1 ELP      0.055000
     36 H2A2        3.4600   -0.0030   -3.3260 hc        1 ELP      0.055000
     37 H2A3        4.7100   -0.7400   -2.6530 hc        1 ELP      0.055000
     38 H5A1        1.6090   -0.2050    3.0480 h1        1 ELP      0.063000
     39 H5A2        0.3370   -0.9100    2.3810 h1        1 ELP      0.063000
     40 HB2        -1.9180    0.9400   -2.6440 ha        1 ELP      0.099000
     41 HG2        -4.1960    0.9000   -3.2640 ha        1 ELP      0.063000
     42 HCD        -5.8520    1.5740   -1.7190 ha        1 ELP      0.068500
     43 HG1        -5.2270    2.2920    0.4430 ha        1 ELP      0.068500
     44 HB1        -2.9480    2.3330    1.0620 ha        1 ELP      0.123000
@<TRIPOS>BOND
     1    1    5 1   
     2    1   15 1   
     3    2    3 1   
     4    2   16 1   
     5    4   17 1   
     6    4   29 1   
     7    5   17 1   
     8    6    7 1   
     9    6   30 1   
    10    8    9 1   
    11    8   10 1   
    12    8   11 1   
    13    9   31 1   
    14    9   32 1   
    15    9   33 1   
    16   10   24 1   
    17   10   28 1   
    18   11   12 1   
    19   11   13 1   
    20   11   14 1   
    21   15   34 1   
    22   16   35 1   
    23   16   36 1   
    24   16   37 1   
    25   17   18 1   
    26   18   19 1   
    27   18   38 1   
    28   18   39 1   
    29   19   20 1   
    30   20   21 1   
    31   20   22 1   
    32   20   23 1   
    33   24   25 1   
    34   24   40 1   
    35   25   41 1   
    36   26   27 1   
    37   26   42 1   
    38   27   43 1   
    39   28   44 1   
@<TRIPOS>SUBSTRUCTURE
     1 ELP         1 TEMP              0 ****  ****    0 ROOT
