@<TRIPOS>MOLECULE
ELP
   44    46     1     0     0
SMALL
bcc


@<TRIPOS>ATOM
      1 C3          0.0000    0.0000    0.0000 c2        1 ELP     -0.022000
      2 C2          1.3870    0.0000    0.0000 c2        1 ELP     -0.208000
      3 N1          2.0610    0.0000    1.1320 n2        1 ELP     -0.113000
      4 C6          1.4620   -0.0060    2.3060 c2        1 ELP     -0.125000
      5 C4         -0.6780   -0.0130    1.2300 c3        1 ELP     -0.143000
      6 C4A        -2.1520   -0.0210    1.2840 c2        1 ELP     -0.281000
      7 N2         -2.8390   -0.0210    0.1890 n2        1 ELP      0.028000
      8 C          -4.3030   -0.0280    0.2420 c3        1 ELP     -0.338000
      9 CA1        -4.7920    1.2160    0.9850 c3        1 ELP     -0.076000
     10 CA2        -4.8570   -0.0270   -1.1590 ca        1 ELP      0.094000
     11 P2         -4.8710   -1.5210    1.1190 p5        1 ELP      0.790500
     12 O6         -4.2650   -1.5620    2.4690 o         1 ELP     -0.687500
     13 O7         -6.4760   -1.4870    1.2530 o         1 ELP     -0.687500
     14 O8         -4.4290   -2.8300    0.2920 o         1 ELP     -0.687500
     15 O1         -0.6900    0.0000   -1.1690 oh        1 ELP     -0.219000
     16 C2A         2.1320    0.0070   -1.3100 c3        1 ELP     -0.036000
     17 C5          0.0860   -0.0130    2.4030 c2        1 ELP     -0.006000
     18 C5A        -0.5850   -0.0200    3.7510 c3        1 ELP      0.103000
     19 O2          0.4080   -0.0180    4.7780 os        1 ELP     -0.648000
     20 P1         -0.3760   -0.0250    6.1840 p5        1 ELP      0.908500
     21 O3         -1.2190   -1.2360    6.2720 o         1 ELP     -0.769500
     22 O4          0.6890   -0.0220    7.3920 o         1 ELP     -0.769500
     23 O5         -1.3050    1.2850    6.2870 o         1 ELP     -0.769500
     24 CB2        -6.1360    0.4410   -1.3960 ca        1 ELP     -0.102000
     25 CG2        -6.6440    0.4420   -2.6820 ca        1 ELP     -0.147000
     26 CD         -5.8740   -0.0240   -3.7300 ca        1 ELP     -0.227000
     27 CG1        -4.5950   -0.4900   -3.4930 ca        1 ELP     -0.147000
     28 CB1        -4.0850   -0.4880   -2.2080 ca        1 ELP     -0.102000
     29 HC6         2.0590   -0.0050    3.2100 h4        1 ELP      0.152000
     30 H4A        -1.5430   -0.8920    1.0760 DU        1 ELP      0.275000
     31 HA11       -4.6360    2.0910    0.3660 hc        1 ELP      0.039000
     32 HA12       -5.8480    1.1140    1.2060 hc        1 ELP      0.039000
     33 HA13       -4.2390    1.3250    1.9100 hc        1 ELP      0.039000
     34 HO1        -0.5350    0.8110   -1.6250 ho        1 ELP      0.163000
     35 H2A1        1.7700   -0.7990   -1.9360 hc        1 ELP      0.018667
     36 H2A2        3.1910   -0.1270   -1.1240 hc        1 ELP      0.018667
     37 H2A3        1.9720    0.9540   -1.8120 hc        1 ELP      0.018667
     38 H5A1       -1.2070    0.8610    3.8490 h1        1 ELP      0.106500
     39 H5A2       -1.1990   -0.9080    3.8440 h1        1 ELP      0.106500
     40 HB2        -6.7490    0.7850   -0.5720 ha        1 ELP      0.125000
     41 HG2        -7.6460    0.8110   -2.8680 ha        1 ELP      0.054500
     42 HCD        -6.2750   -0.0290   -4.7360 ha        1 ELP      0.049000
     43 HG1        -3.9860   -0.8420   -4.3170 ha        1 ELP      0.054500
     44 HB1        -3.2950   -1.2260   -2.2740 ha        1 ELP      0.125000
@<TRIPOS>BOND
     1    1    2 1   
     2    1    5 1   
     3    1   15 1   
     4    2    3 1   
     5    2   16 1   
     6    3    4 1   
     7    4   17 1   
     8    4   29 1   
     9    5    6 1   
    10    5   17 1   
    11    5   30 1   
    12    6    7 1   
    13    6   30 1   
    14    7    8 1   
    15    8    9 1   
    16    8   10 1   
    17    8   11 1   
    18    9   31 1   
    19    9   32 1   
    20    9   33 1   
    21   10   24 1   
    22   10   28 1   
    23   11   12 1   
    24   11   13 1   
    25   11   14 1   
    26   15   34 1   
    27   16   35 1   
    28   16   36 1   
    29   16   37 1   
    30   17   18 1   
    31   18   19 1   
    32   18   38 1   
    33   18   39 1   
    34   19   20 1   
    35   20   21 1   
    36   20   22 1   
    37   20   23 1   
    38   24   25 1   
    39   24   40 1   
    40   25   26 1   
    41   25   41 1   
    42   26   27 1   
    43   26   42 1   
    44   27   28 1   
    45   27   43 1   
    46   28   44 1   
@<TRIPOS>SUBSTRUCTURE
     1 ELP         1 TEMP              0 ****  ****    0 ROOT
