@<TRIPOS>MOLECULE
ELP
   44    44     1     0     0
SMALL
bcc


@<TRIPOS>ATOM
      1 C3        183.2930  145.1440  195.3680 c2        1 ELP      0.040000
      2 C2        182.8710  145.5020  196.6750 c2        1 ELP     -0.135000
      3 N1        181.6480  145.1570  197.1500 n2        1 ELP     -0.168000
      4 C6        180.8450  144.4590  196.3390 c2        1 ELP     -0.100000
      5 C4        182.4380  144.4090  194.5100 c2        1 ELP     -0.077000
      6 C4A       182.8080  144.0280  193.1420 c2        1 ELP     -0.162000
      7 N2        184.0180  144.1430  192.6750 n2        1 ELP     -0.144000
      8 C         184.4170  143.8070  191.4000 c2        1 ELP     -0.310000
      9 CA1       183.4950  143.2330  190.3790 c3        1 ELP     -0.133000
     10 CA2       185.7640  144.0050  191.0190 ca        1 ELP      0.114000
     11 P2      -1827.5400-1439.3900-1940.7480 p3        1 ELP      2.361000
     12 O6      -1828.1870-1438.8640-1941.9630 o         1 ELP     -1.120000
     13 O7      -1827.2450-1440.8300-1940.6340 o         1 ELP     -1.120000
     14 O8      -1827.1870-1438.4760-1939.6470 o         1 ELP     -1.120000
     15 O1        184.5620  145.5710  195.0420 oh        1 ELP     -0.311000
     16 C2A       183.8130  146.2800  197.5310 c3        1 ELP     -0.125000
     17 C5        181.1720  144.0520  195.0200 c2        1 ELP     -0.052000
     18 C5A       180.1440  143.2530  194.2490 c3        1 ELP      0.081000
     19 O2        179.1340  142.7970  195.0550 os        1 ELP     -0.734000
     20 P1        177.5040  142.9170  194.4440 p5        1 ELP      1.550500
     21 O3        177.2450  141.5270  193.9280 o         1 ELP     -0.932833
     22 O4        176.7560  143.3070  195.6900 o         1 ELP     -0.932833
     23 O5        177.6220  143.9840  193.3860 o         1 ELP     -0.932833
     24 CB2       186.2150  143.6950  189.6980 ca        1 ELP     -0.237500
     25 CG2       187.5290  143.8870  189.3130 ca        1 ELP     -0.098000
     26 CD        188.4800  144.3930  190.2000 ca        1 ELP     -0.319000
     27 CG1       188.0670  144.7050  191.5030 ca        1 ELP     -0.098000
     28 CB1       186.7620  144.5210  191.9060 ca        1 ELP     -0.237500
     29 HC6       179.8460  144.1760  196.7360 h4        1 ELP      0.208000
     30 H4A       181.9520  143.6360  192.5560 h4        1 ELP      0.121000
     31 HA11      183.4140  143.9160  189.4940 hc        1 ELP      0.043333
     32 HA12      183.8790  142.2460  190.0140 hc        1 ELP      0.043333
     33 HA13      182.4620  143.0650  190.7690 hc        1 ELP      0.043333
     34 HO1       184.7690  145.2600  194.1420 ho        1 ELP      0.258000
     35 H2A1      184.7640  145.7040  197.6520 hc        1 ELP      0.055667
     36 H2A2      184.0600  147.2460  197.0260 hc        1 ELP      0.055667
     37 H2A3      183.3920  146.4980  198.5410 hc        1 ELP      0.055667
     38 H5A1      179.7290  143.9010  193.4180 h1        1 ELP      0.067500
     39 H5A2      180.7070  142.3780  193.7940 h1        1 ELP      0.067500
     40 HB2       185.5000  143.2980  188.9660 ha        1 ELP      0.111000
     41 HG2       187.8330  143.6350  188.2860 ha        1 ELP      0.068500
     42 HCD       189.5180  144.5420  189.8900 ha        1 ELP      0.073000
     43 HG1       188.8050  145.1040  192.2150 ha        1 ELP      0.068500
     44 HB1       186.4780  144.7740  192.9370 ha        1 ELP      0.111000
@<TRIPOS>BOND
     1    1    2 1   
     2    1    5 1   
     3    1   15 1   
     4    2    3 1   
     5    2   16 1   
     6    3    4 1   
     7    4   17 1   
     8    4   29 1   
     9    5    6 1   
    10    5   17 1   
    11    6    7 1   
    12    6   30 1   
    13    7    8 1   
    14    8    9 1   
    15    8   10 1   
    16    9   31 1   
    17    9   32 1   
    18    9   33 1   
    19   10   24 1   
    20   10   28 1   
    21   11   12 1   
    22   11   13 1   
    23   11   14 1   
    24   15   34 1   
    25   16   35 1   
    26   16   36 1   
    27   16   37 1   
    28   17   18 1   
    29   18   19 1   
    30   18   38 1   
    31   18   39 1   
    32   19   20 1   
    33   20   21 1   
    34   20   22 1   
    35   20   23 1   
    36   24   25 1   
    37   24   40 1   
    38   25   26 1   
    39   25   41 1   
    40   26   27 1   
    41   26   42 1   
    42   27   28 1   
    43   27   43 1   
    44   28   44 1   
@<TRIPOS>SUBSTRUCTURE
     1 ELP         1 TEMP              0 ****  ****    0 ROOT
