@<TRIPOS>MOLECULE
ELP
   44    44     1     0     0
SMALL
bcc


@<TRIPOS>ATOM
      1 C3        137.9470  113.3480   22.8630 c2        1 ELP     -0.352000
      2 C2        138.3720  113.2350   21.5260 c2        1 ELP      0.029000
      3 N1        138.9360  114.2430   20.8420 n2        1 ELP     -0.315000
      4 C6        139.1030  115.4270   21.5240 c2        1 ELP     -0.040000
      5 C4        137.9640  114.6380   23.5580 c3        1 ELP      0.168000
      6 C4A       136.5130  115.0700   23.7660 c1        1 ELP      0.085000
      7 N2        135.3650  115.2780   23.8380 n2        1 ELP     -0.029000
      8 C         134.0350  115.5660   23.9640 c2        1 ELP     -0.298000
      9 CA1       133.6350  116.9990   23.9170 c3        1 ELP     -0.106000
     10 CA2       133.0690  114.5550   24.1380 ca        1 ELP      0.116000
     11 P2      -1386.6050-1149.6750 -226.5750 p3        1 ELP      2.361000
     12 O6      -1385.7360-1149.5230 -225.3940 o         1 ELP     -1.120000
     13 O7      -1387.8930-1148.9620 -226.6390 o         1 ELP     -1.120000
     14 O8      -1386.1850-1150.5400 -227.6920 o         1 ELP     -1.120000
     15 O1        137.5170  112.2370   23.5700 oh        1 ELP     -0.278000
     16 C2A       138.1930  111.9010   20.8620 c3        1 ELP     -0.142000
     17 C5        138.6950  115.6850   22.8070 c2        1 ELP     -0.242000
     18 C5A       138.9440  116.9880   23.5160 c3        1 ELP      0.112000
     19 O2        139.5910  117.9160   22.7400 os        1 ELP     -0.729000
     20 P1        140.5950  119.0420   23.6050 p5        1 ELP      1.552500
     21 O3        141.2110  118.1990   24.6950 o         1 ELP     -0.940167
     22 O4        141.5390  119.5130   22.5290 o         1 ELP     -0.940167
     23 O5        139.6000  120.0640   24.0900 o         1 ELP     -0.940167
     24 CB2       131.6910  114.8920   24.2870 ca        1 ELP     -0.240500
     25 CG2       130.7260  113.9180   24.4630 ca        1 ELP     -0.089000
     26 CD        131.0630  112.5640   24.5020 ca        1 ELP     -0.297000
     27 CG1       132.4080  112.2080   24.3560 ca        1 ELP     -0.089000
     28 CB1       133.3880  113.1650   24.1790 ca        1 ELP     -0.240500
     29 HC6       139.6460  116.2190   20.9710 h4        1 ELP      0.167000
     30 H4A       138.3220  114.5580   24.6270 hc        1 ELP      0.089000
     31 HA11      134.5050  117.6840   23.7650 hc        1 ELP      0.055000
     32 HA12      132.9110  117.1670   23.0790 hc        1 ELP      0.055000
     33 HA13      133.1300  117.2880   24.8740 hc        1 ELP      0.055000
     34 HO1       136.5590  112.1920   23.4210 ho        1 ELP      0.137000
     35 H2A1      138.8070  111.8000   19.9360 hc        1 ELP      0.050000
     36 H2A2      137.1170  111.7670   20.5910 hc        1 ELP      0.050000
     37 H2A3      138.4790  111.0910   21.5760 hc        1 ELP      0.050000
     38 H5A1      139.5340  116.7890   24.4610 h1        1 ELP      0.033000
     39 H5A2      137.9110  117.3620   23.8200 h1        1 ELP      0.033000
     40 HB2       131.3940  115.9490   24.2600 ha        1 ELP      0.113500
     41 HG2       129.6720  114.2140   24.5760 ha        1 ELP      0.080000
     42 HCD       130.2940  111.7980   24.6430 ha        1 ELP      0.082000
     43 HG1       132.6880  111.1440   24.3820 ha        1 ELP      0.080000
     44 HB1       134.4340  112.8460   24.0640 ha        1 ELP      0.113500
@<TRIPOS>BOND
     1    1    2 1   
     2    1    5 1   
     3    1   15 1   
     4    2    3 1   
     5    2   16 1   
     6    3    4 1   
     7    4   17 1   
     8    4   29 1   
     9    5    6 1   
    10    5   17 1   
    11    5   30 1   
    12    6    7 1   
    13    7    8 1   
    14    8    9 1   
    15    8   10 1   
    16    9   31 1   
    17    9   32 1   
    18    9   33 1   
    19   10   24 1   
    20   10   28 1   
    21   11   12 1   
    22   11   13 1   
    23   11   14 1   
    24   15   34 1   
    25   16   35 1   
    26   16   36 1   
    27   16   37 1   
    28   17   18 1   
    29   18   19 1   
    30   18   38 1   
    31   18   39 1   
    32   19   20 1   
    33   20   21 1   
    34   20   22 1   
    35   20   23 1   
    36   24   25 1   
    37   24   40 1   
    38   25   26 1   
    39   25   41 1   
    40   26   27 1   
    41   26   42 1   
    42   27   28 1   
    43   27   43 1   
    44   28   44 1   
@<TRIPOS>SUBSTRUCTURE
     1 ELP         1 TEMP              0 ****  ****    0 ROOT
