@<TRIPOS>MOLECULE
ELV
   53    55     1     0     0
SMALL
bcc


@<TRIPOS>ATOM
      1 CAA         2.0260    1.7720   -2.7520 c3        1 ELV     -0.081000
      2 CAC        -0.1270   -2.7890    6.3620 c3        1 ELV     -0.208000
      3 OAD         4.8980   -0.1200    7.4680 o         1 ELV     -0.563500
      4 OAE         4.4400   -0.9220    4.7550 oh        1 ELV     -0.348000
      5 OAF        -1.2750    1.3390    6.6460 oh        1 ELV     -0.339000
      6 OAG         3.1480    0.8350    8.4850 o         1 ELV     -0.563500
      7 CAJ         6.3300    0.7570    2.9850 c2        1 ELV     -0.084000
      8 CAK         5.6300    1.3110    3.9470 c1        1 ELV     -0.165000
      9 CAL         5.6540    0.1440    1.8560 c2        1 ELV     -0.091000
     10 CAM         3.2720    0.8440    2.3820 c3        1 ELV     -0.090000
     11 CAN         0.4500    0.2660    2.7690 c2        1 ELV     -0.580000
     12 CAO         1.6180   -0.0760    6.2220 c2        1 ELV     -0.063000
     13 CAP        -1.3620    0.7610    5.3620 c3        1 ELV     -0.047000
     14 CAQ         3.8010   -0.9890    0.7030 c3        1 ELV     -0.016000
     15 OAR         1.7210    0.4210   -2.3490 os        1 ELV     -0.116000
     16 CAS         3.7190    0.3410    7.4750 c2        1 ELV      0.373000
     17 CAT         4.5890    1.4880    4.7230 c2        1 ELV     -0.016000
     18 CAU         2.2510    1.2260    1.3620 c1        1 ELV      0.130000
     19 CAV         4.3210    0.0250    1.6760 c2        1 ELV     -0.085000
     20 CAW         3.0320   -0.4080   -0.3590 c1        1 ELV     -0.187000
     21 CAX         2.4520    0.0050   -1.3230 c1        1 ELV     -0.057000
     22 CAY         2.9290    0.2310    6.1810 c2        1 ELV     -0.215000
     23 CAZ         3.6600    0.2670    4.8740 c3        1 ELV      0.283000
     24 CBA         2.7230    0.3440    3.6830 c2        1 ELV     -0.362000
     25 CBB         1.3710    0.0690    3.8420 c2        1 ELV      0.214000
     26 CBC        -0.9590   -1.5240    6.3800 c3        1 ELV     -0.107000
     27 CBD        -0.5780   -0.5670    5.2250 c3        1 ELV      0.002000
     28 NBE         0.8550   -0.3690    5.0750 n3        1 ELV     -0.204000
     29 HAA         3.0810    1.8340   -3.1100 h1        1 ELV      0.090333
     30 HAAA        1.8540    2.4760   -1.9040 h1        1 ELV      0.090333
     31 HAAB        1.3040    1.9530   -3.5850 h1        1 ELV      0.090333
     32 HAB        -2.6830   -2.6590    7.0400 hc        1 ELV      0.073833
     33 HABA       -2.6800   -2.2780    5.2700 hc        1 ELV      0.073833
     34 HABB       -3.0670   -0.9820    6.4830 hc        1 ELV      0.073833
     35 HAC        -0.5210   -3.5170    7.1130 hc        1 ELV      0.073833
     36 HACA        0.9390   -2.5680    6.6150 hc        1 ELV      0.073833
     37 HACB       -0.1600   -3.2650    5.3530 hc        1 ELV      0.073833
     38 HOAF       -0.3380    1.4870    6.8380 ho        1 ELV      0.223000
     39 HAJ         7.4150    0.5870    3.0660 ha        1 ELV      0.134000
     40 HAK         4.9150   -1.0200    5.6010 ho        1 ELV      0.249000
     41 HAL         6.3310   -0.4190    1.1870 ha        1 ELV      0.114000
     42 HAM         3.7530    1.8680    2.5780 hc        1 ELV      0.144000
     43 HAN        -0.5800   -0.0210    2.6070 h4        1 ELV      0.195000
     44 HAO         1.0920   -0.1590    7.1910 h4        1 ELV      0.164000
     45 HAP        -1.0090    1.4920    4.5840 h1        1 ELV      0.084500
     46 HAPA       -2.4580    0.5670    5.2110 h1        1 ELV      0.084500
     47 HAQ         3.1550   -1.7160    1.2780 hc        1 ELV      0.114500
     48 HAQA        4.6520   -1.5810    0.2600 hc        1 ELV      0.114500
     49 HBC        -0.7950   -0.9870    7.3570 hc        1 ELV      0.111000
     50 HBD        -0.9410   -1.0680    4.2760 h1        1 ELV      0.095000
     51 CLAI        4.1040    2.9900    5.3240 cl        1 ELV      0.002000
     52 CAB        -2.4310   -1.8780    6.2820 c3        1 ELV     -0.208000
     53 FAH         0.9690    0.8960    1.6370 f         1 ELV      0.251000
@<TRIPOS>BOND
     1    1   15 1   
     2    1   29 1   
     3    1   30 1   
     4    1   31 1   
     5    2   26 1   
     6    2   35 1   
     7    2   36 1   
     8    2   37 1   
     9    3   16 1   
    10    4   23 1   
    11    4   40 1   
    12    5   13 1   
    13    5   38 1   
    14    6   16 1   
    15    7    8 1   
    16    7    9 1   
    17    7   39 1   
    18    8   17 1   
    19    9   19 1   
    20    9   41 1   
    21   10   18 1   
    22   10   19 1   
    23   10   24 1   
    24   10   42 1   
    25   11   25 1   
    26   11   43 1   
    27   11   53 1   
    28   12   22 1   
    29   12   28 1   
    30   12   44 1   
    31   13   27 1   
    32   13   45 1   
    33   13   46 1   
    34   14   19 1   
    35   14   20 1   
    36   14   47 1   
    37   14   48 1   
    38   15   21 1   
    39   16   22 1   
    40   17   23 1   
    41   17   51 1   
    42   18   53 1   
    43   20   21 1   
    44   22   23 1   
    45   23   24 1   
    46   24   25 1   
    47   25   28 1   
    48   26   27 1   
    49   26   49 1   
    50   26   52 1   
    51   27   28 1   
    52   27   50 1   
    53   32   52 1   
    54   33   52 1   
    55   34   52 1   
@<TRIPOS>SUBSTRUCTURE
     1 ELV         1 TEMP              0 ****  ****    0 ROOT
