@<TRIPOS>MOLECULE
ELV
   53    55     1     0     0
SMALL
bcc


@<TRIPOS>ATOM
      1 CAA         1.4860    3.1690   -1.7000 c3        1 ELV      0.115700
      2 CAC        -3.8000    2.8190   -1.6770 c3        1 ELV     -0.089100
      3 OAD        -4.4630   -3.7630   -0.6060 o         1 ELV     -0.815800
      4 OAE        -1.3870   -3.3400    0.0580 o         1 ELV     -0.552100
      5 OAF        -4.5940    1.2480    2.2500 oh        1 ELV     -0.612800
      6 OAG        -5.2050   -2.4700    1.0690 o         1 ELV     -0.815800
      7 CAJ         4.1780   -1.6430    1.7230 ca        1 ELV     -0.134000
      8 CAK         5.5150   -1.2960    1.5510 ca        1 ELV     -0.118000
      9 CAL         3.2710   -1.4880    0.6770 ca        1 ELV     -0.097000
     10 CAM         0.4030   -1.4290   -0.9300 ca        1 ELV     -0.026000
     11 CAN        -0.3670    1.2530   -0.8870 ca        1 ELV     -0.282000
     12 CAO        -3.5400   -0.4690   -0.0220 cc        1 ELV      0.033000
     13 CAP        -3.2690    1.6520    2.0010 c3        1 ELV      0.118400
     14 CAQ         2.7160   -0.8410   -1.6930 c3        1 ELV      0.025200
     15 OAR         1.8880    1.8070   -1.6440 os        1 ELV     -0.330900
     16 CAS        -4.3780   -2.7740    0.1610 c         1 ELV      0.931800
     17 CAT         5.9510   -0.7910    0.3240 ca        1 ELV     -0.024600
     18 CAU         5.0370   -0.6330   -0.7410 ca        1 ELV      0.124900
     19 CAV         3.6770   -0.9840   -0.5600 ca        1 ELV     -0.079300
     20 CAW         1.3400   -0.4610   -1.2780 ca        1 ELV     -0.175300
     21 CAX         0.9240    0.8910   -1.2590 ca        1 ELV      0.171100
     22 CAY        -3.2220   -1.7860   -0.0230 cd        1 ELV     -0.256400
     23 CAZ        -1.8280   -2.2010   -0.1520 c         1 ELV      0.598900
     24 CBA        -0.8980   -1.1040   -0.5370 ca        1 ELV     -0.244600
     25 CBB        -1.3060    0.2590   -0.5030 ca        1 ELV      0.231600
     26 CBC        -4.0930    2.6080   -0.2070 c3        1 ELV     -0.069700
     27 CBD        -2.9470    1.8410    0.4930 c3        1 ELV      0.196500
     28 NBE        -2.6230    0.5820   -0.1680 na        1 ELV     -0.531800
     29 HAA         0.6530    3.3080   -2.4320 h1        1 ELV      0.039700
     30 HAAA        1.1830    3.5340   -0.6890 h1        1 ELV      0.039700
     31 HAAB        2.4080    3.6980   -2.0490 h1        1 ELV      0.039700
     32 HAB        -5.0390    4.5570   -0.1080 hc        1 ELV      0.033367
     33 HABA       -4.7290    3.7900    1.5020 hc        1 ELV      0.033367
     34 HABB       -3.3550    4.5130    0.5580 hc        1 ELV      0.033367
     35 HAC        -3.8130    1.8490   -2.2290 hc        1 ELV      0.033367
     36 HACA       -4.5700    3.4890   -2.1300 hc        1 ELV      0.033367
     37 HACB       -2.7960    3.2910   -1.8130 hc        1 ELV      0.033367
     38 HOAF       -4.6610    0.2970    2.0690 ho        1 ELV      0.442000
     39 HAJ         3.8360   -2.0430    2.6890 ha        1 ELV      0.141000
     40 HAK         6.2300   -1.4180    2.3780 ha        1 ELV      0.142000
     41 HAL         2.2120   -1.7640    0.8210 ha        1 ELV      0.164000
     42 HAM         0.6800   -2.4980   -0.9540 ha        1 ELV      0.157000
     43 HAN        -0.6710    2.3080   -0.9260 ha        1 ELV      0.134000
     44 HAO        -4.5960   -0.1480    0.0820 h4        1 ELV      0.171000
     45 HAP        -3.1750    2.6520    2.5050 h1        1 ELV      0.045200
     46 HAPA       -2.5390    0.9370    2.4650 h1        1 ELV      0.045200
     47 HAQ         3.1070   -0.0730   -2.4170 hc        1 ELV      0.067200
     48 HAQA        2.6800   -1.8270   -2.2390 hc        1 ELV      0.067200
     49 HBC        -5.0370    2.0010   -0.1020 hc        1 ELV      0.077700
     50 HBD        -2.0320    2.5040    0.4620 h1        1 ELV      0.053700
     51 CLAI        7.5930   -0.3760    0.1460 cl        1 ELV     -0.096400
     52 CAB        -4.3120    3.9430    0.4770 c3        1 ELV     -0.089100
     53 FAH         5.4530   -0.1490   -1.9360 f         1 ELV     -0.132900
@<TRIPOS>BOND
     1    1   15 1   
     2    1   29 1   
     3    1   30 1   
     4    1   31 1   
     5    2   26 1   
     6    2   35 1   
     7    2   36 1   
     8    2   37 1   
     9    3   16 1   
    10    4   23 2   
    11    5   13 1   
    12    5   38 1   
    13    6   16 1   
    14    7    8 ar  
    15    7    9 ar  
    16    7   39 1   
    17    8   17 ar  
    18    8   40 1   
    19    9   19 ar  
    20    9   41 1   
    21   10   20 ar  
    22   10   24 ar  
    23   10   42 1   
    24   11   21 ar  
    25   11   25 ar  
    26   11   43 1   
    27   12   22 2   
    28   12   28 1   
    29   12   44 1   
    30   13   27 1   
    31   13   45 1   
    32   13   46 1   
    33   14   19 1   
    34   14   20 1   
    35   14   47 1   
    36   14   48 1   
    37   15   21 1   
    38   16   22 1   
    39   17   18 ar  
    40   17   51 1   
    41   18   19 ar  
    42   18   53 1   
    43   20   21 ar  
    44   22   23 1   
    45   23   24 1   
    46   24   25 ar  
    47   25   28 1   
    48   26   27 1   
    49   26   49 1   
    50   26   52 1   
    51   27   28 1   
    52   27   50 1   
    53   32   52 1   
    54   33   52 1   
    55   34   52 1   
@<TRIPOS>SUBSTRUCTURE
     1 ELV         1 TEMP              0 ****  ****    0 ROOT
