@<TRIPOS>MOLECULE
ELV
   53    50     1     0     0
SMALL
bcc


@<TRIPOS>ATOM
      1 CAA        -2.4490    1.3050   -2.8380 c3        1 ELV     -0.073000
      2 CAB        -3.5390   -3.7790    1.7930 c3        1 ELV     -0.213000
      3 CAC        -1.7390   -4.2630    0.1260 c3        1 ELV     -0.213000
      4 OAD         3.3590   -3.9430    2.4760 o         1 ELV     -0.552500
      5 OAE         3.5820   -0.8650    0.7820 o         1 ELV     -0.316000
      6 OAF        -3.6000   -0.6320    2.1090 oh        1 ELV     -0.342000
      7 OAG         3.1980   -2.2870    3.8530 o         1 ELV     -0.552500
      8 FAH         0.2350    4.6180   -2.6960 f         1 ELV     -0.099000
      9 CLAI        1.0190    7.3370   -1.6380 cl        1 ELV     -0.020000
     10 CAJ         3.8550    4.6270   -0.7500 c1        1 ELV     -0.114500
     11 CAK         3.1490    5.8240   -0.9090 c1        1 ELV     -0.119000
     12 CAL         3.3600    3.4570   -1.2780 c1        1 ELV     -0.114500
     13 CAM         1.8150    0.6730   -0.8330 c1        1 ELV     -0.025000
     14 CAN        -0.8850   -0.0580   -0.7210 c1        1 ELV     -0.293000
     15 CAO         0.4730   -2.3930    1.9940 c1        1 ELV     -0.031000
     16 CAP        -2.4280   -1.2510    2.4760 c3        1 ELV     -0.048000
     17 CAQ         1.6810    2.1920   -2.6680 c3        1 ELV     -0.067000
     18 OAR        -1.0090    1.4130   -2.8060 os        1 ELV     -0.216000
     19 CAS         2.9090   -2.7640    2.8010 c2        1 ELV      0.381000
     20 CAT         1.9900    5.8360   -1.5760 c2        1 ELV     -0.104000
     21 CAU         1.4760    4.6320   -2.1220 c2        1 ELV      0.088000
     22 CAV         2.1680    3.4630   -1.9660 c1        1 ELV     -0.072000
     23 CAW         0.8980    1.3100   -1.6680 c1        1 ELV     -0.175000
     24 CAX        -0.4410    0.9590   -1.6240 c1        1 ELV      0.129000
     25 CAY         1.9200   -2.0650    1.9060 c2        1 ELV     -0.221000
     26 CAZ         2.3780   -1.0620    0.9410 c2        1 ELV      0.323000
     27 CBA         1.3760   -0.3410    0.0690 c2        1 ELV     -0.224000
     28 CBB         0.0290   -0.6950    0.1140 c2        1 ELV      0.154000
     29 CBC        -2.0820   -3.5230    1.4440 c3        1 ELV     -0.107000
     30 CBD        -1.8580   -2.0020    1.2630 c3        1 ELV      0.035000
     31 NBE        -0.4630   -1.7350    1.1360 n2        1 ELV     -0.212000
     32 HAA        -2.8130    1.8120   -3.6660 h1        1 ELV      0.079667
     33 HAAA       -2.8260    1.7000   -2.0200 h1        1 ELV      0.079667
     34 HAAB       -2.7140    0.3350   -2.8920 h1        1 ELV      0.079667
     35 HAB        -4.0900   -3.3000    1.1980 hc        1 ELV      0.079333
     36 HABA       -3.7180   -3.4750    2.7240 hc        1 ELV      0.079333
     37 HABB       -3.7470   -4.8170    1.7130 hc        1 ELV      0.079333
     38 HAC        -0.7380   -4.0750   -0.1370 hc        1 ELV      0.079333
     39 HACA       -2.3320   -3.9430   -0.5900 hc        1 ELV      0.079333
     40 HACB       -1.8740   -5.2650    0.2550 hc        1 ELV      0.079333
     41 HOAF       -3.9840   -0.2350    2.8500 ho        1 ELV      0.195000
     42 HAJ         4.6610    4.6220   -0.2860 ha        1 ELV      0.154000
     43 HAK         3.4160    6.5990   -0.4080 ha        1 ELV      0.141000
     44 HAL         3.8630    2.6110   -1.1620 ha        1 ELV      0.154000
     45 HAM         2.7350    0.8790   -0.8990 ha        1 ELV      0.157000
     46 HAN        -1.8560   -0.3690   -0.7420 ha        1 ELV      0.147000
     47 HAO         0.1720   -3.1400    2.5710 ha        1 ELV      0.169000
     48 HAP        -1.7690   -0.5630    2.7900 h1        1 ELV      0.078000
     49 HAPA       -2.6040   -1.8670    3.1780 h1        1 ELV      0.078000
     50 HAQ         1.1360    2.4180   -3.3580 hc        1 ELV      0.105500
     51 HAQA        2.4750    1.6790   -3.0190 hc        1 ELV      0.105500
     52 HBC        -1.4930   -3.8680    2.1840 hc        1 ELV      0.099000
     53 HBD        -2.2770   -1.7240    0.5250 h1        1 ELV      0.117000
@<TRIPOS>BOND
     1    1   18 1   
     2    1   32 1   
     3    1   33 1   
     4    1   34 1   
     5    2   29 1   
     6    2   35 1   
     7    2   36 1   
     8    2   37 1   
     9    3   29 1   
    10    3   38 1   
    11    3   39 1   
    12    3   40 1   
    13    4   19 1   
    14    5   26 1   
    15    6   16 1   
    16    6   41 1   
    17    7   19 1   
    18    8   21 1   
    19    9   20 1   
    20   10   12 1   
    21   10   42 1   
    22   11   20 1   
    23   11   43 1   
    24   12   44 1   
    25   13   27 1   
    26   13   45 1   
    27   14   28 1   
    28   14   46 1   
    29   15   25 1   
    30   15   47 1   
    31   16   30 1   
    32   16   48 1   
    33   16   49 1   
    34   17   22 1   
    35   17   23 1   
    36   17   50 1   
    37   17   51 1   
    38   18   24 1   
    39   19   25 1   
    40   20   21 1   
    41   21   22 1   
    42   23   24 1   
    43   25   26 1   
    44   26   27 1   
    45   27   28 1   
    46   28   31 1   
    47   29   30 1   
    48   29   52 1   
    49   30   31 1   
    50   30   53 1   
@<TRIPOS>SUBSTRUCTURE
     1 ELV         1 TEMP              0 ****  ****    0 ROOT
