@<TRIPOS>MOLECULE
ELY
   35    34     1     0     0
SMALL
bcc


@<TRIPOS>ATOM
      1 C          -4.1980   -0.3540    0.1010 c         1 ELY      0.887600
      2 N          -3.1450    1.9540   -0.0680 n3        1 ELY     -0.892800
      3 O          -5.1870    0.2200    0.6420 o         1 ELY     -0.845300
      4 CA         -2.9870    0.5310   -0.3490 c3        1 ELY      0.018500
      5 CB         -1.7110   -0.0670    0.2450 c3        1 ELY     -0.063400
      6 CD          0.7830   -0.1770    0.1540 c3        1 ELY     -0.080400
      7 CE          2.0200    0.3580   -0.5660 c3        1 ELY      0.169800
      8 CG         -0.4600    0.4980   -0.3900 c3        1 ELY     -0.077400
      9 NZ          3.2870   -0.1370   -0.0360 n3        1 ELY     -0.739600
     10 CH1         3.5350   -1.5300   -0.3800 c3        1 ELY      0.173300
     11 CH2         4.4080    0.7290   -0.3760 c3        1 ELY      0.173300
     12 CT1         4.4820   -2.2420    0.5740 c3        1 ELY     -0.091600
     13 CT2         4.4700    2.0060    0.4490 c3        1 ELY     -0.091600
     14 OXT        -4.1270   -1.5940   -0.1210 o         1 ELY     -0.845300
     15 H          -4.1040    2.1900   -0.2660 hn        1 ELY      0.329800
     16 H2         -3.0210    2.0980    0.9190 hn        1 ELY      0.329800
     17 HA         -2.9300    0.4360   -1.4730 h1        1 ELY      0.039700
     18 HB         -1.6830    0.1050    1.3520 hc        1 ELY      0.046700
     19 HBA        -1.7600   -1.1770    0.0780 hc        1 ELY      0.046700
     20 HD          0.6940   -1.2860    0.0130 hc        1 ELY      0.042200
     21 HDA         0.8670    0.0130    1.2550 hc        1 ELY      0.042200
     22 HE          1.9240    0.1260   -1.6680 h1        1 ELY      0.027200
     23 HEA         2.0170    1.4810   -0.4630 h1        1 ELY      0.027200
     24 HG         -0.5100    0.3550   -1.5020 hc        1 ELY      0.035200
     25 HGA        -0.4020    1.6020   -0.2020 hc        1 ELY      0.035200
     26 HH1         2.5490   -2.0780   -0.3590 h1        1 ELY      0.025200
     27 HH1A        3.9450   -1.6280   -1.4300 h1        1 ELY      0.025200
     28 HH2         5.3630    0.1580   -0.1970 h1        1 ELY      0.025200
     29 HH2A        4.3930    1.0120   -1.4710 h1        1 ELY      0.025200
     30 HT1         4.5240   -3.3230    0.2960 hc        1 ELY      0.033367
     31 HT1A        5.5150   -1.8240    0.5190 hc        1 ELY      0.033367
     32 HT1B        4.1240   -2.1580    1.6280 hc        1 ELY      0.033367
     33 HT2         3.6060    2.6780    0.2290 hc        1 ELY      0.033367
     34 HT2A        4.4660    1.7780    1.5420 hc        1 ELY      0.033367
     35 HT2B        5.4130    2.5490    0.1990 hc        1 ELY      0.033367
@<TRIPOS>BOND
     1    1    3 1   
     2    1    4 1   
     3    1   14 1   
     4    2    4 1   
     5    2   15 1   
     6    2   16 1   
     7    4    5 1   
     8    4   17 1   
     9    5    8 1   
    10    5   18 1   
    11    5   19 1   
    12    6    7 1   
    13    6    8 1   
    14    6   20 1   
    15    6   21 1   
    16    7    9 1   
    17    7   22 1   
    18    7   23 1   
    19    8   24 1   
    20    8   25 1   
    21    9   10 1   
    22    9   11 1   
    23   10   12 1   
    24   10   26 1   
    25   10   27 1   
    26   11   13 1   
    27   11   28 1   
    28   11   29 1   
    29   12   30 1   
    30   12   31 1   
    31   12   32 1   
    32   13   33 1   
    33   13   34 1   
    34   13   35 1   
@<TRIPOS>SUBSTRUCTURE
     1 ELY         1 TEMP              0 ****  ****    0 ROOT
