@<TRIPOS>MOLECULE
EM6
   25    26     1     0     0
SMALL
bcc


@<TRIPOS>ATOM
      1 C01        -0.0710   -0.0420    0.0300 c3        1 EM6     -0.091100
      2 C02         1.4390    0.0300    0.0250 c3        1 EM6     -0.024200
      3 C03         2.0080   -0.0050    1.3970 cc        1 EM6     -0.247400
      4 C04         2.3550   -1.1760    2.0460 cd        1 EM6      0.197400
      5 C05         2.1800   -2.4950    1.3630 c3        1 EM6     -0.056900
      6 N06         2.8750   -1.2090    3.3380 nd        1 EM6     -0.315600
      7 C07         3.0380   -0.0460    3.9390 cc        1 EM6      0.130700
      8 C08         3.5060    0.2690    5.3140 cc        1 EM6     -0.085000
      9 C09         3.9110   -0.6850    6.2540 cg        1 EM6      0.263800
     10 N10         4.2490   -1.4820    7.0320 n1        1 EM6     -0.337800
     11 C11         3.4340    1.6430    5.4490 cd        1 EM6     -0.035300
     12 N12         2.8530    2.2340    4.2910 na        1 EM6     -0.127400
     13 N13         2.7620    1.2300    3.3430 n         1 EM6     -0.179500
     14 C14         2.1740    1.3050    2.0440 c         1 EM6      0.614500
     15 O15         1.9070    2.4140    1.5580 o         1 EM6     -0.611500
     16 H01        -0.4990    0.8270    0.5850 hc        1 EM6      0.039033
     17 H01A       -0.4550   -0.0190   -1.0190 hc        1 EM6      0.039033
     18 H01B       -0.4240   -0.9830    0.5170 hc        1 EM6      0.039033
     19 H02         1.7580    0.9840   -0.4810 hc        1 EM6      0.057700
     20 H02A        1.8570   -0.8220   -0.5760 hc        1 EM6      0.057700
     21 H05         2.3360   -3.3570    2.0580 hc        1 EM6      0.063367
     22 H05A        2.9200   -2.5750    0.5270 hc        1 EM6      0.063367
     23 H05B        1.1480   -2.5600    0.9380 hc        1 EM6      0.063367
     24 H11         3.6730    2.2740    6.3120 h4        1 EM6      0.198000
     25 HN12        3.2980    3.0630    3.9250 hn        1 EM6      0.287700
@<TRIPOS>BOND
     1    1    2 1   
     2    1   16 1   
     3    1   17 1   
     4    1   18 1   
     5    2    3 1   
     6    2   19 1   
     7    2   20 1   
     8    3    4 2   
     9    3   14 1   
    10    4    5 1   
    11    4    6 1   
    12    5   21 1   
    13    5   22 1   
    14    5   23 1   
    15    6    7 2   
    16    7    8 1   
    17    7   13 1   
    18    8    9 1   
    19    8   11 2   
    20    9   10 3   
    21   11   12 1   
    22   11   24 1   
    23   12   13 1   
    24   12   25 1   
    25   13   14 1   
    26   14   15 2   
@<TRIPOS>SUBSTRUCTURE
     1 EM6         1 TEMP              0 ****  ****    0 ROOT
