@<TRIPOS>MOLECULE
EM6
   25    26     1     0     0
SMALL
bcc


@<TRIPOS>ATOM
      1 C01        -0.0250   -0.1020   -0.0260 c3        1 EM6     -0.091100
      2 C02         1.4750    0.0790    0.0100 c3        1 EM6     -0.024200
      3 C03         2.0170    0.0110    1.3920 cc        1 EM6     -0.247400
      4 C04         2.4350   -1.1660    1.9870 cd        1 EM6      0.197400
      5 C05         2.3720   -2.4550    1.2310 c3        1 EM6     -0.056900
      6 N06         2.9290   -1.2320    3.2880 nd        1 EM6     -0.315600
      7 C07         2.9930   -0.0950    3.9530 cc        1 EM6      0.130700
      8 C08         3.4080    0.1780    5.3540 cc        1 EM6     -0.085000
      9 C09         3.8620   -0.7940    6.2530 cg        1 EM6      0.263800
     10 N10         4.2420   -1.6050    6.9950 n1        1 EM6     -0.337800
     11 C11         3.2330    1.5340    5.5600 cd        1 EM6     -0.035300
     12 N12         2.6340    2.1440    4.4200 na        1 EM6     -0.127400
     13 N13         2.6370    1.1890    3.4180 n         1 EM6     -0.179500
     14 C14         2.0720    1.2910    2.1110 c         1 EM6      0.614500
     15 O15         1.7350    2.4040    1.6780 o         1 EM6     -0.611500
     16 H01        -0.3880   -0.0490   -1.0810 hc        1 EM6      0.039033
     17 H01A       -0.5270    0.7020    0.5630 hc        1 EM6      0.039033
     18 H01B       -0.3190   -1.0910    0.4010 hc        1 EM6      0.039033
     19 H02         1.9670   -0.7070   -0.6250 hc        1 EM6      0.057700
     20 H02A        1.7340    1.0790   -0.4360 hc        1 EM6      0.057700
     21 H05         2.5750   -3.3400    1.8830 hc        1 EM6      0.063367
     22 H05A        3.1330   -2.4370    0.4110 hc        1 EM6      0.063367
     23 H05B        1.3560   -2.5720    0.7770 hc        1 EM6      0.063367
     24 H11         3.4060    2.1330    6.4600 h4        1 EM6      0.198000
     25 HN12        3.0250    3.0220    4.1090 hn        1 EM6      0.287700
@<TRIPOS>BOND
     1    1    2 1   
     2    1   16 1   
     3    1   17 1   
     4    1   18 1   
     5    2    3 1   
     6    2   19 1   
     7    2   20 1   
     8    3    4 2   
     9    3   14 1   
    10    4    5 1   
    11    4    6 1   
    12    5   21 1   
    13    5   22 1   
    14    5   23 1   
    15    6    7 2   
    16    7    8 1   
    17    7   13 1   
    18    8    9 1   
    19    8   11 2   
    20    9   10 3   
    21   11   12 1   
    22   11   24 1   
    23   12   13 1   
    24   12   25 1   
    25   13   14 1   
    26   14   15 2   
@<TRIPOS>SUBSTRUCTURE
     1 EM6         1 TEMP              0 ****  ****    0 ROOT
