@<TRIPOS>MOLECULE
EM7
   35    37     1     0     0
SMALL
bcc


@<TRIPOS>ATOM
      1 C13         0.1920   -1.1050    0.0840 c3        1 EM7      0.084100
      2 N7          1.6130   -0.7170   -0.0440 ny        1 EM7     -0.651800
      3 C12         2.2070   -0.1670    1.2460 c         1 EM7      0.484600
      4 O1          1.4240   -0.1050    2.1930 o         1 EM7     -0.493100
      5 C5          3.6100    0.2030    1.2000 ca        1 EM7      0.047500
      6 N6          4.2680    0.0980   -0.0110 nb        1 EM7     -0.624000
      7 C4          4.2950    0.6580    2.3940 ca        1 EM7      0.683900
      8 N8          3.6960    0.8010    3.5960 nv        1 EM7     -0.895500
      9 N5          5.6690    0.9690    2.3080 nb        1 EM7     -0.682000
     10 C3          6.2560    0.8400    1.1440 ca        1 EM7      0.426900
     11 C2          5.5540    0.4010   -0.0630 cp        1 EM7      0.341500
     12 C7          6.3230    0.3050   -1.3110 cp        1 EM7     -0.176500
     13 C8          7.5530   -0.3630   -1.2960 ca        1 EM7     -0.068000
     14 C6          5.8460    0.8760   -2.4970 ca        1 EM7     -0.081000
     15 C11         6.6040    0.7810   -3.6630 ca        1 EM7     -0.124000
     16 C10         7.8290    0.1140   -3.6590 ca        1 EM7     -0.087000
     17 C9          8.3080   -0.4600   -2.4740 ca        1 EM7     -0.118500
     18 C1          9.5730   -1.1760   -2.4340 cc        1 EM7      0.423000
     19 N2         10.0340   -2.0450   -1.4740 nd        1 EM7     -0.366000
     20 N3         11.2370   -2.4480   -1.8650 nd        1 EM7     -0.034000
     21 N4         11.5950   -1.9230   -2.9820 nc        1 EM7     -0.168800
     22 N1         10.6060   -1.1210   -3.3930 na        1 EM7     -0.169400
     23 H131       -0.4150   -0.2100    0.3890 hx        1 EM7      0.110033
     24 H132       -0.1690   -1.4980   -0.9040 hx        1 EM7      0.110033
     25 H133        0.0880   -1.8960    0.8750 hx        1 EM7      0.110033
     26 H7          1.7140    0.0010   -0.7710 hn        1 EM7      0.467800
     27 H81N        4.2160    1.1130    4.3890 hn        1 EM7      0.477800
     28 H82N        2.7280    0.5970    3.7140 hn        1 EM7      0.477800
     29 H3          7.3390    1.0850    1.0930 h4        1 EM7      0.075100
     30 H8          7.9220   -0.8220   -0.3640 ha        1 EM7      0.166000
     31 H6          4.8830    1.4060   -2.5100 ha        1 EM7      0.142000
     32 H11         6.2330    1.2340   -4.5960 ha        1 EM7      0.156000
     33 H10         8.4030    0.0400   -4.5950 ha        1 EM7      0.146000
     34 H1         10.6570   -0.5930   -4.2340 hn        1 EM7      0.339700
     35 H72         2.1720   -1.5320   -0.3280 hn        1 EM7      0.467800
@<TRIPOS>BOND
     1    1    2 1   
     2    1   23 1   
     3    1   24 1   
     4    1   25 1   
     5    2    3 1   
     6    2   26 1   
     7    2   35 1   
     8    3    4 2   
     9    3    5 1   
    10    5    6 ar  
    11    5    7 ar  
    12    6   11 ar  
    13    7    8 1   
    14    7    9 ar  
    15    8   27 1   
    16    8   28 1   
    17    9   10 ar  
    18   10   11 ar  
    19   10   29 1   
    20   11   12 1   
    21   12   13 ar  
    22   12   14 ar  
    23   13   17 ar  
    24   13   30 1   
    25   14   15 ar  
    26   14   31 1   
    27   15   16 ar  
    28   15   32 1   
    29   16   17 ar  
    30   16   33 1   
    31   17   18 1   
    32   18   19 2   
    33   18   22 1   
    34   19   20 1   
    35   20   21 2   
    36   21   22 1   
    37   22   34 1   
@<TRIPOS>SUBSTRUCTURE
     1 EM7         1 TEMP              0 ****  ****    0 ROOT
