@<TRIPOS>MOLECULE
EM7
   34    36     1     0     0
SMALL
bcc


@<TRIPOS>ATOM
      1 C13         5.6410    2.2830    0.6380 c3        1 EM7      0.072300
      2 N7          4.5150    1.5510    0.1450 n         1 EM7     -0.542900
      3 C12         4.2660    0.2530    0.5240 c         1 EM7      0.587600
      4 O1          5.0860   -0.3930    1.2140 o         1 EM7     -0.636100
      5 C5          2.9930   -0.3890    0.0420 ca        1 EM7      0.165500
      6 N6          1.8730    0.3610    0.0040 nb        1 EM7     -0.582000
      7 C4          2.9860   -1.7950   -0.3250 ca        1 EM7      0.613900
      8 N8          4.1390   -2.5370   -0.3750 nh        1 EM7     -0.932500
      9 N5          1.7910   -2.3890   -0.7060 nb        1 EM7     -0.712000
     10 C3          0.7060   -1.6210   -0.7240 ca        1 EM7      0.377900
     11 C2          0.7200   -0.2330   -0.3730 cp        1 EM7      0.259500
     12 C7         -0.5280    0.5380   -0.4230 cp        1 EM7     -0.122500
     13 C8         -1.7240   -0.0600   -0.0030 ca        1 EM7     -0.074000
     14 C6         -0.5380    1.8590   -0.8880 ca        1 EM7     -0.080000
     15 C11        -1.7370    2.5700   -0.9460 ca        1 EM7     -0.133000
     16 C10        -2.9300    1.9780   -0.5400 ca        1 EM7     -0.109000
     17 C9         -2.9240    0.6600   -0.0630 ca        1 EM7     -0.141500
     18 C1         -4.1550    0.0180    0.3670 cc        1 EM7      0.452000
     19 N2         -4.4680   -1.3180    0.4220 nd        1 EM7     -0.372000
     20 N3         -5.7110   -1.4030    0.8870 nd        1 EM7     -0.046000
     21 N4         -6.2290   -0.2550    1.1360 nc        1 EM7     -0.192800
     22 N1         -5.3130    0.6770    0.8350 na        1 EM7     -0.181400
     23 H131        6.4130    1.5780    1.0480 h1        1 EM7      0.047700
     24 H132        6.0900    2.8750   -0.2040 h1        1 EM7      0.047700
     25 H133        5.3310    2.9920    1.4530 h1        1 EM7      0.047700
     26 H7          3.7960    2.0730   -0.2990 hn        1 EM7      0.323500
     27 H81N        4.9320   -2.1950    0.1210 hn        1 EM7      0.450300
     28 H82N        4.0720   -3.5180   -0.5180 hn        1 EM7      0.450300
     29 H3         -0.2350   -2.1160   -1.0340 h4        1 EM7      0.043100
     30 H8         -1.7200   -1.0930    0.3810 ha        1 EM7      0.162000
     31 H6          0.3990    2.3380   -1.2110 ha        1 EM7      0.150000
     32 H11        -1.7400    3.6060   -1.3190 ha        1 EM7      0.142000
     33 H10        -3.8680    2.5480   -0.6090 ha        1 EM7      0.131000
     34 H1         -5.4740    1.6490    0.9540 hn        1 EM7      0.334700
@<TRIPOS>BOND
     1    1    2 1   
     2    1   23 1   
     3    1   24 1   
     4    1   25 1   
     5    2    3 1   
     6    2   26 1   
     7    3    4 2   
     8    3    5 1   
     9    5    6 ar  
    10    5    7 ar  
    11    6   11 ar  
    12    7    8 1   
    13    7    9 ar  
    14    8   27 1   
    15    8   28 1   
    16    9   10 ar  
    17   10   11 ar  
    18   10   29 1   
    19   11   12 1   
    20   12   13 ar  
    21   12   14 ar  
    22   13   17 ar  
    23   13   30 1   
    24   14   15 ar  
    25   14   31 1   
    26   15   16 ar  
    27   15   32 1   
    28   16   17 ar  
    29   16   33 1   
    30   17   18 1   
    31   18   19 2   
    32   18   22 1   
    33   19   20 1   
    34   20   21 2   
    35   21   22 1   
    36   22   34 1   
@<TRIPOS>SUBSTRUCTURE
     1 EM7         1 TEMP              0 ****  ****    0 ROOT
