@<TRIPOS>MOLECULE
EM7
   35    37     1     0     0
SMALL
bcc


@<TRIPOS>ATOM
      1 C13         0.1720   -0.9990    0.0560 c3        1 EM7      0.084100
      2 N7          1.6010   -0.6400   -0.0620 n4        1 EM7     -0.651800
      3 C12         2.2030   -0.1240    1.2380 c         1 EM7      0.484600
      4 O1          1.4190   -0.0600    2.1840 o         1 EM7     -0.493100
      5 C5          3.6140    0.2150    1.2020 ca        1 EM7      0.047500
      6 N6          4.2730    0.1150   -0.0090 nb        1 EM7     -0.624000
      7 C4          4.3060    0.6350    2.4050 ca        1 EM7      0.683900
      8 N8          3.7060    0.7720    3.6080 nh        1 EM7     -0.895500
      9 N5          5.6870    0.9160    2.3280 nb        1 EM7     -0.682000
     10 C3          6.2750    0.7940    1.1630 ca        1 EM7      0.426900
     11 C2          5.5660    0.3910   -0.0530 cp        1 EM7      0.341500
     12 C7          6.3370    0.2980   -1.3000 cp        1 EM7     -0.176500
     13 C8          7.5500   -0.4010   -1.2940 ca        1 EM7     -0.068000
     14 C6          5.8770    0.9000   -2.4770 ca        1 EM7     -0.081000
     15 C11         6.6360    0.8070   -3.6430 ca        1 EM7     -0.124000
     16 C10         7.8440    0.1110   -3.6470 ca        1 EM7     -0.087000
     17 C9          8.3060   -0.4950   -2.4710 ca        1 EM7     -0.118500
     18 C1          9.5530   -1.2420   -2.4410 cc        1 EM7      0.423000
     19 N2          9.9890   -2.1390   -1.4960 nd        1 EM7     -0.366000
     20 N3         11.1830   -2.5650   -1.8900 nd        1 EM7     -0.034000
     21 N4         11.5590   -2.0280   -2.9960 nc        1 EM7     -0.168800
     22 N1         10.5910   -1.1940   -3.3950 na        1 EM7     -0.169400
     23 H131       -0.4170   -0.0970    0.3740 hx        1 EM7      0.110033
     24 H132        0.0490   -1.8000    0.8330 hx        1 EM7      0.110033
     25 H133       -0.1950   -1.3670   -0.9390 hx        1 EM7      0.110033
     26 H7          2.1430   -1.4620   -0.3580 hn        1 EM7      0.467800
     27 H81N        4.2310    1.0580    4.4070 hn        1 EM7      0.477800
     28 H82N        2.7350    0.5870    3.7200 hn        1 EM7      0.477800
     29 H3          7.3620    1.0140    1.1190 h4        1 EM7      0.075100
     30 H8          7.9050   -0.8840   -0.3690 ha        1 EM7      0.166000
     31 H6          4.9260    1.4540   -2.4840 ha        1 EM7      0.142000
     32 H11         6.2790    1.2850   -4.5690 ha        1 EM7      0.156000
     33 H10         8.4190    0.0400   -4.5830 ha        1 EM7      0.146000
     34 H1         10.6580   -0.6520   -4.2260 hn        1 EM7      0.339700
     35 H72         1.7200    0.0870   -0.7770 hn        1 EM7      0.467800
@<TRIPOS>BOND
     1    1    2 1   
     2    1   23 1   
     3    1   24 1   
     4    1   25 1   
     5    2    3 1   
     6    2   26 1   
     7    2   35 1   
     8    3    4 2   
     9    3    5 1   
    10    5    6 ar  
    11    5    7 ar  
    12    6   11 ar  
    13    7    8 1   
    14    7    9 ar  
    15    8   27 1   
    16    8   28 1   
    17    9   10 ar  
    18   10   11 ar  
    19   10   29 1   
    20   11   12 1   
    21   12   13 ar  
    22   12   14 ar  
    23   13   17 ar  
    24   13   30 1   
    25   14   15 ar  
    26   14   31 1   
    27   15   16 ar  
    28   15   32 1   
    29   16   17 ar  
    30   16   33 1   
    31   17   18 1   
    32   18   19 2   
    33   18   22 1   
    34   19   20 1   
    35   20   21 2   
    36   21   22 1   
    37   22   34 1   
@<TRIPOS>SUBSTRUCTURE
     1 EM7         1 TEMP              0 ****  ****    0 ROOT
