@<TRIPOS>MOLECULE
EM7
   34    31     1     0     0
SMALL
bcc


@<TRIPOS>ATOM
      1 C13        -5.3090   -0.5650    1.8230 c3        1 EM7     -0.082000
      2 N7         -3.8690   -0.5650    1.6820 n         1 EM7     -0.353000
      3 C12        -3.1430    0.6670    1.7360 c2        1 EM7      0.371000
      4 O1         -3.7480    1.7510    1.6390 o         1 EM7     -0.398000
      5 C5         -1.6010    0.6440    1.7370 c2        1 EM7     -0.185000
      6 N6         -0.9350    0.6920    0.5810 n2        1 EM7     -0.055000
      7 C4         -0.8920    0.6430    2.9650 c1        1 EM7      0.157000
      8 N8         -1.6210    0.6920    4.2200 n2        1 EM7     -0.330000
      9 N5          0.4280    0.6900    2.9640 n2        1 EM7     -0.187000
     10 C3          1.1040    0.7380    1.7850 c1        1 EM7     -0.023000
     11 C2          0.4070    0.7390    0.5820 c1        1 EM7     -0.110000
     12 C7          1.1670    0.7550   -0.7300 c2        1 EM7     -0.018000
     13 C8          1.6540   -0.4360   -1.2670 c2        1 EM7     -0.075000
     14 C6          1.4070    1.9530   -1.3760 c1        1 EM7     -0.079000
     15 C11         2.1440    1.9720   -2.5770 c1        1 EM7     -0.121500
     16 C10         2.6320    0.7810   -3.1150 c1        1 EM7     -0.121500
     17 C9          2.3910   -0.4180   -2.4680 c1        1 EM7     -0.034000
     18 C1          2.9490   -1.6820   -3.0150 c2        1 EM7     -0.006000
     19 N2          2.2800   -2.5920   -3.7370 nc        1 EM7     -0.161500
     20 N3          3.1160   -3.5820   -4.0260 nc        1 EM7     -0.034500
     21 N4          4.3110   -3.2890   -3.4840 nc        1 EM7     -0.034500
     22 N1          4.2040   -2.1170   -2.8620 nc        1 EM7     -0.161500
     23 H131       -5.5550   -0.1430    2.6720 h1        1 EM7      0.087000
     24 H132       -5.7140   -0.0610    1.0730 h1        1 EM7      0.087000
     25 H133       -5.6440   -1.5060    1.8110 h1        1 EM7      0.087000
     26 H7         -3.4210   -1.3520    1.5980 hn        1 EM7      0.240000
     27 H81N       -2.4910    1.0090    4.2360 hn        1 EM7      0.245500
     28 H82N       -1.2380    0.3770    4.9820 hn        1 EM7      0.245500
     29 H3          2.1180    0.7740    1.7820 ha        1 EM7      0.177000
     30 H8          1.4800   -1.3080   -0.7950 ha        1 EM7      0.163000
     31 H6          1.0530    2.8210   -0.9830 ha        1 EM7      0.154000
     32 H11         2.3140    2.8210   -3.0340 ha        1 EM7      0.135500
     33 H10         3.1650    0.7930   -3.9840 ha        1 EM7      0.135500
     34 H1          4.8570   -1.6950   -2.4180 DU        1 EM7      0.284000
@<TRIPOS>BOND
     1    1    2 1   
     2    1   23 1   
     3    1   24 1   
     4    1   25 1   
     5    2    3 1   
     6    2   26 1   
     7    3    4 1   
     8    3    5 1   
     9    5    6 1   
    10    5    7 1   
    11    6   11 1   
    12    7    9 1   
    13    8   27 1   
    14    8   28 1   
    15    9   10 1   
    16   10   29 1   
    17   11   12 1   
    18   12   13 1   
    19   12   14 1   
    20   13   17 1   
    21   13   30 1   
    22   14   31 1   
    23   15   16 1   
    24   15   32 1   
    25   16   33 1   
    26   17   18 1   
    27   18   19 1   
    28   18   22 1   
    29   19   20 1   
    30   20   21 1   
    31   21   22 1   
@<TRIPOS>SUBSTRUCTURE
     1 EM7         1 TEMP              0 ****  ****    0 ROOT
