@<TRIPOS>MOLECULE
EM7
   36    38     1     0     0
SMALL
bcc


@<TRIPOS>ATOM
      1 C13         0.0060   -0.6430    0.0540 c3        1 EM7      0.079100
      2 N7          1.4710   -0.4240   -0.0860 n4        1 EM7     -0.638800
      3 C12         2.1470   -0.0860    1.2070 c         1 EM7      0.459600
      4 O1          1.4560   -0.0040    2.2180 o         1 EM7     -0.440100
      5 C5          3.6220    0.1250    1.1830 ca        1 EM7      0.265500
      6 N6          4.2520    0.0490   -0.0240 nb        1 EM7     -0.667000
      7 C4          4.3520    0.3890    2.3750 ca        1 EM7      0.390900
      8 N8          3.7280    0.4780    3.7040 n4        1 EM7     -0.816300
      9 N5          5.7150    0.5780    2.3410 nb        1 EM7     -0.595000
     10 C3          6.3180    0.4960    1.1620 ca        1 EM7      0.392900
     11 C2          5.5900    0.2200   -0.0720 cp        1 EM7      0.493500
     12 C7          6.3290    0.1350   -1.3230 cp        1 EM7     -0.236500
     13 C8          7.6430   -0.3650   -1.2990 ca        1 EM7     -0.047000
     14 C6          5.7620    0.5480   -2.5420 ca        1 EM7     -0.056000
     15 C11         6.5140    0.4800   -3.7110 ca        1 EM7     -0.121000
     16 C10         7.8230   -0.0060   -3.6890 ca        1 EM7     -0.042000
     17 C9          8.3920   -0.4350   -2.4810 ca        1 EM7     -0.098500
     18 C1          9.7490   -0.9490   -2.4050 cc        1 EM7      0.391000
     19 N2         10.4430   -1.3170   -1.2740 nd        1 EM7     -0.364000
     20 N3         11.6390   -1.7240   -1.6700 nd        1 EM7     -0.019000
     21 N4         11.7850   -1.6540   -2.9470 nc        1 EM7     -0.141800
     22 N1         10.6480   -1.1810   -3.4670 na        1 EM7     -0.152400
     23 H131       -0.4800    0.2880    0.4560 hx        1 EM7      0.129033
     24 H132       -0.1840   -1.4940    0.7630 hx        1 EM7      0.129033
     25 H133       -0.4140   -0.8880   -0.9610 hx        1 EM7      0.129033
     26 H7          1.9120   -1.2760   -0.4720 hn        1 EM7      0.490300
     27 H81N        3.4730   -0.4670    4.0260 hn        1 EM7      0.493133
     28 H82N        2.8770    1.0560    3.6520 hn        1 EM7      0.493133
     29 H3          7.4200    0.6640    1.1540 h4        1 EM7      0.116100
     30 H8          8.0850   -0.7260   -0.3540 ha        1 EM7      0.170000
     31 H6          4.7370    0.9460   -2.5790 ha        1 EM7      0.142000
     32 H11         6.0760    0.8180   -4.6660 ha        1 EM7      0.175000
     33 H10         8.3970   -0.0420   -4.6310 ha        1 EM7      0.167000
     34 H1         10.5260   -1.0390   -4.4450 hn        1 EM7      0.347700
     35 H72         1.6430    0.3450   -0.7530 hn        1 EM7      0.490300
     36 H83         4.3840    0.8960    4.3890 hn        1 EM7      0.493133
@<TRIPOS>BOND
     1    1    2 1   
     2    1   23 1   
     3    1   24 1   
     4    1   25 1   
     5    2    3 1   
     6    2   26 1   
     7    2   35 1   
     8    3    4 2   
     9    3    5 1   
    10    5    6 ar  
    11    5    7 ar  
    12    6   11 ar  
    13    7    8 1   
    14    7    9 ar  
    15    8   27 1   
    16    8   28 1   
    17    8   36 1   
    18    9   10 ar  
    19   10   11 ar  
    20   10   29 1   
    21   11   12 1   
    22   12   13 ar  
    23   12   14 ar  
    24   13   17 ar  
    25   13   30 1   
    26   14   15 ar  
    27   14   31 1   
    28   15   16 ar  
    29   15   32 1   
    30   16   17 ar  
    31   16   33 1   
    32   17   18 1   
    33   18   19 2   
    34   18   22 1   
    35   19   20 1   
    36   20   21 2   
    37   21   22 1   
    38   22   34 1   
@<TRIPOS>SUBSTRUCTURE
     1 EM7         1 TEMP              0 ****  ****    0 ROOT
