@<TRIPOS>MOLECULE
EMB
   17    16     1     0     0
SMALL
bcc


@<TRIPOS>ATOM
      1 C1          0.0470   -0.0020    0.0690 c3        1 EMB     -0.118100
      2 C2          1.5450    0.0000   -0.0580 c3        1 EMB      0.160400
      3 O1          2.0330   -0.0010    1.3330 os        1 EMB     -0.410900
      4 C3          3.3670    0.0030    1.4790 c         1 EMB      0.609100
      5 O2          4.2040    0.0060    0.5900 o         1 EMB     -0.406000
      6 N1          3.7270    0.0010    2.9380 ny        1 EMB     -0.634800
      7 C4          5.1940   -0.0010    3.1500 c3        1 EMB      0.087100
      8 H13        -0.3120    0.9050    0.6130 hc        1 EMB      0.077700
      9 H12        -0.3880   -0.0020   -0.9630 hc        1 EMB      0.077700
     10 H11        -0.3100   -0.9100    0.6120 hc        1 EMB      0.077700
     11 H22         1.9470   -0.9200   -0.5550 h1        1 EMB      0.082700
     12 H21         1.9450    0.9230   -0.5530 h1        1 EMB      0.082700
     13 H1          3.3050    0.8340    3.3710 hn        1 EMB      0.476800
     14 H43         5.6430    0.9120    2.6710 hx        1 EMB      0.120367
     15 H42         5.6400   -0.9170    2.6720 hx        1 EMB      0.120367
     16 H41         5.3990   -0.0010    4.2550 hx        1 EMB      0.120367
     17 H121        3.3020   -0.8310    3.3700 hn        1 EMB      0.476800
@<TRIPOS>BOND
     1    1    2 1   
     2    1    8 1   
     3    1    9 1   
     4    1   10 1   
     5    2    3 1   
     6    2   11 1   
     7    2   12 1   
     8    3    4 1   
     9    4    5 2   
    10    4    6 1   
    11    6    7 1   
    12    6   13 1   
    13    6   17 1   
    14    7   14 1   
    15    7   15 1   
    16    7   16 1   
@<TRIPOS>SUBSTRUCTURE
     1 EMB         1 TEMP              0 ****  ****    0 ROOT
