@<TRIPOS>MOLECULE
EMB
   17    16     1     0     0
SMALL
bcc


@<TRIPOS>ATOM
      1 C1          0.0480   -0.0000    0.0660 c3        1 EMB     -0.118100
      2 C2          1.5470   -0.0000   -0.0590 c3        1 EMB      0.160400
      3 O1          2.0330   -0.0000    1.3330 os        1 EMB     -0.410900
      4 C3          3.3670    0.0000    1.4800 c         1 EMB      0.609100
      5 O2          4.2050    0.0000    0.5920 o         1 EMB     -0.406000
      6 N1          3.7260    0.0000    2.9390 n4        1 EMB     -0.634800
      7 C4          5.1930   -0.0000    3.1520 c3        1 EMB      0.087100
      8 H13        -0.3110    0.9070    0.6100 hc        1 EMB      0.077700
      9 H12        -0.3860   -0.0000   -0.9660 hc        1 EMB      0.077700
     10 H11        -0.3100   -0.9070    0.6100 hc        1 EMB      0.077700
     11 H22         1.9480   -0.9210   -0.5540 h1        1 EMB      0.082700
     12 H21         1.9480    0.9210   -0.5540 h1        1 EMB      0.082700
     13 H1          3.3020    0.8330    3.3710 hn        1 EMB      0.476800
     14 H43         5.6400    0.9140    2.6740 hx        1 EMB      0.120700
     15 H42         5.6400   -0.9140    2.6740 hx        1 EMB      0.120700
     16 H41         5.3960   -0.0000    4.2570 hx        1 EMB      0.120700
     17 H121        3.3020   -0.8330    3.3710 hn        1 EMB      0.476800
@<TRIPOS>BOND
     1    1    2 1   
     2    1    8 1   
     3    1    9 1   
     4    1   10 1   
     5    2    3 1   
     6    2   11 1   
     7    2   12 1   
     8    3    4 1   
     9    4    5 2   
    10    4    6 1   
    11    6    7 1   
    12    6   13 1   
    13    6   17 1   
    14    7   14 1   
    15    7   15 1   
    16    7   16 1   
@<TRIPOS>SUBSTRUCTURE
     1 EMB         1 TEMP              0 ****  ****    0 ROOT
