@<TRIPOS>MOLECULE
EMB
   16    15     1     0     0
SMALL
bcc


@<TRIPOS>ATOM
      1 C1         -0.4370    0.0730    3.0750 c3        1 EMB     -0.102100
      2 C2          0.4410   -0.0940    1.8590 c3        1 EMB      0.151400
      3 O1         -0.4310    0.0470    0.7210 os        1 EMB     -0.451900
      4 C3          0.1860   -0.1030   -0.5060 c         1 EMB      0.730100
      5 O2          1.4180   -0.2610   -0.5440 o         1 EMB     -0.587000
      6 N1         -0.7090   -0.1050   -1.5570 n         1 EMB     -0.535900
      7 C4         -0.2370    0.0590   -2.8980 c3        1 EMB      0.078300
      8 H13        -1.2350   -0.7070    3.0940 hc        1 EMB      0.048367
      9 H12         0.1930   -0.0260    3.9920 hc        1 EMB      0.048367
     10 H11        -0.9250    1.0760    3.0730 hc        1 EMB      0.048367
     11 H22         1.2360    0.6950    1.8010 h1        1 EMB      0.054200
     12 H21         0.9230   -1.1050    1.8210 h1        1 EMB      0.054200
     13 H1         -1.6430    0.1710   -1.3560 hn        1 EMB      0.319500
     14 H43        -0.9080   -0.5260   -3.5830 h1        1 EMB      0.048033
     15 H42        -0.2510    1.1380   -3.2130 h1        1 EMB      0.048033
     16 H41         0.8130   -0.3290   -2.9850 h1        1 EMB      0.048033
@<TRIPOS>BOND
     1    1    2 1   
     2    1    8 1   
     3    1    9 1   
     4    1   10 1   
     5    2    3 1   
     6    2   11 1   
     7    2   12 1   
     8    3    4 1   
     9    4    5 2   
    10    4    6 1   
    11    6    7 1   
    12    6   13 1   
    13    7   14 1   
    14    7   15 1   
    15    7   16 1   
@<TRIPOS>SUBSTRUCTURE
     1 EMB         1 TEMP              0 ****  ****    0 ROOT
