@<TRIPOS>MOLECULE
EMB
   17    16     1     0     0
SMALL
bcc


@<TRIPOS>ATOM
      1 C1          0.1480    0.3470    0.1170 c3        1 EMB     -0.119100
      2 C2          1.5810   -0.0810   -0.0380 c3        1 EMB      0.160400
      3 O1          2.1100   -0.1090    1.3380 os        1 EMB     -0.407900
      4 C3          3.3940   -0.4770    1.4590 c         1 EMB      0.612100
      5 O2          4.1600   -0.7860    0.5590 o         1 EMB     -0.410000
      6 N1          3.8090   -0.4790    2.9030 n4        1 EMB     -0.635800
      7 C4          4.9770    0.4100    3.1260 c3        1 EMB      0.084100
      8 H13         0.0790    1.3570    0.5890 hc        1 EMB      0.077367
      9 H12        -0.3130    0.3900   -0.9020 hc        1 EMB      0.077367
     10 H11        -0.4230   -0.3800    0.7440 hc        1 EMB      0.077367
     11 H22         2.2000    0.6510   -0.6190 h1        1 EMB      0.083200
     12 H21         1.6900   -1.1130   -0.4600 h1        1 EMB      0.083200
     13 H1          3.0140   -0.1760    3.4830 hn        1 EMB      0.477800
     14 H43         5.8080    0.1140    2.4260 hx        1 EMB      0.120033
     15 H42         4.6790    1.4750    2.9260 hx        1 EMB      0.120033
     16 H41         5.3170    0.3020    4.1920 hx        1 EMB      0.120033
     17 H121        4.0560   -1.4460    3.1550 hn        1 EMB      0.477800
@<TRIPOS>BOND
     1    1    2 1   
     2    1    8 1   
     3    1    9 1   
     4    1   10 1   
     5    2    3 1   
     6    2   11 1   
     7    2   12 1   
     8    3    4 1   
     9    4    5 2   
    10    4    6 1   
    11    6    7 1   
    12    6   13 1   
    13    6   17 1   
    14    7   14 1   
    15    7   15 1   
    16    7   16 1   
@<TRIPOS>SUBSTRUCTURE
     1 EMB         1 TEMP              0 ****  ****    0 ROOT
