@<TRIPOS>MOLECULE
EMD
   53    56     1     0     0
SMALL
bcc


@<TRIPOS>ATOM
      1 S1          0.2460   -1.2190    6.7220 ss        1 EMD     -0.180700
      2 C2         -0.4660    0.2190    7.3910 c         1 EMD      0.674100
      3 O2         -0.8240    0.3190    8.5730 o         1 EMD     -0.570500
      4 N3         -0.6250    1.3330    6.5310 n         1 EMD     -0.314900
      5 N4         -0.6730    1.2760    5.2010 n2        1 EMD     -0.460300
      6 C5         -0.0110    0.3630    4.5210 ce        1 EMD      0.404900
      7 C6          0.8960   -0.6590    5.1510 c3        1 EMD     -0.065900
      8 C7          2.2910   -0.1140    5.3410 c3        1 EMD     -0.093100
      9 C8         -0.1630    0.3040    3.0570 ca        1 EMD     -0.143900
     10 C9         -1.3390    0.7440    2.4420 ca        1 EMD     -0.074000
     11 C10        -1.5030    0.6890    1.0550 ca        1 EMD     -0.122300
     12 C11        -0.4620    0.1790    0.2390 ca        1 EMD      0.086600
     13 C12         0.7200   -0.2720    0.8710 ca        1 EMD     -0.142000
     14 C13         0.8620   -0.2060    2.2490 ca        1 EMD     -0.099000
     15 N14        -0.6260    0.0720   -1.1630 n         1 EMD     -0.375000
     16 C15        -1.9780    0.2190   -1.6670 c3        1 EMD      0.087000
     17 C16        -2.7510    1.3560   -1.0040 c3        1 EMD     -0.099400
     18 C17        -2.8010    1.1520    0.4920 c3        1 EMD     -0.033100
     19 C18         0.4660    0.1610   -2.0430 c         1 EMD      0.681700
     20 O18         1.6040    0.4680   -1.6430 o         1 EMD     -0.575100
     21 C19         0.2420   -0.1630   -3.4820 ca        1 EMD     -0.144600
     22 C20         0.8110    0.6910   -4.4390 ca        1 EMD     -0.137000
     23 C21         0.6810    0.3950   -5.7930 ca        1 EMD      0.096100
     24 O21         1.1780    1.1700   -6.8210 os        1 EMD     -0.302900
     25 C22        -0.0170   -0.7780   -6.1980 ca        1 EMD      0.127100
     26 O22        -0.0910   -0.9790   -7.5580 os        1 EMD     -0.298900
     27 C23        -0.5660   -1.6230   -5.2330 ca        1 EMD     -0.193000
     28 C24        -0.4370   -1.3130   -3.8770 ca        1 EMD     -0.094000
     29 C25         2.0010    2.2650   -6.4300 c3        1 EMD      0.107700
     30 C26        -0.7500   -2.1690   -7.9800 c3        1 EMD      0.108700
     31 H3         -1.1960    2.0850    6.8870 hn        1 EMD      0.345500
     32 H6          0.9280   -1.5910    4.5230 h1        1 EMD      0.109700
     33 H71         2.9430   -0.8930    5.8080 hc        1 EMD      0.055367
     34 H72         2.7370    0.1840    4.3610 hc        1 EMD      0.055367
     35 H73         2.2800    0.7860    6.0030 hc        1 EMD      0.055367
     36 H9         -2.1670    1.1480    3.0480 ha        1 EMD      0.147000
     37 H12         1.5540   -0.6700    0.2710 ha        1 EMD      0.163000
     38 H13         1.8030   -0.5600    2.6970 ha        1 EMD      0.136000
     39 H151       -1.9590    0.3960   -2.7790 h1        1 EMD      0.058700
     40 H152       -2.5220   -0.7520   -1.4770 h1        1 EMD      0.058700
     41 H161       -2.2690    2.3400   -1.2430 hc        1 EMD      0.056700
     42 H162       -3.7880    1.3760   -1.4260 hc        1 EMD      0.056700
     43 H171       -3.1080    2.1120    0.9900 hc        1 EMD      0.055700
     44 H172       -3.5880    0.3870    0.7400 hc        1 EMD      0.055700
     45 H20         1.3700    1.5770   -4.1000 ha        1 EMD      0.160000
     46 H23        -1.0980   -2.5380   -5.5280 ha        1 EMD      0.145000
     47 H24        -0.8710   -1.9890   -3.1240 ha        1 EMD      0.145000
     48 H251        2.3370    2.6940   -7.4080 h1        1 EMD      0.048033
     49 H252        1.4070    3.0160   -5.8540 h1        1 EMD      0.048033
     50 H253        2.8760    1.9130   -5.8310 h1        1 EMD      0.048033
     51 H261       -0.6710   -2.1230   -9.0960 h1        1 EMD      0.047033
     52 H262       -0.2280   -3.0730   -7.5830 h1        1 EMD      0.047033
     53 H263       -1.8210   -2.1610   -7.6600 h1        1 EMD      0.047033
@<TRIPOS>BOND
     1    1    2 1   
     2    1    7 1   
     3    2    3 2   
     4    2    4 1   
     5    4    5 1   
     6    4   31 1   
     7    5    6 2   
     8    6    7 1   
     9    6    9 1   
    10    7    8 1   
    11    7   32 1   
    12    8   33 1   
    13    8   34 1   
    14    8   35 1   
    15    9   10 ar  
    16    9   14 ar  
    17   10   11 ar  
    18   10   36 1   
    19   11   12 ar  
    20   11   18 1   
    21   12   13 ar  
    22   12   15 1   
    23   13   14 ar  
    24   13   37 1   
    25   14   38 1   
    26   15   16 1   
    27   15   19 1   
    28   16   17 1   
    29   16   39 1   
    30   16   40 1   
    31   17   18 1   
    32   17   41 1   
    33   17   42 1   
    34   18   43 1   
    35   18   44 1   
    36   19   20 2   
    37   19   21 1   
    38   21   22 ar  
    39   21   28 ar  
    40   22   23 ar  
    41   22   45 1   
    42   23   24 1   
    43   23   25 ar  
    44   24   29 1   
    45   25   26 1   
    46   25   27 ar  
    47   26   30 1   
    48   27   28 ar  
    49   27   46 1   
    50   28   47 1   
    51   29   48 1   
    52   29   49 1   
    53   29   50 1   
    54   30   51 1   
    55   30   52 1   
    56   30   53 1   
@<TRIPOS>SUBSTRUCTURE
     1 EMD         1 TEMP              0 ****  ****    0 ROOT
