@<TRIPOS>MOLECULE
EMD
   53    56     1     0     0
SMALL
bcc


@<TRIPOS>ATOM
      1 S1          0.4660    0.9300   -0.2240 ss        1 EMD     -0.180700
      2 C2          1.9250   -0.0080   -0.2510 c         1 EMD      0.677100
      3 O2          2.5220   -0.2990   -1.2980 o         1 EMD     -0.571500
      4 N3          2.4620   -0.4470    0.9790 n         1 EMD     -0.319900
      5 N4          1.8220   -0.5070    2.1430 n2        1 EMD     -0.444300
      6 C5          0.7910    0.2600    2.4180 ce        1 EMD      0.389900
      7 C6          0.1940    1.2920    1.5060 c3        1 EMD     -0.062900
      8 C7          0.7110    2.6690    1.8410 c3        1 EMD     -0.089100
      9 C8          0.1490    0.1380    3.7410 ca        1 EMD     -0.142900
     10 C9          0.9050    0.2550    4.9080 ca        1 EMD     -0.080000
     11 C10         0.3080    0.1650    6.1680 ca        1 EMD     -0.119300
     12 C11        -1.0890   -0.0560    6.2720 ca        1 EMD      0.082600
     13 C12        -1.8380   -0.1970    5.0800 ca        1 EMD     -0.137000
     14 C13        -1.2270   -0.1000    3.8390 ca        1 EMD     -0.098000
     15 N14        -1.7090   -0.1910    7.5380 n         1 EMD     -0.375000
     16 C15        -0.8240   -0.4110    8.6670 c3        1 EMD      0.087000
     17 C16         0.4150    0.4800    8.6460 c3        1 EMD     -0.099400
     18 C17         1.1880    0.2720    7.3640 c3        1 EMD     -0.033100
     19 C18        -3.0390    0.2080    7.7510 c         1 EMD      0.681700
     20 O18        -3.6860    0.8120    6.8760 o         1 EMD     -0.576100
     21 C19        -3.6850   -0.1460    9.0490 ca        1 EMD     -0.144600
     22 C20        -4.4440    0.8450    9.6910 ca        1 EMD     -0.137000
     23 C21        -5.1160    0.5410   10.8720 ca        1 EMD      0.096100
     24 O21        -5.8710    1.4370   11.6010 os        1 EMD     -0.302900
     25 C22        -5.0380   -0.7730   11.4140 ca        1 EMD      0.127100
     26 O22        -5.7350   -0.9690   12.5850 os        1 EMD     -0.298900
     27 C23        -4.2890   -1.7490   10.7560 ca        1 EMD     -0.193000
     28 C24        -3.6120   -1.4330    9.5750 ca        1 EMD     -0.094000
     29 C25        -6.0850    2.7070   10.9930 c3        1 EMD      0.107700
     30 C26        -5.7040   -2.2890   13.1180 c3        1 EMD      0.108700
     31 H3          3.1990   -1.1330    0.9250 hn        1 EMD      0.349500
     32 H6         -0.9270    1.2840    1.6080 h1        1 EMD      0.107700
     33 H71         0.2840    3.4200    1.1310 hc        1 EMD      0.054700
     34 H72         0.4100    2.9470    2.8810 hc        1 EMD      0.054700
     35 H73         1.8250    2.7070    1.7730 hc        1 EMD      0.054700
     36 H9          1.9920    0.4210    4.8430 ha        1 EMD      0.144000
     37 H12        -2.9250   -0.3760    5.1260 ha        1 EMD      0.163000
     38 H13        -1.8350   -0.2250    2.9300 ha        1 EMD      0.137000
     39 H151       -1.3790   -0.2370    9.6310 h1        1 EMD      0.059200
     40 H152       -0.4990   -1.4920    8.6410 h1        1 EMD      0.059200
     41 H161        0.1180    1.5560    8.7470 hc        1 EMD      0.055700
     42 H162        1.0550    0.2200    9.5280 hc        1 EMD      0.055700
     43 H171        1.7950   -0.6720    7.4410 hc        1 EMD      0.055200
     44 H172        1.9130    1.1180    7.2240 hc        1 EMD      0.055200
     45 H20        -4.5120    1.8450    9.2370 ha        1 EMD      0.159000
     46 H23        -4.2270   -2.7710   11.1550 ha        1 EMD      0.145000
     47 H24        -3.0270   -2.2120    9.0620 ha        1 EMD      0.145000
     48 H251       -6.7690    3.2240   11.7140 h1        1 EMD      0.047367
     49 H252       -6.5740    2.5950    9.9950 h1        1 EMD      0.047367
     50 H253       -5.1210    3.2630   10.8980 h1        1 EMD      0.047367
     51 H261       -6.3400   -2.2090   14.0360 h1        1 EMD      0.047033
     52 H262       -6.1420   -3.0190   12.3960 h1        1 EMD      0.047033
     53 H263       -4.6600   -2.5810   13.3870 h1        1 EMD      0.047033
@<TRIPOS>BOND
     1    1    2 1   
     2    1    7 1   
     3    2    3 2   
     4    2    4 1   
     5    4    5 1   
     6    4   31 1   
     7    5    6 2   
     8    6    7 1   
     9    6    9 1   
    10    7    8 1   
    11    7   32 1   
    12    8   33 1   
    13    8   34 1   
    14    8   35 1   
    15    9   10 ar  
    16    9   14 ar  
    17   10   11 ar  
    18   10   36 1   
    19   11   12 ar  
    20   11   18 1   
    21   12   13 ar  
    22   12   15 1   
    23   13   14 ar  
    24   13   37 1   
    25   14   38 1   
    26   15   16 1   
    27   15   19 1   
    28   16   17 1   
    29   16   39 1   
    30   16   40 1   
    31   17   18 1   
    32   17   41 1   
    33   17   42 1   
    34   18   43 1   
    35   18   44 1   
    36   19   20 2   
    37   19   21 1   
    38   21   22 ar  
    39   21   28 ar  
    40   22   23 ar  
    41   22   45 1   
    42   23   24 1   
    43   23   25 ar  
    44   24   29 1   
    45   25   26 1   
    46   25   27 ar  
    47   26   30 1   
    48   27   28 ar  
    49   27   46 1   
    50   28   47 1   
    51   29   48 1   
    52   29   49 1   
    53   29   50 1   
    54   30   51 1   
    55   30   52 1   
    56   30   53 1   
@<TRIPOS>SUBSTRUCTURE
     1 EMD         1 TEMP              0 ****  ****    0 ROOT
