@<TRIPOS>MOLECULE
EMD
   53    56     1     0     0
SMALL
bcc


@<TRIPOS>ATOM
      1 S1          0.4540    0.9440   -0.2260 ss        1 EMD     -0.180700
      2 C2          1.8930   -0.0250   -0.2670 c         1 EMD      0.677100
      3 O2          2.4800   -0.3190   -1.3190 o         1 EMD     -0.571500
      4 N3          2.4250   -0.4860    0.9580 ns        1 EMD     -0.319900
      5 N4          1.7880   -0.5420    2.1230 n2        1 EMD     -0.444300
      6 C5          0.7750    0.2430    2.4090 ce        1 EMD      0.389900
      7 C6          0.1970    1.2960    1.5090 c3        1 EMD     -0.062900
      8 C7          0.7440    2.6590    1.8530 c3        1 EMD     -0.089100
      9 C8          0.1360    0.1240    3.7330 ca        1 EMD     -0.142900
     10 C9          0.8980    0.2140    4.8980 ca        1 EMD     -0.079000
     11 C10         0.3040    0.1260    6.1600 ca        1 EMD     -0.119300
     12 C11        -1.0970   -0.0660    6.2680 ca        1 EMD      0.082600
     13 C12        -1.8540   -0.1810    5.0780 ca        1 EMD     -0.137000
     14 C13        -1.2450   -0.0860    3.8340 ca        1 EMD     -0.098000
     15 N14        -1.7150   -0.1990    7.5350 n         1 EMD     -0.375000
     16 C15        -0.8310   -0.4480    8.6580 c3        1 EMD      0.087000
     17 C16         0.4270    0.4160    8.6400 c3        1 EMD     -0.099400
     18 C17         1.1900    0.2040    7.3530 c3        1 EMD     -0.033100
     19 C18        -3.0360    0.2270    7.7560 c         1 EMD      0.681700
     20 O18        -3.6730    0.8520    6.8890 o         1 EMD     -0.576100
     21 C19        -3.6840   -0.1250    9.0530 ca        1 EMD     -0.144600
     22 C20        -4.4200    0.8750    9.7070 ca        1 EMD     -0.137000
     23 C21        -5.0940    0.5760   10.8880 ca        1 EMD      0.096100
     24 O21        -5.8270    1.4800   11.6270 os        1 EMD     -0.302900
     25 C22        -5.0420   -0.7450   11.4180 ca        1 EMD      0.127100
     26 O22        -5.7390   -0.9360   12.5890 os        1 EMD     -0.298900
     27 C23        -4.3160   -1.7300   10.7480 ca        1 EMD     -0.193000
     28 C24        -3.6370   -1.4180    9.5680 ca        1 EMD     -0.094000
     29 C25        -6.0160    2.7600   11.0320 c3        1 EMD      0.107700
     30 C26        -5.7340   -2.2620   13.1110 c3        1 EMD      0.108700
     31 H3          3.1470   -1.1870    0.8950 hn        1 EMD      0.349500
     32 H6         -0.9240    1.3120    1.6150 h1        1 EMD      0.107700
     33 H71         0.3310    3.4250    1.1520 hc        1 EMD      0.054700
     34 H72         1.8590    2.6740    1.7810 hc        1 EMD      0.054700
     35 H73         0.4540    2.9350    2.8970 hc        1 EMD      0.054700
     36 H9          1.9880    0.3580    4.8310 ha        1 EMD      0.144000
     37 H12        -2.9440   -0.3370    5.1260 ha        1 EMD      0.163000
     38 H13        -1.8590   -0.1890    2.9270 ha        1 EMD      0.137000
     39 H151       -1.3780   -0.2710    9.6260 h1        1 EMD      0.059200
     40 H152       -0.5290   -1.5350    8.6210 h1        1 EMD      0.059200
     41 H161        1.0640    0.1360    9.5170 hc        1 EMD      0.055700
     42 H162        0.1530    1.4980    8.7520 hc        1 EMD      0.055700
     43 H171        1.7780   -0.7540    7.4200 hc        1 EMD      0.055200
     44 H172        1.9330    1.0360    7.2180 hc        1 EMD      0.055200
     45 H20        -4.4680    1.8810    9.2620 ha        1 EMD      0.159000
     46 H23        -4.2750   -2.7570   11.1380 ha        1 EMD      0.145000
     47 H24        -3.0710   -2.2050    9.0460 ha        1 EMD      0.145000
     48 H251       -6.5110    2.6680   10.0350 h1        1 EMD      0.047367
     49 H252       -6.6860    3.2850   11.7600 h1        1 EMD      0.047367
     50 H253       -5.0410    3.2970   10.9380 h1        1 EMD      0.047367
     51 H261       -6.1900   -2.9760   12.3830 h1        1 EMD      0.047033
     52 H262       -6.3660   -2.1760   14.0320 h1        1 EMD      0.047033
     53 H263       -4.6950   -2.5780   13.3730 h1        1 EMD      0.047033
@<TRIPOS>BOND
     1    1    2 1   
     2    1    7 1   
     3    2    3 2   
     4    2    4 1   
     5    4    5 1   
     6    4   31 1   
     7    5    6 2   
     8    6    7 1   
     9    6    9 1   
    10    7    8 1   
    11    7   32 1   
    12    8   33 1   
    13    8   34 1   
    14    8   35 1   
    15    9   10 ar  
    16    9   14 ar  
    17   10   11 ar  
    18   10   36 1   
    19   11   12 ar  
    20   11   18 1   
    21   12   13 ar  
    22   12   15 1   
    23   13   14 ar  
    24   13   37 1   
    25   14   38 1   
    26   15   16 1   
    27   15   19 1   
    28   16   17 1   
    29   16   39 1   
    30   16   40 1   
    31   17   18 1   
    32   17   41 1   
    33   17   42 1   
    34   18   43 1   
    35   18   44 1   
    36   19   20 2   
    37   19   21 1   
    38   21   22 ar  
    39   21   28 ar  
    40   22   23 ar  
    41   22   45 1   
    42   23   24 1   
    43   23   25 ar  
    44   24   29 1   
    45   25   26 1   
    46   25   27 ar  
    47   26   30 1   
    48   27   28 ar  
    49   27   46 1   
    50   28   47 1   
    51   29   48 1   
    52   29   49 1   
    53   29   50 1   
    54   30   51 1   
    55   30   52 1   
    56   30   53 1   
@<TRIPOS>SUBSTRUCTURE
     1 EMD         1 TEMP              0 ****  ****    0 ROOT
