@<TRIPOS>MOLECULE
EMD
   53    56     1     0     0
SMALL
bcc


@<TRIPOS>ATOM
      1 S1          1.1730   -0.4800    0.0740 ss        1 EMD     -0.180700
      2 C2          2.6720    0.3860    0.2330 c         1 EMD      0.674100
      3 O2          3.5910    0.3210   -0.5960 o         1 EMD     -0.570500
      4 N3          2.8330    1.2180    1.3670 n         1 EMD     -0.314900
      5 N4          2.1550    1.0990    2.5080 n2        1 EMD     -0.460300
      6 C5          0.9160    0.6520    2.5360 ce        1 EMD      0.404900
      7 C6          0.1280    0.2860    1.3090 c3        1 EMD     -0.065900
      8 C7         -0.5600    1.4920    0.7170 c3        1 EMD     -0.093100
      9 C8          0.2450    0.4730    3.8360 ca        1 EMD     -0.143900
     10 C9          0.9840    0.2050    4.9920 ca        1 EMD     -0.074000
     11 C10         0.3630    0.0250    6.2310 ca        1 EMD     -0.122300
     12 C11        -1.0480    0.1150    6.3350 ca        1 EMD      0.086600
     13 C12        -1.7870    0.3780    5.1590 ca        1 EMD     -0.143000
     14 C13        -1.1500    0.5550    3.9390 ca        1 EMD     -0.099000
     15 N14        -1.6990   -0.1090    7.5720 n         1 EMD     -0.375000
     16 C15        -0.9010   -0.7160    8.6200 c3        1 EMD      0.087000
     17 C16         0.5070   -0.1370    8.7200 c3        1 EMD     -0.099400
     18 C17         1.2290   -0.2870    7.4010 c3        1 EMD     -0.033100
     19 C18        -2.9190    0.5130    7.8870 c         1 EMD      0.681700
     20 O18        -3.4150    1.3880    7.1540 o         1 EMD     -0.575100
     21 C19        -3.6410    0.0710    9.1160 ca        1 EMD     -0.144600
     22 C20        -4.1810    1.0650    9.9470 ca        1 EMD     -0.137000
     23 C21        -4.9160    0.6990   11.0720 ca        1 EMD      0.096100
     24 O21        -5.4750    1.5840   11.9700 os        1 EMD     -0.302900
     25 C22        -5.1250   -0.6790   11.3640 ca        1 EMD      0.127100
     26 O22        -5.8630   -0.9350   12.4980 os        1 EMD     -0.298900
     27 C23        -4.5910   -1.6530   10.5200 ca        1 EMD     -0.193000
     28 C24        -3.8490   -1.2760    9.3990 ca        1 EMD     -0.094000
     29 C25        -5.3990    2.9610   11.6140 c3        1 EMD      0.107700
     30 C26        -6.1170   -2.3070   12.7830 c3        1 EMD      0.108700
     31 H3          3.7660    1.5650    1.5300 hn        1 EMD      0.345500
     32 H6         -0.6280   -0.5080    1.5540 h1        1 EMD      0.109700
     33 H71        -1.1390    1.1920   -0.1910 hc        1 EMD      0.055367
     34 H72        -1.2660    1.9480    1.4550 hc        1 EMD      0.055367
     35 H73         0.1840    2.2720    0.4240 hc        1 EMD      0.055367
     36 H9          2.0830    0.1300    4.9450 ha        1 EMD      0.147000
     37 H12        -2.8860    0.4610    5.1990 ha        1 EMD      0.163000
     38 H13        -1.7660    0.7670    3.0520 ha        1 EMD      0.136000
     39 H151       -0.8280   -1.8210    8.3990 h1        1 EMD      0.058700
     40 H152       -1.4140   -0.5930    9.6150 h1        1 EMD      0.058700
     41 H161        1.0600   -0.6830    9.5270 hc        1 EMD      0.056700
     42 H162        0.4590    0.9440    9.0130 hc        1 EMD      0.056700
     43 H171        1.6010   -1.3440    7.2950 hc        1 EMD      0.055700
     44 H172        2.1320    0.3820    7.3920 hc        1 EMD      0.055700
     45 H20        -4.0300    2.1230    9.6850 ha        1 EMD      0.160000
     46 H23        -4.7530   -2.7210   10.7250 ha        1 EMD      0.145000
     47 H24        -3.4360   -2.0540    8.7380 ha        1 EMD      0.145000
     48 H251       -5.8860    3.1440   10.6260 h1        1 EMD      0.048033
     49 H252       -5.9650    3.4690   12.4360 h1        1 EMD      0.048033
     50 H253       -4.3360    3.3040   11.5980 h1        1 EMD      0.048033
     51 H261       -6.6910   -2.7850   11.9530 h1        1 EMD      0.047033
     52 H262       -5.1610   -2.8550   12.9670 h1        1 EMD      0.047033
     53 H263       -6.7330   -2.2640   13.7170 h1        1 EMD      0.047033
@<TRIPOS>BOND
     1    1    2 1   
     2    1    7 1   
     3    2    3 2   
     4    2    4 1   
     5    4    5 1   
     6    4   31 1   
     7    5    6 2   
     8    6    7 1   
     9    6    9 1   
    10    7    8 1   
    11    7   32 1   
    12    8   33 1   
    13    8   34 1   
    14    8   35 1   
    15    9   10 ar  
    16    9   14 ar  
    17   10   11 ar  
    18   10   36 1   
    19   11   12 ar  
    20   11   18 1   
    21   12   13 ar  
    22   12   15 1   
    23   13   14 ar  
    24   13   37 1   
    25   14   38 1   
    26   15   16 1   
    27   15   19 1   
    28   16   17 1   
    29   16   39 1   
    30   16   40 1   
    31   17   18 1   
    32   17   41 1   
    33   17   42 1   
    34   18   43 1   
    35   18   44 1   
    36   19   20 2   
    37   19   21 1   
    38   21   22 ar  
    39   21   28 ar  
    40   22   23 ar  
    41   22   45 1   
    42   23   24 1   
    43   23   25 ar  
    44   24   29 1   
    45   25   26 1   
    46   25   27 ar  
    47   26   30 1   
    48   27   28 ar  
    49   27   46 1   
    50   28   47 1   
    51   29   48 1   
    52   29   49 1   
    53   29   50 1   
    54   30   51 1   
    55   30   52 1   
    56   30   53 1   
@<TRIPOS>SUBSTRUCTURE
     1 EMD         1 TEMP              0 ****  ****    0 ROOT
