@<TRIPOS>MOLECULE
EME
   20    19     1     0     0
SMALL
bcc


@<TRIPOS>ATOM
      1 C7         -2.1450    2.3730   -0.3570 c3        1 EME      0.152100
      2 N2         -1.1990    1.5920    0.3870 n3        1 EME     -0.802200
      3 CA         -0.9560    0.2660   -0.1870 c3        1 EME      0.058500
      4 C          -2.1650   -0.6840    0.0840 c         1 EME      0.923600
      5 O          -2.0640   -1.6240    0.9180 o         1 EME     -0.864300
      6 CB          0.3780   -0.3320    0.2830 c3        1 EME     -0.054400
      7 CG          1.5500    0.2520   -0.4770 c3        1 EME     -0.183400
      8 CD          2.9160   -0.1820    0.0660 c         1 EME      0.906600
      9 OE2         3.5920   -1.0320   -0.5930 o         1 EME     -0.875800
     10 OE1         3.3640    0.3620    1.1210 o         1 EME     -0.875800
     11 OXT        -3.2170   -0.4800   -0.6000 o         1 EME     -0.864300
     12 H1         -2.4220    3.2770    0.2490 h1        1 EME      0.010033
     13 H2         -1.7620    2.7420   -1.3530 h1        1 EME      0.010033
     14 H3         -3.0600    1.7470   -0.5450 h1        1 EME      0.010033
     15 H4         -0.3250    2.0830    0.4610 hn        1 EME      0.332800
     16 H6         -0.8970    0.3470   -1.3200 h1        1 EME     -0.005300
     17 H7          0.5180   -0.1720    1.3820 hc        1 EME      0.054700
     18 H8          0.3290   -1.4400    0.1190 hc        1 EME      0.054700
     19 H9          1.4820   -0.0490   -1.5540 hc        1 EME      0.006200
     20 H10         1.5140    1.3710   -0.4360 hc        1 EME      0.006200
@<TRIPOS>BOND
     1    1    2 1   
     2    1   12 1   
     3    1   13 1   
     4    1   14 1   
     5    2    3 1   
     6    2   15 1   
     7    3    4 1   
     8    3    6 1   
     9    3   16 1   
    10    4    5 1   
    11    4   11 1   
    12    6    7 1   
    13    6   17 1   
    14    6   18 1   
    15    7    8 1   
    16    7   19 1   
    17    7   20 1   
    18    8    9 1   
    19    8   10 1   
@<TRIPOS>SUBSTRUCTURE
     1 EME         1 TEMP              0 ****  ****    0 ROOT
