@<TRIPOS>MOLECULE
EMF
   33    34     1     0     0
SMALL
bcc


@<TRIPOS>ATOM
      1 O9         -0.1600   -0.5290    0.2150 o         1 EMF     -0.551000
      2 C9          1.0440   -0.3750   -0.0110 c         1 EMF      0.662100
      3 O10         1.8730   -0.1130    1.0440 os        1 EMF     -0.436900
      4 C11         1.2560   -0.0380    2.3420 c3        1 EMF      0.138400
      5 C12         2.3650    0.2590    3.3200 c3        1 EMF     -0.100100
      6 C8          1.7590   -0.4300   -1.3020 cx        1 EMF     -0.193700
      7 C14         1.3370   -1.4620   -2.3150 cx        1 EMF     -0.094400
      8 C7          0.9980   -0.0150   -2.5510 cx        1 EMF     -0.043400
      9 C1          1.6690    0.7710   -3.5940 ca        1 EMF     -0.064300
     10 C2          0.9430    1.7760   -4.2520 ca        1 EMF     -0.149000
     11 C3          1.5550    2.5340   -5.2480 ca        1 EMF      0.044100
     12 O3          0.9390    3.5440   -5.9700 os        1 EMF     -0.348900
     13 C13        -0.3940    3.8610   -5.5880 c3        1 EMF      0.120700
     14 C6          3.0040    0.5410   -3.9460 ca        1 EMF     -0.121000
     15 C5          3.6240    1.2930   -4.9400 ca        1 EMF     -0.135000
     16 C4          2.9050    2.2960   -5.6000 ca        1 EMF      0.115100
     17 O4          3.5610    3.0080   -6.5740 oh        1 EMF     -0.494100
     18 H111        0.7550   -1.0180    2.5580 h1        1 EMF      0.051700
     19 H112        0.4810    0.7730    2.3250 h1        1 EMF      0.051700
     20 H121        1.9350    0.3280    4.3470 hc        1 EMF      0.048033
     21 H122        2.8640    1.2250    3.0660 hc        1 EMF      0.048033
     22 H123        3.1350   -0.5500    3.2990 hc        1 EMF      0.048033
     23 H8          2.8330   -0.1670   -1.2150 hc        1 EMF      0.116700
     24 H141        2.1200   -1.9450   -2.9260 hc        1 EMF      0.087700
     25 H142        0.5140   -2.1540   -2.0560 hc        1 EMF      0.087700
     26 H7         -0.0670    0.2750   -2.4010 hc        1 EMF      0.101700
     27 H2         -0.1050    1.9580   -3.9750 ha        1 EMF      0.142000
     28 H131       -1.0690    2.9870   -5.7620 h1        1 EMF      0.047033
     29 H132       -0.6640    4.7100   -6.2670 h1        1 EMF      0.047033
     30 H133       -0.4330    4.1810   -4.5190 h1        1 EMF      0.047033
     31 H6          3.5790   -0.2450   -3.4330 ha        1 EMF      0.135000
     32 H5          4.6730    1.1130   -5.2180 ha        1 EMF      0.154000
     33 HO4         2.9470    3.6680   -6.9310 ho        1 EMF      0.437000
@<TRIPOS>BOND
     1    1    2 2   
     2    2    3 1   
     3    2    6 1   
     4    3    4 1   
     5    4    5 1   
     6    4   18 1   
     7    4   19 1   
     8    5   20 1   
     9    5   21 1   
    10    5   22 1   
    11    6    7 1   
    12    6    8 1   
    13    6   23 1   
    14    7    8 1   
    15    7   24 1   
    16    7   25 1   
    17    8    9 1   
    18    8   26 1   
    19    9   10 ar  
    20    9   14 ar  
    21   10   11 ar  
    22   10   27 1   
    23   11   12 1   
    24   11   16 ar  
    25   12   13 1   
    26   13   28 1   
    27   13   29 1   
    28   13   30 1   
    29   14   15 ar  
    30   14   31 1   
    31   15   16 ar  
    32   15   32 1   
    33   16   17 1   
    34   17   33 1   
@<TRIPOS>SUBSTRUCTURE
     1 EMF         1 TEMP              0 ****  ****    0 ROOT
