@<TRIPOS>MOLECULE
EMF
   33    29     1     0     0
SMALL
bcc


@<TRIPOS>ATOM
      1 O9         -0.7360    0.2250    3.2730 o         1 EMF     -0.351000
      2 C9         -0.7300    1.2500    2.6130 c1        1 EMF      0.331000
      3 O10        -0.8810    2.5070    3.2540 o         1 EMF     -0.286000
      4 C11        -1.4500    2.4260    4.5530 c3        1 EMF     -0.011000
      5 C12        -1.1850    3.7290    5.3090 c3        1 EMF     -0.219000
      6 C8         -0.6120    1.1720    0.9680 cx        1 EMF     -0.179000
      7 C14         0.6970    1.0260    0.8230 cx        1 EMF     -0.174000
      8 C7          0.0240   -0.0760    0.8120 cx        1 EMF     -0.092000
      9 C1          0.6990   -0.9120   -1.0850 c2        1 EMF     -0.065000
     10 C2         -0.1760   -1.6660   -1.8610 c1        1 EMF     -0.115000
     11 C3          0.2820   -2.2950   -3.0150 c1        1 EMF      0.041000
     12 O3         -0.5790   -3.1530   -3.7410 o         1 EMF     -0.211000
     13 C13        -1.2300   -2.5250   -4.8330 c3        1 EMF     -0.067000
     14 C6          2.0310   -0.7860   -1.4640 c2        1 EMF     -0.113000
     15 C5          2.4890   -1.4140   -2.6160 c1        1 EMF     -0.183000
     16 C4          1.6150   -2.1680   -3.3920 c1        1 EMF      0.041000
     17 O4          2.0960   -2.8610   -4.5250 o         1 EMF     -0.258000
     18 H111       -2.4200    2.2830    4.4770 h1        1 EMF      0.091500
     19 H112       -1.0460    1.6760    5.0420 h1        1 EMF      0.091500
     20 H121       -1.8170    3.8090    6.0570 hc        1 EMF      0.086667
     21 H122       -1.3010    4.4910    4.6990 hc        1 EMF      0.086667
     22 H123       -0.2650    3.7250    5.6560 hc        1 EMF      0.086667
     23 H8         -1.3860    1.7070    0.6850 hc        1 EMF      0.159000
     24 H141        1.2310    1.1850    1.6340 hc        1 EMF      0.124500
     25 H142        1.0580    1.3070   -0.0460 hc        1 EMF      0.124500
     26 H7          0.2310   -0.5840    1.6260 hc        1 EMF      0.147000
     27 H2         -1.1110   -1.7700   -1.5840 ha        1 EMF      0.157000
     28 H131       -0.6070   -1.9080   -5.2750 h1        1 EMF      0.086667
     29 H132       -2.0090   -2.0240   -4.5060 h1        1 EMF      0.086667
     30 H133       -1.5260   -3.2080   -5.4760 h1        1 EMF      0.086667
     31 H6          2.6480   -0.2540   -0.9170 ha        1 EMF      0.138000
     32 H5          3.4300   -1.3250   -2.8830 ha        1 EMF      0.135000
     33 HO4         2.5390   -3.5870   -4.2640 ho        1 EMF      0.219000
@<TRIPOS>BOND
     1    1    2 1   
     2    2    6 1   
     3    3    4 1   
     4    4    5 1   
     5    4   18 1   
     6    4   19 1   
     7    5   20 1   
     8    5   21 1   
     9    5   22 1   
    10    6    7 1   
    11    6    8 1   
    12    6   23 1   
    13    7    8 1   
    14    7   24 1   
    15    7   25 1   
    16    8    9 1   
    17    8   26 1   
    18    9   10 1   
    19    9   14 1   
    20   10   27 1   
    21   11   16 1   
    22   12   13 1   
    23   13   28 1   
    24   13   29 1   
    25   13   30 1   
    26   14   15 1   
    27   14   31 1   
    28   15   32 1   
    29   17   33 1   
@<TRIPOS>SUBSTRUCTURE
     1 EMF         1 TEMP              0 ****  ****    0 ROOT
