@<TRIPOS>MOLECULE
EMF
   33    34     1     0     0
SMALL
bcc


@<TRIPOS>ATOM
      1 O9         -0.1720   -0.5240    0.2260 o         1 EMF     -0.551000
      2 C9          1.0320   -0.3670    0.0050 c         1 EMF      0.662100
      3 O10         1.8560   -0.1010    1.0640 os        1 EMF     -0.436900
      4 C11         1.2320   -0.0250    2.3580 c3        1 EMF      0.138400
      5 C12         2.3360    0.2770    3.3420 c3        1 EMF     -0.100100
      6 C8          1.7540   -0.4240   -1.2820 cx        1 EMF     -0.193700
      7 C14         1.3400   -1.4600   -2.2940 cx        1 EMF     -0.094400
      8 C7          0.9980   -0.0150   -2.5360 cx        1 EMF     -0.043400
      9 C1          1.6730    0.7700   -3.5780 ca        1 EMF     -0.064300
     10 C2          0.9480    1.7700   -4.2420 ca        1 EMF     -0.149000
     11 C3          1.5620    2.5270   -5.2380 ca        1 EMF      0.044100
     12 O3          0.9480    3.5340   -5.9660 os        1 EMF     -0.348900
     13 C13        -0.3910    3.8440   -5.5950 c3        1 EMF      0.120700
     14 C6          3.0100    0.5430   -3.9220 ca        1 EMF     -0.121000
     15 C5          3.6330    1.2940   -4.9150 ca        1 EMF     -0.135000
     16 C4          2.9150    2.2920   -5.5820 ca        1 EMF      0.115100
     17 O4          3.5740    3.0030   -6.5540 oh        1 EMF     -0.494100
     18 H111        0.4560    0.7850    2.3360 h1        1 EMF      0.051700
     19 H112        0.7320   -1.0050    2.5740 h1        1 EMF      0.051700
     20 H121        1.9000    0.3470    4.3670 hc        1 EMF      0.048033
     21 H122        2.8340    1.2420    3.0880 hc        1 EMF      0.048033
     22 H123        3.1060   -0.5310    3.3260 hc        1 EMF      0.048033
     23 H8          2.8270   -0.1580   -1.1900 hc        1 EMF      0.116700
     24 H141        0.5180   -2.1540   -2.0370 hc        1 EMF      0.087700
     25 H142        2.1280   -1.9430   -2.9000 hc        1 EMF      0.087700
     26 H7         -0.0670    0.2730   -2.3920 hc        1 EMF      0.101700
     27 H2         -0.1030    1.9510   -3.9720 ha        1 EMF      0.142000
     28 H131       -0.4390    4.1680   -4.5270 h1        1 EMF      0.047033
     29 H132       -0.6590    4.6890   -6.2790 h1        1 EMF      0.047033
     30 H133       -1.0590    2.9670   -5.7710 h1        1 EMF      0.047033
     31 H6          3.5850   -0.2400   -3.4030 ha        1 EMF      0.135000
     32 H5          4.6840    1.1170   -5.1860 ha        1 EMF      0.154000
     33 HO4         2.9600    3.6600   -6.9170 ho        1 EMF      0.437000
@<TRIPOS>BOND
     1    1    2 2   
     2    2    3 1   
     3    2    6 1   
     4    3    4 1   
     5    4    5 1   
     6    4   18 1   
     7    4   19 1   
     8    5   20 1   
     9    5   21 1   
    10    5   22 1   
    11    6    7 1   
    12    6    8 1   
    13    6   23 1   
    14    7    8 1   
    15    7   24 1   
    16    7   25 1   
    17    8    9 1   
    18    8   26 1   
    19    9   10 ar  
    20    9   14 ar  
    21   10   11 ar  
    22   10   27 1   
    23   11   12 1   
    24   11   16 ar  
    25   12   13 1   
    26   13   28 1   
    27   13   29 1   
    28   13   30 1   
    29   14   15 ar  
    30   14   31 1   
    31   15   16 ar  
    32   15   32 1   
    33   16   17 1   
    34   17   33 1   
@<TRIPOS>SUBSTRUCTURE
     1 EMF         1 TEMP              0 ****  ****    0 ROOT
