@<TRIPOS>MOLECULE
EMF
   33    34     1     0     0
SMALL
bcc


@<TRIPOS>ATOM
      1 O9          3.3500    0.9650    1.3640 o         1 EMF     -0.551000
      2 C9          3.0190    0.0650    0.5880 c         1 EMF      0.662100
      3 O10         3.8730   -0.2600   -0.4300 os        1 EMF     -0.436900
      4 C11         5.0980    0.4920   -0.5030 c3        1 EMF      0.138400
      5 C12         5.8530   -0.0470   -1.6930 c3        1 EMF     -0.100100
      6 C8          1.7880   -0.7520    0.5860 cx        1 EMF     -0.193700
      7 C14         1.2170   -1.1950    1.9070 cx        1 EMF     -0.094400
      8 C7          0.5170   -0.1170    1.1250 cx        1 EMF     -0.043400
      9 C1         -0.7680   -0.3640    0.4580 ca        1 EMF     -0.064300
     10 C2         -1.6900    0.6900    0.3640 ca        1 EMF     -0.149000
     11 C3         -2.9190    0.4820   -0.2610 ca        1 EMF      0.044100
     12 O3         -3.9090    1.4410   -0.4070 os        1 EMF     -0.348900
     13 C13        -3.5880    2.7460    0.0610 c3        1 EMF      0.120700
     14 C6         -1.0920   -1.6150   -0.0790 ca        1 EMF     -0.121000
     15 C5         -2.3160   -1.8320   -0.7060 ca        1 EMF     -0.135000
     16 C4         -3.2400   -0.7850   -0.8020 ca        1 EMF      0.115100
     17 O4         -4.4340   -1.0520   -1.4270 oh        1 EMF     -0.494100
     18 H111        4.8460    1.5780   -0.6220 h1        1 EMF      0.051700
     19 H112        5.6640    0.3500    0.4540 h1        1 EMF      0.051700
     20 H121        6.8160    0.5080   -1.7940 hc        1 EMF      0.048033
     21 H122        6.0680   -1.1350   -1.5620 hc        1 EMF      0.048033
     22 H123        5.2560    0.0820   -2.6280 hc        1 EMF      0.048033
     23 H8          1.7210   -1.4330   -0.2870 hc        1 EMF      0.116700
     24 H141        0.7670   -2.2030    1.9700 hc        1 EMF      0.087700
     25 H142        1.7430   -0.9070    2.8360 hc        1 EMF      0.087700
     26 H7          0.6160    0.9210    1.5140 hc        1 EMF      0.101700
     27 H2         -1.4370    1.6730    0.7840 ha        1 EMF      0.142000
     28 H131       -4.5020    3.3420   -0.1900 h1        1 EMF      0.047033
     29 H132       -3.4150    2.7340    1.1640 h1        1 EMF      0.047033
     30 H133       -2.6940    3.1480   -0.4740 h1        1 EMF      0.047033
     31 H6         -0.3710   -2.4440   -0.0100 ha        1 EMF      0.135000
     32 H5         -2.5720   -2.8140   -1.1280 ha        1 EMF      0.154000
     33 HO4        -4.9620   -0.2390   -1.4270 ho        1 EMF      0.437000
@<TRIPOS>BOND
     1    1    2 2   
     2    2    3 1   
     3    2    6 1   
     4    3    4 1   
     5    4    5 1   
     6    4   18 1   
     7    4   19 1   
     8    5   20 1   
     9    5   21 1   
    10    5   22 1   
    11    6    7 1   
    12    6    8 1   
    13    6   23 1   
    14    7    8 1   
    15    7   24 1   
    16    7   25 1   
    17    8    9 1   
    18    8   26 1   
    19    9   10 ar  
    20    9   14 ar  
    21   10   11 ar  
    22   10   27 1   
    23   11   12 1   
    24   11   16 ar  
    25   12   13 1   
    26   13   28 1   
    27   13   29 1   
    28   13   30 1   
    29   14   15 ar  
    30   14   31 1   
    31   15   16 ar  
    32   15   32 1   
    33   16   17 1   
    34   17   33 1   
@<TRIPOS>SUBSTRUCTURE
     1 EMF         1 TEMP              0 ****  ****    0 ROOT
