@<TRIPOS>MOLECULE
EMH
   70    66     1     0     0
SMALL
bcc


@<TRIPOS>ATOM
      1 C4          6.6890   -0.3230   -3.0060 c1        1 EMH     -0.098500
      2 C5          8.7650   -0.1990   -1.7860 c1        1 EMH     -0.004000
      3 C6          8.0810   -0.2750   -2.9950 c1        1 EMH     -0.098500
      4 C7          4.6040   -0.2580   -1.5190 c1        1 EMH     -0.221000
      5 C8          4.4490   -0.1610   -0.1510 c1        1 EMH      0.053000
      6 C10        -0.6160   -0.0430   -0.7600 c1        1 EMH      0.036000
      7 C13         0.8380   -0.2630   -2.6840 c1        1 EMH     -0.080000
      8 C15         1.9680   -0.2920   -1.8290 c1        1 EMH     -0.131000
      9 C17         3.0370   -0.2050    0.4730 c2        1 EMH      0.033000
     10 C21         2.9130    0.9910    1.4000 c3        1 EMH     -0.206500
     11 C22         2.9560   -1.4480    1.3160 c3        1 EMH     -0.206500
     12 C24        -1.3710    0.7450   -4.2760 c3        1 EMH     -0.204000
     13 C26        -4.1010   -0.0620    1.6440 c3        1 EMH     -0.010000
     14 C28        -3.8090   -1.2660    0.8190 c3        1 EMH     -0.158500
     15 N19        11.4040   -0.1210   -2.1040 n1        1 EMH     -0.043000
     16 C18        10.2700   -0.1550   -1.9670 c1        1 EMH     -0.094000
     17 C3          8.0590   -0.1720   -0.5900 c1        1 EMH     -0.098000
     18 C1          6.6510   -0.2210   -0.6010 c1        1 EMH     -0.022000
     19 C2          5.9750   -0.2950   -1.7960 c1        1 EMH     -0.013000
     20 N9          5.7100   -0.1370    0.4220 n1        1 EMH     -0.195000
     21 C14         1.8000   -0.1970   -0.4640 c2        1 EMH     -0.026000
     22 C16         3.3740   -0.4310   -2.4190 c1        1 EMH      0.343000
     23 O20         3.5160   -0.6550   -3.6070 o         1 EMH     -0.308000
     24 C12         0.4980   -0.0710    0.0840 c2        1 EMH     -0.169000
     25 C11        -0.4470   -0.1390   -2.1420 c1        1 EMH     -0.049000
     26 C23        -1.2670   -0.4830   -3.3790 c3        1 EMH     -0.117000
     27 N25        -2.0390   -0.0230   -0.3970 n3        1 EMH     -0.226000
     28 C29        -2.3230    1.1720    0.4160 c3        1 EMH     -0.064000
     29 C27        -3.7500    1.1870    0.9520 c3        1 EMH     -0.158500
     30 C30        -2.3870   -1.2720    0.2860 c3        1 EMH     -0.064000
     31 N31        -5.5530   -0.0430    1.9690 n3        1 EMH     -0.254000
     32 C32        -5.7600   -0.5260    3.4160 c3        1 EMH     -0.102000
     33 C34        -7.2010   -0.4180    3.8690 c3        1 EMH     -0.035500
     34 O36        -7.8480    0.3890    3.1500 os        1 EMH     -0.279000
     35 C35        -7.4440    1.4930    2.6900 c3        1 EMH     -0.035500
     36 C33        -6.0040    1.4010    2.2250 c3        1 EMH     -0.102000
     37 H4          6.2100   -0.3760   -3.8540 ha        1 EMH      0.157000
     38 H6          8.5770   -0.2470   -3.8390 ha        1 EMH      0.157000
     39 H13         0.9560   -0.3310   -3.6540 ha        1 EMH      0.163000
     40 H21         2.0410    0.9680    1.8470 hc        1 EMH      0.086000
     41 H21A        2.9920    1.8170    0.8800 hc        1 EMH      0.086000
     42 H21B        3.6290    0.9580    2.0760 hc        1 EMH      0.086000
     43 H22         3.8210   -1.6030    1.7530 hc        1 EMH      0.086000
     44 H22A        2.2640   -1.3360    1.9950 hc        1 EMH      0.086000
     45 H22B        2.7350   -2.2130    0.7480 hc        1 EMH      0.086000
     46 H24        -0.9520    0.5530   -5.1450 hc        1 EMH      0.075667
     47 H24A       -0.9130    1.5000   -3.8510 hc        1 EMH      0.075667
     48 H24B       -2.3170    0.9710   -4.4120 hc        1 EMH      0.075667
     49 H26        -3.5900   -0.1170    2.4760 h1        1 EMH      0.056000
     50 H28        -3.9450   -2.0630    1.3650 hc        1 EMH      0.097500
     51 H28A       -4.4300   -1.2890    0.0650 hc        1 EMH      0.097500
     52 H3          8.5410   -0.1190    0.2620 ha        1 EMH      0.145000
     53 H12         0.3800   -0.0040    1.0460 ha        1 EMH      0.133000
     54 H23        -0.8280   -1.2090   -3.8700 hc        1 EMH      0.093500
     55 H23A       -2.1650   -0.7680   -3.1080 hc        1 EMH      0.093500
     56 H29        -1.7030    1.1950    1.1690 h1        1 EMH      0.074750
     57 H29A       -2.1830    1.9660   -0.1310 h1        1 EMH      0.074750
     58 H27        -4.3660    1.3190    0.2060 hc        1 EMH      0.097500
     59 H27A       -3.8450    1.9320    1.5760 hc        1 EMH      0.097500
     60 H30        -1.7720   -1.4060    1.0310 h1        1 EMH      0.074750
     61 H30A       -2.2890   -2.0170   -0.3450 h1        1 EMH      0.074750
     62 H32        -5.2000    0.0150    4.0120 h1        1 EMH      0.090250
     63 H32A       -5.4800   -1.4570    3.4790 h1        1 EMH      0.090250
     64 H34        -7.2230   -0.1080    4.7970 h1        1 EMH      0.089750
     65 H34A       -7.6210   -1.3010    3.8160 h1        1 EMH      0.089750
     66 H35        -7.5120    2.1750    3.3880 h1        1 EMH      0.089750
     67 H35A       -8.0090    1.7510    1.9330 h1        1 EMH      0.089750
     68 H33        -5.9080    1.9110    1.4000 h1        1 EMH      0.090250
     69 H33A       -5.4250    1.7960    2.9100 h1        1 EMH      0.090250
     70 H9          5.8920   -0.0900    1.3160 DU        1 EMH      0.256000
@<TRIPOS>BOND
     1    1    3 1   
     2    1   37 1   
     3    2   16 1   
     4    2   17 1   
     5    3   38 1   
     6    4    5 1   
     7    4   19 1   
     8    5   20 1   
     9    6   24 1   
    10    6   27 1   
    11    7   25 1   
    12    7   39 1   
    13    8   21 1   
    14    8   22 1   
    15    9   10 1   
    16    9   11 1   
    17    9   21 1   
    18   10   40 1   
    19   10   41 1   
    20   10   42 1   
    21   11   43 1   
    22   11   44 1   
    23   11   45 1   
    24   12   26 1   
    25   12   46 1   
    26   12   47 1   
    27   12   48 1   
    28   13   14 1   
    29   13   29 1   
    30   13   31 1   
    31   13   49 1   
    32   14   30 1   
    33   14   50 1   
    34   14   51 1   
    35   15   16 1   
    36   17   52 1   
    37   18   19 1   
    38   21   24 1   
    39   22   23 1   
    40   24   53 1   
    41   25   26 1   
    42   26   54 1   
    43   26   55 1   
    44   27   28 1   
    45   27   30 1   
    46   28   29 1   
    47   28   56 1   
    48   28   57 1   
    49   29   58 1   
    50   29   59 1   
    51   30   60 1   
    52   30   61 1   
    53   31   32 1   
    54   31   36 1   
    55   32   33 1   
    56   32   62 1   
    57   32   63 1   
    58   33   34 1   
    59   33   64 1   
    60   33   65 1   
    61   34   35 1   
    62   35   36 1   
    63   35   66 1   
    64   35   67 1   
    65   36   68 1   
    66   36   69 1   
@<TRIPOS>SUBSTRUCTURE
     1 EMH         1 TEMP              0 ****  ****    0 ROOT
