@<TRIPOS>MOLECULE
EMH
   70    75     1     0     0
SMALL
bcc


@<TRIPOS>ATOM
      1 C4          0.1340   -0.2660    0.0750 ca        1 EMH     -0.083000
      2 C5          2.1790   -0.7020    1.3300 ca        1 EMH     -0.009000
      3 C6          1.4900   -0.5530    0.1050 ca        1 EMH     -0.114000
      4 C7         -1.9210    0.1630    1.6320 cc        1 EMH     -0.228400
      5 C8         -2.0030    0.1760    3.0350 cd        1 EMH      0.021700
      6 C10        -6.8170    1.1980    2.7330 ca        1 EMH      0.117600
      7 C13        -5.4760    0.9160    0.7430 ca        1 EMH     -0.080000
      8 C15        -4.3310    0.6730    1.5080 ca        1 EMH     -0.151600
      9 C17        -3.2450    0.4360    3.8290 c3        1 EMH      0.044500
     10 C21        -3.0170    1.6610    4.7150 c3        1 EMH     -0.088600
     11 C22        -3.5340   -0.7830    4.7060 c3        1 EMH     -0.088600
     12 C24        -8.1410    2.8960    0.2190 c3        1 EMH     -0.086100
     13 C26        -9.8970    1.8090    5.6280 c3        1 EMH      0.186500
     14 C28        -9.9720    0.5780    4.7110 c3        1 EMH     -0.093900
     15 N19         4.7090   -1.2370    1.2920 n1        1 EMH     -0.368800
     16 C18         3.5700   -0.9960    1.3100 cg        1 EMH      0.235800
     17 C3          1.5290   -0.5690    2.5580 ca        1 EMH     -0.098000
     18 C1          0.1600   -0.2790    2.5320 ca        1 EMH     -0.067200
     19 C2         -0.5510   -0.1250    1.2820 ca        1 EMH     -0.024800
     20 N9         -0.7520   -0.0900    3.5830 na        1 EMH     -0.172400
     21 C14        -4.4200    0.6880    2.9100 ca        1 EMH     -0.033300
     22 C16        -3.0640    0.4070    0.7800 c         1 EMH      0.621900
     23 O20        -3.0090    0.3990   -0.4590 o         1 EMH     -0.547100
     24 C12        -5.6610    0.9490    3.4990 ca        1 EMH     -0.168000
     25 C11        -6.7200    1.1780    1.3230 ca        1 EMH     -0.057300
     26 C23        -7.8910    1.4210    0.4340 c3        1 EMH     -0.031100
     27 N25        -8.0870    1.4670    3.3490 nh        1 EMH     -0.626000
     28 C29        -8.0790    2.6960    4.1360 c3        1 EMH      0.175300
     29 C27        -9.4310    3.0000    4.7750 c3        1 EMH     -0.093900
     30 C30        -8.6050    0.3160    4.0820 c3        1 EMH      0.175300
     31 N31       -11.1250    2.0020    6.3970 n3        1 EMH     -0.728600
     32 C32       -10.9490    2.9050    7.5270 c3        1 EMH      0.135300
     33 C34       -12.2370    3.0720    8.3420 c3        1 EMH      0.125900
     34 O36       -13.3350    3.4520    7.5210 os        1 EMH     -0.415600
     35 C35       -13.5500    2.5320    6.4560 c3        1 EMH      0.125900
     36 C33       -12.2900    2.3540    5.5990 c3        1 EMH      0.135300
     37 H4         -0.4100   -0.1480   -0.8760 ha        1 EMH      0.167000
     38 H6          2.0480   -0.6680   -0.8380 ha        1 EMH      0.146000
     39 H13        -5.3820    0.8980   -0.3590 ha        1 EMH      0.163000
     40 H21        -3.9370    1.8880    5.3040 hc        1 EMH      0.046867
     41 H21A       -2.7640    2.5510    4.0890 hc        1 EMH      0.046867
     42 H21B       -2.1800    1.4730    5.4300 hc        1 EMH      0.046867
     43 H22        -3.6630   -1.6940    4.0740 hc        1 EMH      0.046867
     44 H22A       -4.4680   -0.6220    5.2950 hc        1 EMH      0.046867
     45 H22B       -2.6940   -0.9550    5.4200 hc        1 EMH      0.046867
     46 H24        -8.3580    3.4030    1.1900 hc        1 EMH      0.036700
     47 H24A       -9.0170    3.0370   -0.4590 hc        1 EMH      0.036700
     48 H24B       -7.2500    3.3840   -0.2450 hc        1 EMH      0.036700
     49 H26        -9.0870    1.6050    6.3940 h1        1 EMH      0.051700
     50 H28       -10.2700   -0.3280    5.2980 hc        1 EMH      0.056200
     51 H28A      -10.7340    0.7390    3.9060 hc        1 EMH      0.056200
     52 H3          2.0740   -0.6870    3.5050 ha        1 EMH      0.145000
     53 H12        -5.7400    0.9610    4.5990 ha        1 EMH      0.133000
     54 H23        -8.8100    0.9450    0.8700 hc        1 EMH      0.053700
     55 H23A       -7.7090    0.9300   -0.5610 hc        1 EMH      0.053700
     56 H29        -7.8080    3.5370    3.4380 h1        1 EMH      0.035950
     57 H29A       -7.2970    2.6620    4.9520 h1        1 EMH      0.035950
     58 H27       -10.1880    3.2180    3.9770 hc        1 EMH      0.056200
     59 H27A       -9.3200    3.9180    5.4070 hc        1 EMH      0.056200
     60 H30        -8.7020   -0.5320    3.3460 h1        1 EMH      0.035950
     61 H30A       -7.8920   -0.0150    4.8940 h1        1 EMH      0.035950
     62 H32       -10.6040    3.9290    7.1970 h1        1 EMH      0.040700
     63 H32A      -10.1570    2.4720    8.1990 h1        1 EMH      0.040700
     64 H34       -12.4860    2.1240    8.8870 h1        1 EMH      0.053700
     65 H34A      -12.1250    3.9180    9.0690 h1        1 EMH      0.053700
     66 H35       -13.8890    1.5480    6.8730 h1        1 EMH      0.053700
     67 H35A      -14.3680    2.9970    5.8470 h1        1 EMH      0.053700
     68 H33       -12.4750    1.5200    4.8660 h1        1 EMH      0.040700
     69 H33A      -12.1260    3.3050    5.0130 h1        1 EMH      0.040700
     70 H9         -0.5400   -0.1380    4.5440 hn        1 EMH      0.305700
@<TRIPOS>BOND
     1    1    3 ar  
     2    1   19 ar  
     3    1   37 1   
     4    2    3 ar  
     5    2   16 1   
     6    2   17 ar  
     7    3   38 1   
     8    4    5 2   
     9    4   19 1   
    10    4   22 1   
    11    5    9 1   
    12    5   20 1   
    13    6   24 ar  
    14    6   25 ar  
    15    6   27 1   
    16    7    8 ar  
    17    7   25 ar  
    18    7   39 1   
    19    8   21 ar  
    20    8   22 1   
    21    9   10 1   
    22    9   11 1   
    23    9   21 1   
    24   10   40 1   
    25   10   41 1   
    26   10   42 1   
    27   11   43 1   
    28   11   44 1   
    29   11   45 1   
    30   12   26 1   
    31   12   46 1   
    32   12   47 1   
    33   12   48 1   
    34   13   14 1   
    35   13   29 1   
    36   13   31 1   
    37   13   49 1   
    38   14   30 1   
    39   14   50 1   
    40   14   51 1   
    41   15   16 3   
    42   17   18 ar  
    43   17   52 1   
    44   18   19 ar  
    45   18   20 1   
    46   20   70 1   
    47   21   24 ar  
    48   22   23 2   
    49   24   53 1   
    50   25   26 1   
    51   26   54 1   
    52   26   55 1   
    53   27   28 1   
    54   27   30 1   
    55   28   29 1   
    56   28   56 1   
    57   28   57 1   
    58   29   58 1   
    59   29   59 1   
    60   30   60 1   
    61   30   61 1   
    62   31   32 1   
    63   31   36 1   
    64   32   33 1   
    65   32   62 1   
    66   32   63 1   
    67   33   34 1   
    68   33   64 1   
    69   33   65 1   
    70   34   35 1   
    71   35   36 1   
    72   35   66 1   
    73   35   67 1   
    74   36   68 1   
    75   36   69 1   
@<TRIPOS>SUBSTRUCTURE
     1 EMH         1 TEMP              0 ****  ****    0 ROOT
