@<TRIPOS>MOLECULE
EMH
   70    75     1     0     0
SMALL
bcc


@<TRIPOS>ATOM
      1 C4         -6.3420   -1.1120    0.0210 ca        1 EMH     -0.083000
      2 C5         -7.8940    0.7630   -0.1170 ca        1 EMH     -0.009000
      3 C6         -7.6380   -0.6220   -0.0040 ca        1 EMH     -0.114000
      4 C7         -3.8430   -0.3480   -0.0710 cc        1 EMH     -0.228400
      5 C8         -3.2980    0.9420   -0.1850 cd        1 EMH      0.021700
      6 C10         1.2420   -0.9800   -0.0750 ca        1 EMH      0.117600
      7 C13        -0.7130   -2.3940    0.0610 ca        1 EMH     -0.080000
      8 C15        -1.5620   -1.2850   -0.0200 ca        1 EMH     -0.151600
      9 C17        -1.8370    1.2650   -0.2290 c3        1 EMH      0.044500
     10 C21        -1.5000    2.1870    0.9430 c3        1 EMH     -0.088600
     11 C22        -1.5290    1.9780   -1.5460 c3        1 EMH     -0.088600
     12 C24         1.9710   -3.7790    1.5340 c3        1 EMH     -0.086100
     13 C26         5.1660    0.6920   -0.2890 c3        1 EMH      0.186500
     14 C28         4.6760   -0.2060   -1.4360 c3        1 EMH     -0.093900
     15 N19       -10.3450    1.5880   -0.1570 n1        1 EMH     -0.368800
     16 C18        -9.2420    1.2180   -0.1390 cg        1 EMH      0.235800
     17 C3         -6.8600    1.6960   -0.2060 ca        1 EMH     -0.098000
     18 C1         -5.5490    1.2060   -0.1810 ca        1 EMH     -0.067200
     19 C2         -5.2790   -0.2110   -0.0660 ca        1 EMH     -0.024800
     20 N9         -4.3210    1.8820   -0.2510 na        1 EMH     -0.172400
     21 C14        -1.0100    0.0020   -0.1330 ca        1 EMH     -0.033300
     22 C16        -3.0250   -1.5380    0.0180 c         1 EMH      0.621900
     23 O20        -3.4900   -2.6830    0.1180 o         1 EMH     -0.547100
     24 C12         0.3820    0.1330   -0.1590 ca        1 EMH     -0.168000
     25 C11         0.6780   -2.2720    0.0360 ca        1 EMH     -0.057300
     26 C23         1.5100   -3.5060    0.1220 c3        1 EMH     -0.031100
     27 N25         2.6710   -0.8330   -0.1020 nh        1 EMH     -0.626000
     28 C29         3.1780   -0.0790    1.0400 c3        1 EMH      0.175300
     29 C27         4.6980    0.0600    1.0310 c3        1 EMH     -0.093900
     30 C30         3.1550   -0.3320   -1.3840 c3        1 EMH      0.175300
     31 N31         6.5910    0.9960   -0.3950 n3        1 EMH     -0.728600
     32 C32         6.9910    2.1260    0.4340 c3        1 EMH      0.135300
     33 C34         8.4830    2.4530    0.2880 c3        1 EMH      0.125900
     34 O36         9.2970    1.3090    0.5160 os        1 EMH     -0.415600
     35 C35         8.9510    0.2270   -0.3410 c3        1 EMH      0.125900
     36 C33         7.4710   -0.1500   -0.2090 c3        1 EMH      0.135300
     37 H4         -6.1330   -2.1900    0.1090 ha        1 EMH      0.167000
     38 H6         -8.4890   -1.3180    0.0640 ha        1 EMH      0.146000
     39 H13        -1.1700   -3.3960    0.1480 ha        1 EMH      0.163000
     40 H21        -1.7580    1.6950    1.9110 hc        1 EMH      0.046867
     41 H21A       -0.4100    2.4290    0.9440 hc        1 EMH      0.046867
     42 H21B       -2.0710    3.1440    0.8610 hc        1 EMH      0.046867
     43 H22        -2.0990    2.9360   -1.6110 hc        1 EMH      0.046867
     44 H22A       -0.4400    2.2140   -1.6130 hc        1 EMH      0.046867
     45 H22B       -1.8080    1.3320   -2.4120 hc        1 EMH      0.046867
     46 H24         1.0970   -3.9050    2.2170 hc        1 EMH      0.036700
     47 H24A        2.5800   -4.7140    1.5600 hc        1 EMH      0.036700
     48 H24B        2.5980   -2.9360    1.9130 hc        1 EMH      0.036700
     49 H26         4.6340    1.6870   -0.3960 h1        1 EMH      0.051700
     50 H28         4.9610    0.2340   -2.4260 hc        1 EMH      0.056200
     51 H28A        5.1430   -1.2220   -1.3600 hc        1 EMH      0.056200
     52 H3         -7.0700    2.7710   -0.2930 ha        1 EMH      0.145000
     53 H12         0.8240    1.1390   -0.2500 ha        1 EMH      0.133000
     54 H23         2.4030   -3.4150   -0.5530 hc        1 EMH      0.053700
     55 H23A        0.9100   -4.3830   -0.2460 hc        1 EMH      0.053700
     56 H29         2.7230    0.9540    1.0920 h1        1 EMH      0.035950
     57 H29A        2.8690   -0.6350    1.9710 h1        1 EMH      0.035950
     58 H27         5.1730   -0.9460    1.1650 hc        1 EMH      0.056200
     59 H27A        4.9950    0.7010    1.9010 hc        1 EMH      0.056200
     60 H30         2.7020    0.6720   -1.6360 h1        1 EMH      0.035950
     61 H30A        2.8250   -1.0650   -2.1740 h1        1 EMH      0.035950
     62 H32         6.3980    3.0250    0.1070 h1        1 EMH      0.040700
     63 H32A        6.7750    1.9440    1.5270 h1        1 EMH      0.040700
     64 H34         8.6990    2.8710   -0.7300 h1        1 EMH      0.053700
     65 H34A        8.7960    3.1820    1.0800 h1        1 EMH      0.053700
     66 H35         9.2010    0.4930   -1.4010 h1        1 EMH      0.053700
     67 H35A        9.5970   -0.6220    0.0070 h1        1 EMH      0.053700
     68 H33         7.3190   -0.6350    0.7990 h1        1 EMH      0.040700
     69 H33A        7.2250   -0.9090   -1.0020 h1        1 EMH      0.040700
     70 H9         -4.2060    2.8570   -0.3350 hn        1 EMH      0.305700
@<TRIPOS>BOND
     1    1    3 ar  
     2    1   19 ar  
     3    1   37 1   
     4    2    3 ar  
     5    2   16 1   
     6    2   17 ar  
     7    3   38 1   
     8    4    5 2   
     9    4   19 1   
    10    4   22 1   
    11    5    9 1   
    12    5   20 1   
    13    6   24 ar  
    14    6   25 ar  
    15    6   27 1   
    16    7    8 ar  
    17    7   25 ar  
    18    7   39 1   
    19    8   21 ar  
    20    8   22 1   
    21    9   10 1   
    22    9   11 1   
    23    9   21 1   
    24   10   40 1   
    25   10   41 1   
    26   10   42 1   
    27   11   43 1   
    28   11   44 1   
    29   11   45 1   
    30   12   26 1   
    31   12   46 1   
    32   12   47 1   
    33   12   48 1   
    34   13   14 1   
    35   13   29 1   
    36   13   31 1   
    37   13   49 1   
    38   14   30 1   
    39   14   50 1   
    40   14   51 1   
    41   15   16 3   
    42   17   18 ar  
    43   17   52 1   
    44   18   19 ar  
    45   18   20 1   
    46   20   70 1   
    47   21   24 ar  
    48   22   23 2   
    49   24   53 1   
    50   25   26 1   
    51   26   54 1   
    52   26   55 1   
    53   27   28 1   
    54   27   30 1   
    55   28   29 1   
    56   28   56 1   
    57   28   57 1   
    58   29   58 1   
    59   29   59 1   
    60   30   60 1   
    61   30   61 1   
    62   31   32 1   
    63   31   36 1   
    64   32   33 1   
    65   32   62 1   
    66   32   63 1   
    67   33   34 1   
    68   33   64 1   
    69   33   65 1   
    70   34   35 1   
    71   35   36 1   
    72   35   66 1   
    73   35   67 1   
    74   36   68 1   
    75   36   69 1   
@<TRIPOS>SUBSTRUCTURE
     1 EMH         1 TEMP              0 ****  ****    0 ROOT
