@<TRIPOS>MOLECULE
EMJ
   47    47     1     0     0
SMALL
bcc


@<TRIPOS>ATOM
      1 C2         -3.8350   -1.1930   -0.2210 c         1 EMJ      0.574500
      2 C3         -3.3600    0.1690   -0.5220 cc        1 EMJ     -0.204400
      3 C4         -4.1180    1.2510   -0.2090 cd        1 EMJ      0.056900
      4 C5         -5.4520    1.1540    0.4560 c         1 EMJ      0.560500
      5 C6         -5.9080   -0.1880    0.7860 cc        1 EMJ     -0.347200
      6 C7         -5.1620   -1.2740    0.4790 cd        1 EMJ      0.102900
      7 O8         -6.0960    2.1840    0.6960 o         1 EMJ     -0.523100
      8 O9         -3.2120   -2.2130   -0.5170 o         1 EMJ     -0.462100
      9 O10        -3.6570    2.5040   -0.5110 oh        1 EMJ     -0.476100
     10 O11        -5.5240   -2.5560    0.7610 oh        1 EMJ     -0.453100
     11 C12        -2.0360    0.2860   -1.1910 c3        1 EMJ     -0.028200
     12 C13        -0.8930    0.0880   -0.2120 c3        1 EMJ     -0.075400
     13 C14         0.4430    0.2110   -0.9130 c3        1 EMJ     -0.077400
     14 C15         1.5880    0.0130    0.0570 c3        1 EMJ     -0.078400
     15 C16         2.9260    0.1350   -0.6410 c3        1 EMJ     -0.079400
     16 C17         4.0710   -0.0630    0.3280 c3        1 EMJ     -0.079400
     17 C18         5.4090    0.0590   -0.3690 c3        1 EMJ     -0.079400
     18 C19         6.5540   -0.1380    0.6000 c3        1 EMJ     -0.079400
     19 C20         7.8920   -0.0160   -0.0980 c3        1 EMJ     -0.079400
     20 C21         9.0390   -0.2130    0.8710 c3        1 EMJ     -0.080400
     21 C22        10.3730   -0.0930    0.1800 c3        1 EMJ     -0.092100
     22 H1         -6.8810   -0.2650    1.2930 ha        1 EMJ      0.165000
     23 H2         -4.3350    3.1500   -0.2380 ho        1 EMJ      0.447000
     24 H3         -6.3880   -2.5480    1.2080 ho        1 EMJ      0.431000
     25 H4         -1.9680   -0.4920   -2.0000 hc        1 EMJ      0.065200
     26 H5         -0.9610    0.8510    0.6070 hc        1 EMJ      0.046700
     27 H6          0.5090   -0.5520   -1.7330 hc        1 EMJ      0.041700
     28 H7          0.5260    1.2220   -1.3920 hc        1 EMJ      0.041700
     29 H8          1.5220    0.7740    0.8790 hc        1 EMJ      0.040700
     30 H9          1.5050   -0.9990    0.5360 hc        1 EMJ      0.040700
     31 H10         2.9920   -0.6270   -1.4620 hc        1 EMJ      0.040200
     32 H11         3.0090    1.1460   -1.1210 hc        1 EMJ      0.040200
     33 H12         4.0050    0.6990    1.1500 hc        1 EMJ      0.039200
     34 H13         3.9880   -1.0740    0.8080 hc        1 EMJ      0.039200
     35 H14         5.4750   -0.7020   -1.1910 hc        1 EMJ      0.039700
     36 H15         5.4920    1.0700   -0.8490 hc        1 EMJ      0.039700
     37 H16         6.4880    0.6230    1.4210 hc        1 EMJ      0.039200
     38 H17         6.4710   -1.1490    1.0790 hc        1 EMJ      0.039200
     39 H18         7.9590   -0.7770   -0.9190 hc        1 EMJ      0.039700
     40 H19         7.9760    0.9950   -0.5770 hc        1 EMJ      0.039700
     41 H20         8.9690    0.5480    1.6920 hc        1 EMJ      0.038700
     42 H21         8.9530   -1.2240    1.3500 hc        1 EMJ      0.038700
     43 H22        11.2040   -0.2420    0.9110 hc        1 EMJ      0.032367
     44 H23        10.4710   -0.8600   -0.6260 hc        1 EMJ      0.032367
     45 H24        10.4870    0.9170   -0.2830 hc        1 EMJ      0.032367
     46 H25        -1.9460    1.2960   -1.6750 hc        1 EMJ      0.065200
     47 H26        -0.9820   -0.9260    0.2610 hc        1 EMJ      0.046700
@<TRIPOS>BOND
     1    1    2 1   
     2    1    6 1   
     3    1    8 2   
     4    2    3 2   
     5    2   11 1   
     6    3    4 1   
     7    3    9 1   
     8    4    5 1   
     9    4    7 2   
    10    5    6 2   
    11    5   22 1   
    12    6   10 1   
    13    9   23 1   
    14   10   24 1   
    15   11   12 1   
    16   11   25 1   
    17   11   46 1   
    18   12   13 1   
    19   12   26 1   
    20   12   47 1   
    21   13   14 1   
    22   13   27 1   
    23   13   28 1   
    24   14   15 1   
    25   14   29 1   
    26   14   30 1   
    27   15   16 1   
    28   15   31 1   
    29   15   32 1   
    30   16   17 1   
    31   16   33 1   
    32   16   34 1   
    33   17   18 1   
    34   17   35 1   
    35   17   36 1   
    36   18   19 1   
    37   18   37 1   
    38   18   38 1   
    39   19   20 1   
    40   19   39 1   
    41   19   40 1   
    42   20   21 1   
    43   20   41 1   
    44   20   42 1   
    45   21   43 1   
    46   21   44 1   
    47   21   45 1   
@<TRIPOS>SUBSTRUCTURE
     1 EMJ         1 TEMP              0 ****  ****    0 ROOT
