@<TRIPOS>MOLECULE
EMJ
   47    47     1     0     0
SMALL
bcc


@<TRIPOS>ATOM
      1 C2          0.0440   -0.0300   -0.1190 c         1 EMJ      0.574500
      2 C3          1.5110    0.0620   -0.0200 cc        1 EMJ     -0.204400
      3 C4          2.1150    0.2040    1.1880 cd        1 EMJ      0.056900
      4 C5          1.3650    0.2650    2.4780 c         1 EMJ      0.560500
      5 C6         -0.0820    0.1390    2.3860 cc        1 EMJ     -0.347200
      6 C7         -0.6950   -0.0020    1.1880 cd        1 EMJ      0.102900
      7 O8          1.9820    0.4120    3.5420 o         1 EMJ     -0.523100
      8 O9         -0.5620   -0.1190   -1.1880 o         1 EMJ     -0.462100
      9 O10         3.4790    0.2980    1.2500 oh        1 EMJ     -0.476100
     10 O11        -2.0410   -0.1290    1.0290 oh        1 EMJ     -0.453100
     11 C12         2.2760    0.0090   -1.2950 c3        1 EMJ     -0.028200
     12 C13         2.3860   -1.4090   -1.8250 c3        1 EMJ     -0.075400
     13 C14         3.1660   -1.4400   -3.1220 c3        1 EMJ     -0.077400
     14 C15         3.2800   -2.8510   -3.6580 c3        1 EMJ     -0.078400
     15 C16         4.0590   -2.8840   -4.9550 c3        1 EMJ     -0.079400
     16 C17         4.1730   -4.2950   -5.4900 c3        1 EMJ     -0.079400
     17 C18         4.9520   -4.3290   -6.7880 c3        1 EMJ     -0.079400
     18 C19         5.0670   -5.7400   -7.3230 c3        1 EMJ     -0.079400
     19 C20         5.8460   -5.7740   -8.6200 c3        1 EMJ     -0.079400
     20 C21         5.9620   -7.1850   -9.1570 c3        1 EMJ     -0.080400
     21 C22         6.7370   -7.2230  -10.4490 c3        1 EMJ     -0.092100
     22 H1         -0.6390    0.1650    3.3350 ha        1 EMJ      0.165000
     23 H2          3.7320    0.4170    2.1840 ho        1 EMJ      0.447000
     24 H3         -2.4670   -0.1010    1.9020 ho        1 EMJ      0.431000
     25 H4          1.7530    0.6490   -2.0580 hc        1 EMJ      0.065200
     26 H5          1.3570   -1.8230   -1.9920 hc        1 EMJ      0.046700
     27 H6          4.1920   -1.0170   -2.9550 hc        1 EMJ      0.041700
     28 H7          2.6580   -0.7890   -3.8820 hc        1 EMJ      0.041700
     29 H8          2.2530   -3.2730   -3.8240 hc        1 EMJ      0.040700
     30 H9          3.7860   -3.5020   -2.8970 hc        1 EMJ      0.040700
     31 H10         5.0850   -2.4610   -4.7880 hc        1 EMJ      0.040200
     32 H11         3.5520   -2.2330   -5.7150 hc        1 EMJ      0.040200
     33 H12         4.6800   -4.9460   -4.7300 hc        1 EMJ      0.039200
     34 H13         3.1480   -4.7190   -5.6570 hc        1 EMJ      0.039200
     35 H14         5.9780   -3.9050   -6.6220 hc        1 EMJ      0.039700
     36 H15         4.4450   -3.6780   -7.5480 hc        1 EMJ      0.039700
     37 H16         4.0420   -6.1640   -7.4890 hc        1 EMJ      0.039200
     38 H17         5.5740   -6.3910   -6.5630 hc        1 EMJ      0.039200
     39 H18         5.3390   -5.1240   -9.3810 hc        1 EMJ      0.039700
     40 H19         6.8720   -5.3500   -8.4550 hc        1 EMJ      0.039700
     41 H20         4.9360   -7.6080   -9.3210 hc        1 EMJ      0.038700
     42 H21         6.4680   -7.8340   -8.3950 hc        1 EMJ      0.038700
     43 H22         7.7710   -6.8290  -10.3010 hc        1 EMJ      0.032367
     44 H23         6.2340   -6.6020  -11.2290 hc        1 EMJ      0.032367
     45 H24         6.8100   -8.2720  -10.8270 hc        1 EMJ      0.032367
     46 H25         3.3040    0.4320   -1.1360 hc        1 EMJ      0.065200
     47 H26         2.8940   -2.0580   -1.0640 hc        1 EMJ      0.046700
@<TRIPOS>BOND
     1    1    2 1   
     2    1    6 1   
     3    1    8 2   
     4    2    3 2   
     5    2   11 1   
     6    3    4 1   
     7    3    9 1   
     8    4    5 1   
     9    4    7 2   
    10    5    6 2   
    11    5   22 1   
    12    6   10 1   
    13    9   23 1   
    14   10   24 1   
    15   11   12 1   
    16   11   25 1   
    17   11   46 1   
    18   12   13 1   
    19   12   26 1   
    20   12   47 1   
    21   13   14 1   
    22   13   27 1   
    23   13   28 1   
    24   14   15 1   
    25   14   29 1   
    26   14   30 1   
    27   15   16 1   
    28   15   31 1   
    29   15   32 1   
    30   16   17 1   
    31   16   33 1   
    32   16   34 1   
    33   17   18 1   
    34   17   35 1   
    35   17   36 1   
    36   18   19 1   
    37   18   37 1   
    38   18   38 1   
    39   19   20 1   
    40   19   39 1   
    41   19   40 1   
    42   20   21 1   
    43   20   41 1   
    44   20   42 1   
    45   21   43 1   
    46   21   44 1   
    47   21   45 1   
@<TRIPOS>SUBSTRUCTURE
     1 EMJ         1 TEMP              0 ****  ****    0 ROOT
