@<TRIPOS>MOLECULE
EMJ
   47    47     1     0     0
SMALL
bcc


@<TRIPOS>ATOM
      1 C2          0.0420   -0.0300   -0.1200 c         1 EMJ      0.574500
      2 C3          1.5090    0.0640   -0.0220 cc        1 EMJ     -0.204400
      3 C4          2.1130    0.2070    1.1850 cd        1 EMJ      0.056900
      4 C5          1.3640    0.2690    2.4750 c         1 EMJ      0.560500
      5 C6         -0.0830    0.1420    2.3840 cc        1 EMJ     -0.347200
      6 C7         -0.6970   -0.0010    1.1870 cd        1 EMJ      0.102900
      7 O8          1.9810    0.4180    3.5390 o         1 EMJ     -0.523100
      8 O9         -0.5640   -0.1210   -1.1890 o         1 EMJ     -0.462100
      9 O10         3.4780    0.3030    1.2470 oh        1 EMJ     -0.476100
     10 O11        -2.0420   -0.1300    1.0280 oh        1 EMJ     -0.453100
     11 C12         2.2740    0.0100   -1.2970 c3        1 EMJ     -0.028200
     12 C13         2.3860   -1.4080   -1.8260 c3        1 EMJ     -0.075400
     13 C14         3.1650   -1.4390   -3.1230 c3        1 EMJ     -0.077400
     14 C15         3.2790   -2.8510   -3.6580 c3        1 EMJ     -0.078400
     15 C16         4.0590   -2.8850   -4.9550 c3        1 EMJ     -0.079400
     16 C17         4.1740   -4.2960   -5.4890 c3        1 EMJ     -0.079400
     17 C18         4.9530   -4.3300   -6.7870 c3        1 EMJ     -0.079400
     18 C19         5.0680   -5.7420   -7.3220 c3        1 EMJ     -0.079400
     19 C20         5.8480   -5.7760   -8.6180 c3        1 EMJ     -0.079400
     20 C21         5.9640   -7.1870   -9.1550 c3        1 EMJ     -0.080400
     21 C22         6.7390   -7.2260  -10.4460 c3        1 EMJ     -0.092100
     22 H1         -0.6390    0.1680    3.3330 ha        1 EMJ      0.165000
     23 H2          3.7310    0.4230    2.1810 ho        1 EMJ      0.447000
     24 H3         -2.4670   -0.1010    1.9020 ho        1 EMJ      0.431000
     25 H4          1.7510    0.6490   -2.0610 hc        1 EMJ      0.065200
     26 H5          1.3560   -1.8230   -1.9920 hc        1 EMJ      0.046700
     27 H6          4.1910   -1.0160   -2.9570 hc        1 EMJ      0.041700
     28 H7          2.6570   -0.7890   -3.8830 hc        1 EMJ      0.041700
     29 H8          2.2540   -3.2740   -3.8240 hc        1 EMJ      0.040700
     30 H9          3.7860   -3.5020   -2.8970 hc        1 EMJ      0.040700
     31 H10         5.0840   -2.4610   -4.7890 hc        1 EMJ      0.040200
     32 H11         3.5520   -2.2350   -5.7150 hc        1 EMJ      0.040200
     33 H12         4.6810   -4.9470   -4.7290 hc        1 EMJ      0.039200
     34 H13         3.1480   -4.7200   -5.6560 hc        1 EMJ      0.039200
     35 H14         5.9790   -3.9060   -6.6200 hc        1 EMJ      0.039700
     36 H15         4.4460   -3.6800   -7.5470 hc        1 EMJ      0.039700
     37 H16         4.0430   -6.1660   -7.4880 hc        1 EMJ      0.039200
     38 H17         5.5750   -6.3920   -6.5610 hc        1 EMJ      0.039200
     39 H18         5.3410   -5.1260   -9.3800 hc        1 EMJ      0.039700
     40 H19         6.8730   -5.3520   -8.4530 hc        1 EMJ      0.039700
     41 H20         4.9370   -7.6100   -9.3180 hc        1 EMJ      0.038700
     42 H21         6.4700   -7.8360   -8.3920 hc        1 EMJ      0.038700
     43 H22         7.7740   -6.8320  -10.2970 hc        1 EMJ      0.032367
     44 H23         6.2370   -6.6050  -11.2260 hc        1 EMJ      0.032367
     45 H24         6.8130   -8.2750  -10.8230 hc        1 EMJ      0.032367
     46 H25         3.3020    0.4340   -1.1390 hc        1 EMJ      0.065200
     47 H26         2.8940   -2.0560   -1.0650 hc        1 EMJ      0.046700
@<TRIPOS>BOND
     1    1    2 1   
     2    1    6 1   
     3    1    8 2   
     4    2    3 2   
     5    2   11 1   
     6    3    4 1   
     7    3    9 1   
     8    4    5 1   
     9    4    7 2   
    10    5    6 2   
    11    5   22 1   
    12    6   10 1   
    13    9   23 1   
    14   10   24 1   
    15   11   12 1   
    16   11   25 1   
    17   11   46 1   
    18   12   13 1   
    19   12   26 1   
    20   12   47 1   
    21   13   14 1   
    22   13   27 1   
    23   13   28 1   
    24   14   15 1   
    25   14   29 1   
    26   14   30 1   
    27   15   16 1   
    28   15   31 1   
    29   15   32 1   
    30   16   17 1   
    31   16   33 1   
    32   16   34 1   
    33   17   18 1   
    34   17   35 1   
    35   17   36 1   
    36   18   19 1   
    37   18   37 1   
    38   18   38 1   
    39   19   20 1   
    40   19   39 1   
    41   19   40 1   
    42   20   21 1   
    43   20   41 1   
    44   20   42 1   
    45   21   43 1   
    46   21   44 1   
    47   21   45 1   
@<TRIPOS>SUBSTRUCTURE
     1 EMJ         1 TEMP              0 ****  ****    0 ROOT
