@<TRIPOS>MOLECULE
EML
   56    51     1     0     0
SMALL
bcc


@<TRIPOS>ATOM
      1 C1          5.2140    0.4890    5.0140 c2        1 EML     -0.125000
      2 N1          0.4480   -0.8710    1.9030 n3        1 EML     -0.215000
      3 O1         -4.8670    2.2290   -5.4720 oh        1 EML     -0.332000
      4 S1          0.4600   -0.5670   -0.7670 ss        1 EML      0.596000
      5 C2          4.2830   -1.9540    2.9220 c1        1 EML     -0.152000
      6 N2          2.1970    0.8170    3.4020 n2        1 EML     -0.127000
      7 C3          3.6140   -2.7670    2.0320 c1        1 EML      0.001000
      8 N3          3.7210   -0.7690    3.3220 n1        1 EML     -0.009000
      9 C4         -2.3260    0.4590   -3.9960 c3        1 EML     -0.078000
     10 N4          6.9490    1.4120    6.0160 n2        1 EML     -0.117000
     11 C5          1.8450   -1.2360    1.9390 c2        1 EML      0.202000
     12 N5          6.2490    0.6820    6.9520 n2        1 EML     -0.117000
     13 C6          2.5230   -0.4040    2.8460 c2        1 EML     -0.107000
     14 N6         -0.5910   -0.1800   -1.7680 n2        1 EML     -0.332000
     15 C7          4.1490    0.2060    4.1690 c1        1 EML     -0.043000
     16 N7          2.3980   -2.3960    1.5500 n2        1 EML     -0.215000
     17 C8          5.1850    0.1170    6.3330 c1        1 EML     -0.128000
     18 N8         -3.3730    0.3320   -2.9380 n3        1 EML     -0.257000
     19 C9          3.1910    1.1840    4.2080 c1        1 EML     -0.131000
     20 C10         6.3100    1.2910    4.8260 c1        1 EML     -0.128000
     21 C11        -0.2350   -0.7110    0.6150 c2        1 EML     -0.210000
     22 C12        -1.6060   -0.4260    0.4370 c1        1 EML     -0.294000
     23 C13        -2.8830    0.8870   -1.7070 c3        1 EML      0.006000
     24 C14        -1.8450   -0.0860   -1.0810 c2        1 EML     -0.033000
     25 C15        -4.5930    1.0500   -3.3530 c3        1 EML      0.008000
     26 C16        -1.7080   -0.8760   -4.2440 c3        1 EML     -0.210000
     27 C17        -4.7780    0.9060   -4.8650 c3        1 EML     -0.011000
     28 C18        -4.4530    2.5430   -2.9870 c3        1 EML     -0.226500
     29 C19         4.1730   -4.1190    1.5030 c2        1 EML     -0.164000
     30 C20        -5.7970    0.4570   -2.6330 c3        1 EML     -0.226500
     31 HN1        -0.0230   -0.7530    2.6970 hn        1 EML      0.273000
     32 HO1        -5.4270    2.1930   -6.2120 ho        1 EML      0.207000
     33 H2          5.1340   -2.2160    3.2580 ha        1 EML      0.179000
     34 H4         -1.6330    1.0930   -3.6970 h1        1 EML      0.080000
     35 H5         -2.7510    0.8000   -4.8550 h1        1 EML      0.080000
     36 HN4         7.7320    1.9060    6.1750 DU        1 EML      0.199000
     37 H8          4.5160   -0.4550    6.7530 DU        1 EML      0.199000
     38 H9          3.1890    1.9630    4.8060 DU        1 EML      0.199000
     39 H10         6.5860    1.7090    3.9680 DU        1 EML      0.199000
     40 H12        -2.2770   -0.4370    1.1230 DU        1 EML      0.199000
     41 H13        -2.4520    1.7610   -1.8840 h1        1 EML      0.088000
     42 H13A       -3.6280    1.0130   -1.0880 h1        1 EML      0.088000
     43 H16        -0.7390   -0.8930   -3.8520 hc        1 EML      0.076667
     44 H16A       -2.2220   -1.5360   -3.8320 hc        1 EML      0.076667
     45 H15        -1.6730   -1.0460   -5.2180 hc        1 EML      0.076667
     46 H17        -5.6050    0.4020   -5.0510 h1        1 EML      0.088500
     47 H17A       -4.0470    0.4440   -5.2240 h1        1 EML      0.088500
     48 H18        -5.2430    3.0710   -3.3810 hc        1 EML      0.081500
     49 H18A       -3.6100    2.8910   -3.3530 hc        1 EML      0.081500
     50 H18B       -4.4500    2.6400   -2.0020 hc        1 EML      0.081500
     51 H19         3.7920   -4.3030    0.5800 ha        1 EML      0.097333
     52 H19A        3.9210   -4.8320    2.1040 ha        1 EML      0.097333
     53 H19B        5.1970   -4.0640    1.4420 ha        1 EML      0.097333
     54 H20        -5.6480    0.4870   -1.6650 hc        1 EML      0.081500
     55 H20A       -6.5720    0.9580   -2.8490 hc        1 EML      0.081500
     56 H20B       -5.9230   -0.4910   -2.9210 hc        1 EML      0.081500
@<TRIPOS>BOND
     1    1   15 1   
     2    1   17 1   
     3    1   20 1   
     4    2   11 1   
     5    2   21 1   
     6    2   31 1   
     7    3   27 1   
     8    3   32 1   
     9    4   14 1   
    10    4   21 1   
    11    5    7 1   
    12    5   33 1   
    13    6   13 1   
    14    6   19 1   
    15    7   16 1   
    16    8   13 1   
    17    9   18 1   
    18    9   26 1   
    19    9   34 1   
    20    9   35 1   
    21   10   12 1   
    22   10   20 1   
    23   11   13 1   
    24   11   16 1   
    25   12   17 1   
    26   14   24 1   
    27   15   19 1   
    28   18   23 1   
    29   18   25 1   
    30   21   22 1   
    31   22   24 1   
    32   23   24 1   
    33   23   41 1   
    34   23   42 1   
    35   25   27 1   
    36   25   28 1   
    37   25   30 1   
    38   26   43 1   
    39   26   44 1   
    40   26   45 1   
    41   27   46 1   
    42   27   47 1   
    43   28   48 1   
    44   28   49 1   
    45   28   50 1   
    46   29   51 1   
    47   29   52 1   
    48   29   53 1   
    49   30   54 1   
    50   30   55 1   
    51   30   56 1   
@<TRIPOS>SUBSTRUCTURE
     1 EML         1 TEMP              0 ****  ****    0 ROOT
