@<TRIPOS>MOLECULE
EML
   56    59     1     0     0
SMALL
bcc


@<TRIPOS>ATOM
      1 C1          6.3250   -0.7620    0.5250 cc        1 EML     -0.201100
      2 N1          0.3140   -0.2570   -0.2280 nh        1 EML     -0.693300
      3 O1         -8.6960   -0.8130   -0.3760 oh        1 EML     -0.597800
      4 S1         -1.0620    1.9720   -1.1610 ss        1 EML      0.281200
      5 C2          4.1640    1.3560   -0.4700 cc        1 EML     -0.243600
      6 N2          2.7740   -1.7970    0.5500 nd        1 EML     -0.266600
      7 C3          3.0330    2.0760   -0.8380 cd        1 EML      0.424600
      8 N3          4.0140    0.0650   -0.0030 na        1 EML      0.066700
      9 C4         -5.0030    0.7220    1.4310 c3        1 EML      0.175800
     10 N4          8.5300   -1.1600    0.5530 na        1 EML     -0.016600
     11 C5          1.5730    0.3210   -0.3230 cc        1 EML      0.724200
     12 N5          8.4180    0.1340    0.8570 nd        1 EML     -0.507800
     13 C6          2.7130   -0.5120    0.0830 cc        1 EML     -0.196600
     14 N6         -2.6830    1.9200   -1.2740 nc        1 EML     -0.578100
     15 C7          4.9120   -0.9090    0.4360 cc        1 EML     -0.059300
     16 N7          1.7460    1.5770   -0.7660 nd        1 EML     -0.743000
     17 C8          7.0930    0.4260    0.8530 cc        1 EML      0.304200
     18 N8         -5.0850   -0.2100    0.3130 n3        1 EML     -0.751600
     19 C9          4.1080   -2.0450    0.7670 cd        1 EML      0.008600
     20 C10         7.2950   -1.7690    0.3370 cd        1 EML     -0.120300
     21 C11        -0.8630    0.3810   -0.5590 cc        1 EML      0.133500
     22 C12        -2.1330   -0.1960   -0.4550 cd        1 EML     -0.331300
     23 C14        -3.1470    0.7350   -0.8840 cd        1 EML      0.386600
     24 C15        -6.3630   -0.9340    0.1900 c3        1 EML      0.213200
     25 C16        -4.2250    0.1650    2.6160 c3        1 EML     -0.093100
     26 C17        -7.5270   -0.0140   -0.2850 c3        1 EML      0.096400
     27 C18        -6.2590   -2.0930   -0.8190 c3        1 EML     -0.087100
     28 C20        -6.7840   -1.5600    1.5310 c3        1 EML     -0.087100
     29 HN1         0.2550   -1.1920    0.1170 hn        1 EML      0.477800
     30 HO1        -9.4030   -0.2250   -0.6660 ho        1 EML      0.399000
     31 H2          5.1900    1.7490   -0.5370 h4        1 EML      0.178000
     32 H4         -4.4870    1.6700    1.0990 h1        1 EML      0.035700
     33 H5         -6.0290    1.0290    1.7900 h1        1 EML      0.035700
     34 HN4         9.4250   -1.5880    0.5030 hn        1 EML      0.326700
     35 H8          6.7150    1.4200    1.0900 h4        1 EML      0.047100
     36 H9          4.4620   -3.0010    1.1530 h4        1 EML      0.184000
     37 H10         7.1920   -2.8210    0.0780 h4        1 EML      0.185000
     38 H12        -2.3680   -1.1960   -0.0920 ha        1 EML      0.177000
     39 H13        -4.6960   -0.4180   -1.7500 h1        1 EML      0.052700
     40 H13A       -5.2140    1.2590   -1.2500 h1        1 EML      0.052700
     41 H16        -4.7260   -0.7370    3.0420 hc        1 EML      0.037367
     42 H16A       -3.1890   -0.1190    2.3100 hc        1 EML      0.037367
     43 H15        -4.1650    0.9500    3.4070 hc        1 EML      0.037367
     44 H17        -7.2900    0.4220   -1.2930 h1        1 EML      0.023700
     45 H17A       -7.6940    0.8190    0.4480 h1        1 EML      0.023700
     46 H18        -5.3590   -2.7180   -0.6150 hc        1 EML      0.044367
     47 H18A       -7.1750   -2.7270   -0.7230 hc        1 EML      0.044367
     48 H18B       -6.2180   -1.7160   -1.8680 hc        1 EML      0.044367
     49 H19         2.7960    3.5630   -2.3790 hc        1 EML      0.057700
     50 H19A        2.6540    4.1910   -0.6840 hc        1 EML      0.057700
     51 H19B        4.2850    3.7510   -1.3540 hc        1 EML      0.057700
     52 H20        -6.9500   -0.7830    2.3140 hc        1 EML      0.044367
     53 H20A       -7.7440   -2.1110    1.3790 hc        1 EML      0.044367
     54 H20B       -6.0050   -2.2750    1.8880 hc        1 EML      0.044367
     55 C19         3.2040    3.4730   -1.3410 c3        1 EML     -0.140400
     56 C13        -4.6050    0.3590   -0.9370 c3        1 EML      0.148500
@<TRIPOS>BOND
     1    1   15 1   
     2    1   17 1   
     3    1   20 2   
     4    2   11 1   
     5    2   21 1   
     6    2   29 1   
     7    3   26 1   
     8    3   30 1   
     9    4   14 1   
    10    4   21 1   
    11    5    7 2   
    12    5    8 1   
    13    5   31 1   
    14    6   13 2   
    15    6   19 1   
    16    7   16 1   
    17    7   55 1   
    18    8   13 1   
    19    8   15 1   
    20    9   18 1   
    21    9   25 1   
    22    9   32 1   
    23    9   33 1   
    24   10   12 1   
    25   10   20 1   
    26   10   34 1   
    27   11   13 1   
    28   11   16 2   
    29   12   17 2   
    30   14   23 2   
    31   15   19 2   
    32   17   35 1   
    33   18   24 1   
    34   18   56 1   
    35   19   36 1   
    36   20   37 1   
    37   21   22 2   
    38   22   23 1   
    39   22   38 1   
    40   23   56 1   
    41   24   26 1   
    42   24   27 1   
    43   24   28 1   
    44   25   41 1   
    45   25   42 1   
    46   25   43 1   
    47   26   44 1   
    48   26   45 1   
    49   27   46 1   
    50   27   47 1   
    51   27   48 1   
    52   28   52 1   
    53   28   53 1   
    54   28   54 1   
    55   39   56 1   
    56   40   56 1   
    57   49   55 1   
    58   50   55 1   
    59   51   55 1   
@<TRIPOS>SUBSTRUCTURE
     1 EML         1 TEMP              0 ****  ****    0 ROOT
