@<TRIPOS>MOLECULE
EML
   57    54     1     0     0
SMALL
bcc


@<TRIPOS>ATOM
      1 C1         -0.8370   -0.9900   -0.1600 c2        1 EML     -0.271000
      2 N1         -1.9750    0.2750   -6.4550 nu        1 EML     -0.175000
      3 O1         -5.5180   -0.1330  -13.1650 o         1 EML     -0.379000
      4 S1          0.0820   -0.0790   -8.2810 ss        1 EML      0.922000
      5 C2          0.2370   -1.3230   -3.5750 c1        1 EML     -0.259000
      6 N2         -1.4500    1.3820   -3.0410 n2        1 EML     -0.025000
      7 C3          0.9000   -0.5770   -4.5580 c2        1 EML      0.157000
      8 N3         -0.4600   -1.4640   -2.5230 n7        1 EML      0.013000
      9 C4         -3.2160    2.0870  -12.7380 c3        1 EML     -0.094000
     10 N4         -1.5500    0.4100    1.8350 n2        1 EML     -0.172000
     11 C5         -1.0560    0.4070   -5.3760 c2        1 EML      0.057000
     12 N5          1.3810    0.3270    3.0520 n1        1 EML     -0.104000
     13 C6         -1.4270    0.8740   -4.1740 c1        1 EML     -0.146000
     14 N6         -0.1890    0.0470   -9.8110 n2        1 EML     -0.307000
     15 C7         -0.9270   -0.5300   -1.5360 c2        1 EML     -0.008000
     16 N7          0.3120    0.0680   -5.5600 n2        1 EML     -0.276000
     17 C8          2.3660    0.1750    3.6450 c1        1 EML     -0.146000
     18 N8         -3.2310    0.9440  -11.7630 ny        1 EML     -0.076000
     19 C9         -1.4770    0.6900   -1.8340 c2        1 EML     -0.111000
     20 C10        -1.1110   -0.2120    0.8810 c1        1 EML      0.102000
     21 C11        -1.5110    0.3260   -7.7490 c2        1 EML     -0.248000
     22 C12        -2.2680    0.5860   -8.8910 c2        1 EML     -0.273000
     23 C14        -1.4730    0.4100  -10.0960 c2        1 EML     -0.219000
     24 C15        -6.1790    1.9490  -10.6190 c2        1 EML     -0.165000
     25 C16        -2.9100    3.4200  -12.0910 c3        1 EML     -0.252000
     26 C17        -6.2390   -0.8430  -13.8710 c2        1 EML      0.188000
     27 C18        -5.7140    1.4860   -9.4590 c2        1 EML     -0.265000
     28 C20        -6.3930    3.3800  -10.9130 c3        1 EML     -0.204000
     29 HN1        -2.8630    0.7110   -6.2940 hn        1 EML      0.234000
     30 HO1        -7.2790   -0.5470  -14.1230 h4        1 EML      0.099000
     31 H2         -0.7260   -2.4130   -2.2940 hn        1 EML      0.263000
     32 H4         -4.2400    2.1080  -13.2130 hx        1 EML      0.145000
     33 H5         -1.9020    3.4210  -11.6090 hc        1 EML      0.110333
     34 HN4        -1.0230    1.0000    2.4400 hn        1 EML      0.254000
     35 H8          3.2750    0.0360    4.1940 ha        1 EML      0.251000
     36 H9         -1.9030    1.3070   -1.0160 h4        1 EML      0.180000
     37 H10        -0.5290   -2.0300    0.0420 ha        1 EML      0.172000
     38 H12        -3.3210    0.8760   -8.8870 ha        1 EML      0.169000
     39 H13        -4.9820    0.7290   -6.9270 ha        1 EML      0.001500
     40 H13A       -5.1250    0.6900   -6.2660 ha        1 EML      0.001500
     41 H16        -2.4440    1.8500  -13.5260 hx        1 EML      0.145000
     42 H16A       -3.6800    3.6920  -11.3280 hc        1 EML      0.110333
     43 H15        -2.9160    4.2030  -12.8910 hc        1 EML      0.110333
     44 H17        -5.8800   -1.8090  -14.2870 h4        1 EML      0.099000
     45 H17A       -3.6360    0.1260  -12.2560 hn        1 EML      0.242500
     46 H18        -5.6170    0.4110   -9.2500 ha        1 EML      0.119500
     47 H18A       -6.4580    1.2580  -11.4360 ha        1 EML      0.130000
     48 H18B       -5.4540    2.1450   -8.6190 ha        1 EML      0.119500
     49 H19         2.9100    0.1690   -4.8710 hc        1 EML      0.108000
     50 H19A        2.6600   -1.5850   -5.2850 hc        1 EML      0.108000
     51 H19B        2.7430   -1.0670   -3.5460 hc        1 EML      0.108000
     52 H20        -5.9390    3.6490  -11.9000 hc        1 EML      0.092333
     53 H20A       -5.9510    4.0410  -10.1270 hc        1 EML      0.092333
     54 H20B       -7.4920    3.5920  -10.9690 hc        1 EML      0.092333
     55 C13        -1.8670    0.5620  -11.4470 c1        1 EML      0.114000
     56 H81        -3.8580    1.1850  -10.9790 hn        1 EML      0.242500
     57 C19         2.3910   -0.7730   -4.5650 c3        1 EML     -0.177000
@<TRIPOS>BOND
     1    1   15 1   
     2    1   20 1   
     3    1   37 1   
     4    2   11 1   
     5    2   21 1   
     6    2   29 1   
     7    3   26 1   
     8    4   14 1   
     9    4   21 1   
    10    5    7 1   
    11    5    8 1   
    12    6   13 1   
    13    6   19 1   
    14    7   16 1   
    15    7   57 1   
    16    8   15 1   
    17    8   31 1   
    18    9   18 1   
    19    9   25 1   
    20    9   32 1   
    21    9   41 1   
    22   10   20 1   
    23   10   34 1   
    24   11   13 1   
    25   11   16 1   
    26   12   17 1   
    27   14   23 1   
    28   15   19 1   
    29   17   35 1   
    30   18   45 1   
    31   18   55 1   
    32   18   56 1   
    33   19   36 1   
    34   21   22 1   
    35   22   23 1   
    36   22   38 1   
    37   23   55 1   
    38   24   27 1   
    39   24   28 1   
    40   24   47 1   
    41   25   33 1   
    42   25   42 1   
    43   25   43 1   
    44   26   30 1   
    45   26   44 1   
    46   27   46 1   
    47   27   48 1   
    48   28   52 1   
    49   28   53 1   
    50   28   54 1   
    51   39   40 1   
    52   49   57 1   
    53   50   57 1   
    54   51   57 1   
@<TRIPOS>SUBSTRUCTURE
     1 EML         1 TEMP              0 ****  ****    0 ROOT
