@<TRIPOS>MOLECULE
EML
   58    57     1     0     0
SMALL
bcc


@<TRIPOS>ATOM
      1 C1          0.0910   -0.9000    0.2360 ce        1 EML     -0.330100
      2 N1         -2.9310    0.3790   -4.9180 n4        1 EML     -0.560100
      3 O1         -3.6760   -0.5260  -13.6560 oh        1 EML     -0.659800
      4 S1         -1.5330    1.1180   -7.2650 ss        1 EML      0.730200
      5 C2          0.6880    0.0090   -2.7470 cc        1 EML     -0.077600
      6 N2         -2.8080   -0.4300   -2.0470 nd        1 EML     -0.257600
      7 C3          0.6820    0.3940   -4.0970 cd        1 EML      0.356600
      8 N3         -0.4930   -0.2530   -2.1060 na        1 EML      0.031700
      9 C4         -3.2630    1.7540  -11.4560 c3        1 EML     -0.029700
     10 N4         -0.5730   -1.7840    2.5190 n2        1 EML     -0.625800
     11 C5         -1.6300    0.2700   -4.2140 cc        1 EML      0.492200
     12 N5          3.8880   -0.5530   -0.9180 n1        1 EML     -0.461800
     13 C6         -1.7380   -0.1290   -2.8340 cc        1 EML     -0.215600
     14 N6         -2.3340    1.4300   -8.5730 nc        1 EML     -0.588100
     15 C7         -0.8460   -0.6540   -0.8110 cc        1 EML      0.027900
     16 N7         -0.4800    0.5240   -4.8300 nd        1 EML     -0.659000
     17 C8          4.9410   -0.7320   -0.4670 c1        1 EML      0.260300
     18 N8         -4.5340    1.7690  -10.7170 nh        1 EML      0.008700
     19 C9         -2.2790   -0.7500   -0.8190 cd        1 EML      0.018600
     20 C10        -0.2850   -1.2550    1.4650 c1        1 EML      0.415500
     21 C11        -2.8830    0.7670   -6.3030 cc        1 EML     -0.171500
     22 C12        -4.0410    0.9170   -7.0870 cd        1 EML     -0.178300
     23 C14        -3.6700    1.3080   -8.4200 cd        1 EML      0.248000
     24 C15        -5.7190    2.0720  -11.5080 c2        1 EML     -0.151300
     25 C16        -2.5880    3.1110  -11.5420 c3        1 EML     -0.113100
     26 C17        -3.3450   -0.1820  -14.9910 c3        1 EML      0.109700
     27 C18        -6.0740    1.3010  -12.5510 c2        1 EML     -0.115000
     28 C20        -6.4760    3.2970  -11.1110 c3        1 EML     -0.072900
     29 HN1        -3.3900   -0.5470   -4.8420 hn        1 EML      0.486300
     30 HO1        -3.6180   -1.4860  -13.5880 ho        1 EML      0.419000
     31 H2          1.6260   -0.0970   -2.1630 h4        1 EML      0.234000
     32 H4         -3.4980    1.3810  -12.5030 h1        1 EML      0.115200
     33 H5         -1.6650    2.9910  -12.1650 hc        1 EML      0.072033
     34 HN4        -0.7620   -1.3650    3.4010 hn        1 EML      0.513400
     35 H8          5.9160   -0.8980   -0.0490 ha        1 EML      0.202500
     36 H9         -2.9150   -1.0450    0.0210 h4        1 EML      0.215000
     37 H10         1.1720   -0.8160    0.0260 ha        1 EML      0.193000
     38 H12        -5.0770    0.7680   -6.7630 ha        1 EML      0.204000
     39 H13        -7.0850    1.2400   -7.4560 ha        1 EML      0.002000
     40 H13A       -7.7550    1.2420   -7.3560 ha        1 EML      0.002000
     41 H16        -2.2880    3.4900  -10.5360 hc        1 EML      0.072033
     42 H16A       -2.5720    1.0000  -10.9850 h1        1 EML      0.115200
     43 H15        -3.2490    3.8670  -12.0320 hc        1 EML      0.072033
     44 H17        -2.3020   -0.5040  -15.2320 h1        1 EML      0.045700
     45 H17A       -4.0660   -0.6480  -15.7070 h1        1 EML      0.045700
     46 H18        -5.5240    0.4040  -12.8870 ha        1 EML      0.175500
     47 H18A       -3.4240    0.9330  -15.0340 h1        1 EML      0.045700
     48 H18B       -6.9690    1.5530  -13.1440 ha        1 EML      0.175500
     49 H19         2.1300   -0.0070   -5.6460 hc        1 EML      0.075033
     50 H19A        2.0170    1.7340   -5.1350 hc        1 EML      0.075033
     51 H19B        2.8280    0.5200   -4.0550 hc        1 EML      0.075033
     52 H20        -7.3410    3.4420  -11.8070 hc        1 EML      0.074700
     53 H20A       -6.8780    3.2120  -10.0700 hc        1 EML      0.074700
     54 H20B       -5.8250    4.2070  -11.1730 hc        1 EML      0.074700
     55 C13        -4.6850    1.5610   -9.4320 cf        1 EML      0.295200
     56 H121       -3.4990    1.0680   -4.3920 hn        1 EML      0.486300
     57 H81        -5.7310    1.5730   -9.0270 h4        1 EML      0.077800
     58 C19         1.9830    0.6760   -4.7720 c3        1 EML     -0.146400
@<TRIPOS>BOND
     1    1   15 1   
     2    1   20 2   
     3    1   37 1   
     4    2   11 1   
     5    2   21 1   
     6    2   29 1   
     7    2   56 1   
     8    3   26 1   
     9    3   30 1   
    10    4   14 1   
    11    4   21 1   
    12    5    7 2   
    13    5    8 1   
    14    5   31 1   
    15    6   13 2   
    16    6   19 1   
    17    7   16 1   
    18    7   58 1   
    19    8   13 1   
    20    8   15 1   
    21    9   18 1   
    22    9   25 1   
    23    9   32 1   
    24    9   42 1   
    25   10   20 2   
    26   10   34 1   
    27   11   13 1   
    28   11   16 2   
    29   12   17 3   
    30   14   23 2   
    31   15   19 2   
    32   17   35 1   
    33   18   24 1   
    34   18   55 2   
    35   19   36 1   
    36   21   22 2   
    37   22   23 1   
    38   22   38 1   
    39   23   55 1   
    40   24   27 2   
    41   24   28 1   
    42   25   33 1   
    43   25   41 1   
    44   25   43 1   
    45   26   44 1   
    46   26   45 1   
    47   26   47 1   
    48   27   46 1   
    49   27   48 1   
    50   28   52 1   
    51   28   53 1   
    52   28   54 1   
    53   39   40 1   
    54   49   58 1   
    55   50   58 1   
    56   51   58 1   
    57   55   57 1   
@<TRIPOS>SUBSTRUCTURE
     1 EML         1 TEMP              0 ****  ****    0 ROOT
