@<TRIPOS>MOLECULE
EMM
   13    12     1     0     0
SMALL
bcc


@<TRIPOS>ATOM
      1 C1         -0.6280    0.0000   -1.3420 c2        1 EMM      0.050600
      2 C2          1.6530    0.0000   -0.5300 c3        1 EMM      0.093300
      3 C          -0.2530    0.0000    1.0990 c         1 EMM      1.017600
      4 O          -1.5050   -0.0000    1.2600 o         1 EMM     -0.818300
      5 N           0.2470    0.0000   -0.2850 n         1 EMM     -0.438000
      6 C3         -0.3230   -0.0000   -2.6600 c2        1 EMM     -0.460000
      7 OXT         0.6120    0.0000    2.0190 o         1 EMM     -0.818300
      8 H1         -1.6920    0.0000   -1.0160 h4        1 EMM      0.148000
      9 H2C1        2.2040    0.0000    0.4480 h1        1 EMM      0.016367
     10 H2C2        1.9570   -0.9070   -1.1230 h1        1 EMM      0.016367
     11 H2C3        1.9570    0.9070   -1.1230 h1        1 EMM      0.016367
     12 H3C1       -1.1160   -0.0000   -3.4110 ha        1 EMM      0.088000
     13 H3C2        0.6990   -0.0000   -3.0480 ha        1 EMM      0.088000
@<TRIPOS>BOND
     1    1    5 1   
     2    1    6 2   
     3    1    8 1   
     4    2    5 1   
     5    2    9 1   
     6    2   10 1   
     7    2   11 1   
     8    3    4 1   
     9    3    5 1   
    10    3    7 1   
    11    6   12 1   
    12    6   13 1   
@<TRIPOS>SUBSTRUCTURE
     1 EMM         1 TEMP              0 ****  ****    0 ROOT
