@<TRIPOS>MOLECULE
EMM
   13     9     1     0     0
SMALL
bcc


@<TRIPOS>ATOM
      1 C1         -1.1280    0.0470    0.1880 c1        1 EMM     -0.206000
      2 C2          1.0300   -1.1900    0.2970 c3        1 EMM     -0.062000
      3 C           0.9990    1.2880    0.3790 c1        1 EMM      0.420000
      4 O           0.3530    2.3720    0.5000 o         1 EMM     -0.553000
      5 N           0.3030    0.0580    0.2420 n1        1 EMM     -0.331000
      6 C3         -1.7640    0.1660   -1.0050 c1        1 EMM     -0.206000
      7 OXT         2.2510    1.3060    0.3420 o         1 EMM     -0.553000
      8 H1         -1.6440   -0.0440    1.0060 ha        1 EMM      0.117500
      9 H2C1        1.5670   -1.2200    1.1200 h1        1 EMM      0.055667
     10 H2C2        1.6240   -1.2570   -0.4840 h1        1 EMM      0.055667
     11 H2C3        0.3940   -1.9420    0.2910 h1        1 EMM      0.055667
     12 H3C1       -1.2420    0.2600   -1.8350 DU        1 EMM      0.089000
     13 H3C2       -2.7410    0.1580   -1.0410 ha        1 EMM      0.117500
@<TRIPOS>BOND
     1    1    6 1   
     2    1    8 1   
     3    2    5 1   
     4    2    9 1   
     5    2   10 1   
     6    2   11 1   
     7    3    4 1   
     8    3    7 1   
     9    6   13 1   
@<TRIPOS>SUBSTRUCTURE
     1 EMM         1 TEMP              0 ****  ****    0 ROOT
