@<TRIPOS>MOLECULE
EMN
   37    36     1     0     0
SMALL
bcc


@<TRIPOS>ATOM
      1 CAA         6.8350   -0.6660   -0.5120 c3        1 EMN      0.118700
      2 CAB        -5.9530   -0.2360   -1.0450 c3        1 EMN     -0.136100
      3 CAC        -0.1550   -0.2550    1.8440 c3        1 EMN     -0.088100
      4 NAD        -5.2440   -0.4490    1.3570 n3        1 EMN     -0.895800
      5 CAE         4.5040   -0.4320   -0.2100 c3        1 EMN      0.125400
      6 CAF         3.4270    0.6460   -0.2780 c3        1 EMN      0.127400
      7 CAG        -3.7200    0.5760   -0.3110 c3        1 EMN      0.137400
      8 CAH         1.0920    0.8870   -0.0050 c3        1 EMN      0.134400
      9 CAI        -1.3900    0.8630   -0.0250 c3        1 EMN      0.131400
     10 OAJ         5.7290    0.2200   -0.5370 os        1 EMN     -0.425600
     11 OAK         2.2000   -0.0120    0.0280 os        1 EMN     -0.424600
     12 OAL        -2.4880   -0.0450    0.0410 os        1 EMN     -0.410600
     13 CAM        -4.8280   -0.4610   -0.0320 c3        1 EMN      0.159500
     14 CAN        -0.1440    0.0740    0.3680 c3        1 EMN     -0.068700
     15 HAA         6.7000   -1.4860   -1.2610 h1        1 EMN      0.033367
     16 HAAA        7.7110   -0.0260   -0.7840 h1        1 EMN      0.033367
     17 HAAB        6.9680   -1.1020    0.5090 h1        1 EMN      0.033367
     18 HABA       -6.3660    0.7970   -0.9600 hc        1 EMN      0.038367
     19 HABB       -5.5650   -0.3790   -2.0820 hc        1 EMN      0.038367
     20 HAC        -0.1590    0.6780    2.4580 hc        1 EMN      0.042700
     21 HACA       -1.0690   -0.8470    2.0910 hc        1 EMN      0.042700
     22 HACB        0.7530   -0.8500    2.1050 hc        1 EMN      0.042700
     23 HNAD       -5.6150    0.4450    1.6110 hn        1 EMN      0.344300
     24 HNAA       -5.9450   -1.1470    1.5100 hn        1 EMN      0.344300
     25 HAE         4.5640   -0.8690    0.8210 h1        1 EMN      0.040700
     26 HAEA        4.2940   -1.2500   -0.9480 h1        1 EMN      0.040700
     27 HAF         3.6290    1.4560    0.4710 h1        1 EMN      0.039200
     28 HAFA        3.3800    1.0950   -1.3050 h1        1 EMN      0.039200
     29 HAG        -3.8650    1.5180    0.2800 h1        1 EMN      0.027200
     30 HAGA       -3.6990    0.8320   -1.4050 h1        1 EMN      0.027200
     31 HAH         1.2600    1.7220    0.7260 h1        1 EMN      0.027700
     32 HAHA        0.9960    1.3160   -1.0390 h1        1 EMN      0.027700
     33 HAI        -1.2990    1.2610   -1.0720 h1        1 EMN      0.024700
     34 HAIA       -1.5610    1.7190    0.6800 h1        1 EMN      0.024700
     35 HAM        -4.3810   -1.4850   -0.2210 h1        1 EMN      0.080700
     36 HAN        -0.1300   -0.8890   -0.2150 hc        1 EMN      0.080700
     37 HAB        -6.7820   -0.9650   -0.8790 hc        1 EMN      0.038367
@<TRIPOS>BOND
     1    1   10 1   
     2    1   15 1   
     3    1   16 1   
     4    1   17 1   
     5    2   13 1   
     6    2   18 1   
     7    2   19 1   
     8    2   37 1   
     9    3   14 1   
    10    3   20 1   
    11    3   21 1   
    12    3   22 1   
    13    4   13 1   
    14    4   23 1   
    15    4   24 1   
    16    5    6 1   
    17    5   10 1   
    18    5   25 1   
    19    5   26 1   
    20    6   11 1   
    21    6   27 1   
    22    6   28 1   
    23    7   12 1   
    24    7   13 1   
    25    7   29 1   
    26    7   30 1   
    27    8   11 1   
    28    8   14 1   
    29    8   31 1   
    30    8   32 1   
    31    9   12 1   
    32    9   14 1   
    33    9   33 1   
    34    9   34 1   
    35   13   35 1   
    36   14   36 1   
@<TRIPOS>SUBSTRUCTURE
     1 EMN         1 TEMP              0 ****  ****    0 ROOT
