@<TRIPOS>MOLECULE
EMN
   38    37     1     0     0
SMALL
bcc


@<TRIPOS>ATOM
      1 CAA         0.2980    0.2990   -0.7500 c3        1 EMN      0.115700
      2 CAB        10.1050    5.4360   -3.0740 c3        1 EMN     -0.139100
      3 CAC         6.0880    3.4680    1.8580 c3        1 EMN     -0.091100
      4 NAD         8.0270    6.3170   -1.9900 n4        1 EMN     -0.838600
      5 CAE         1.9860    0.3880    0.9040 c3        1 EMN      0.124400
      6 CAF         3.4830    0.1470    1.0630 c3        1 EMN      0.125400
      7 CAG         8.8950    4.0460   -1.3730 c3        1 EMN      0.109400
      8 CAH         5.5330    1.2930    0.7510 c3        1 EMN      0.136400
      9 CAI         7.4450    2.6550   -0.0850 c3        1 EMN      0.141400
     10 OAJ         1.6750    0.1240   -0.4620 os        1 EMN     -0.426600
     11 OAK         4.1220    1.4140    0.8940 os        1 EMN     -0.424600
     12 OAL         7.6170    3.9070   -0.7730 os        1 EMN     -0.473600
     13 CAM         8.7430    5.0930   -2.4980 c3        1 EMN      0.119500
     14 CAN         6.0600    2.7140    0.5480 c3        1 EMN     -0.074700
     15 HAA        -0.3250   -0.3960   -0.1340 h1        1 EMN      0.037033
     16 HAAA        0.2060    0.0500   -1.8370 h1        1 EMN      0.037033
     17 HAAB       -0.0120    1.3570   -0.5620 h1        1 EMN      0.037033
     18 HABB       10.7900    5.8520   -2.2960 hc        1 EMN      0.083033
     19 HAC         5.0590    3.4930    2.2950 hc        1 EMN      0.045033
     20 HACA        6.4390    4.5150    1.6930 hc        1 EMN      0.045033
     21 HACB        6.7710    2.9740    2.5900 hc        1 EMN      0.045033
     22 HNAD        8.6040    6.7960   -1.2930 hn        1 EMN      0.464133
     23 HNAA        7.8300    6.9560   -2.7630 hn        1 EMN      0.464133
     24 HAE         1.7210    1.4480    1.1580 h1        1 EMN      0.045700
     25 HAEA        1.4140   -0.3160    1.5640 h1        1 EMN      0.045700
     26 HAF         3.8490   -0.5820    0.2930 h1        1 EMN      0.047700
     27 HAFA        3.7080   -0.2370    2.0930 h1        1 EMN      0.047700
     28 HAG         9.2450    3.0850   -1.8340 h1        1 EMN      0.075700
     29 HAGA        9.6350    4.3850   -0.6000 h1        1 EMN      0.075700
     30 HAH         5.7660    0.6460   -0.1380 h1        1 EMN      0.034700
     31 HAHA        5.9710    0.8280    1.6730 h1        1 EMN      0.034700
     32 HAI         8.2500    2.5500    0.6880 h1        1 EMN      0.049700
     33 HAIA        7.5250    1.8240   -0.8350 h1        1 EMN      0.049700
     34 HAM         8.0750    4.6600   -3.3040 hx        1 EMN      0.119700
     35 HAN         5.3610    3.2430   -0.1620 hc        1 EMN      0.080700
     36 HAB        10.0210    6.1660   -3.9160 hc        1 EMN      0.083033
     37 HAD3        7.1480    6.0200   -1.5440 hn        1 EMN      0.464133
     38 HABA       10.5640    4.4960   -3.4760 hc        1 EMN      0.083033
@<TRIPOS>BOND
     1    1   10 1   
     2    1   15 1   
     3    1   16 1   
     4    1   17 1   
     5    2   13 1   
     6    2   18 1   
     7    2   36 1   
     8    2   38 1   
     9    3   14 1   
    10    3   19 1   
    11    3   20 1   
    12    3   21 1   
    13    4   13 1   
    14    4   22 1   
    15    4   23 1   
    16    4   37 1   
    17    5    6 1   
    18    5   10 1   
    19    5   24 1   
    20    5   25 1   
    21    6   11 1   
    22    6   26 1   
    23    6   27 1   
    24    7   12 1   
    25    7   13 1   
    26    7   28 1   
    27    7   29 1   
    28    8   11 1   
    29    8   14 1   
    30    8   30 1   
    31    8   31 1   
    32    9   12 1   
    33    9   14 1   
    34    9   32 1   
    35    9   33 1   
    36   13   34 1   
    37   14   35 1   
@<TRIPOS>SUBSTRUCTURE
     1 EMN         1 TEMP              0 ****  ****    0 ROOT
