@<TRIPOS>MOLECULE
EMN
   38    37     1     0     0
SMALL
bcc


@<TRIPOS>ATOM
      1 CAA         0.2980    0.2690   -0.7470 c3        1 EMN      0.115700
      2 CAB        10.1190    5.4300   -3.0700 c3        1 EMN     -0.139100
      3 CAC         6.0720    3.4910    1.8390 c3        1 EMN     -0.091100
      4 NAD         8.0450    6.3210   -1.9860 n4        1 EMN     -0.838600
      5 CAE         1.9820    0.3890    0.9090 c3        1 EMN      0.124400
      6 CAF         3.4790    0.1540    1.0760 c3        1 EMN      0.125400
      7 CAG         8.8960    4.0410   -1.3780 c3        1 EMN      0.109400
      8 CAH         5.5270    1.3010    0.7550 c3        1 EMN      0.136400
      9 CAI         7.4390    2.6580   -0.0900 c3        1 EMN      0.141400
     10 OAJ         1.6750    0.1030   -0.4540 os        1 EMN     -0.426600
     11 OAK         4.1150    1.4200    0.8940 os        1 EMN     -0.424600
     12 OAL         7.6150    3.9060   -0.7820 os        1 EMN     -0.473600
     13 CAM         8.7540    5.0930   -2.4980 c3        1 EMN      0.119500
     14 CAN         6.0510    2.7210    0.5370 c3        1 EMN     -0.074700
     15 HAA        -0.0160    1.3280   -0.5750 h1        1 EMN      0.036700
     16 HAAA        0.2110    0.0040   -1.8300 h1        1 EMN      0.036700
     17 HAAB       -0.3240   -0.4200   -0.1230 h1        1 EMN      0.036700
     18 HABB       10.0420    6.1650   -3.9080 hc        1 EMN      0.083033
     19 HAC         6.7550    3.0070    2.5790 hc        1 EMN      0.044700
     20 HACA        5.0430    3.5180    2.2720 hc        1 EMN      0.044700
     21 HACB        6.4220    4.5360    1.6630 hc        1 EMN      0.044700
     22 HNAD        7.1630    6.0270   -1.5430 hn        1 EMN      0.464133
     23 HNAA        7.8540    6.9640   -2.7560 hn        1 EMN      0.464133
     24 HAE         1.7130    1.4520    1.1470 h1        1 EMN      0.045700
     25 HAEA        1.4100   -0.3070    1.5790 h1        1 EMN      0.045700
     26 HAF         3.7020   -0.2170    2.1110 h1        1 EMN      0.047700
     27 HAFA        3.8500   -0.5840    0.3170 h1        1 EMN      0.047700
     28 HAG         9.2410    3.0790   -1.8430 h1        1 EMN      0.075700
     29 HAGA        9.6360    4.3710   -0.6010 h1        1 EMN      0.075700
     30 HAH         5.9640    0.8480    1.6830 h1        1 EMN      0.035200
     31 HAHA        5.7630    0.6450   -0.1260 h1        1 EMN      0.035200
     32 HAI         7.5200    1.8230   -0.8360 h1        1 EMN      0.049700
     33 HAIA        8.2400    2.5540    0.6870 h1        1 EMN      0.049700
     34 HAM         8.0840    4.6690   -3.3070 hx        1 EMN      0.120700
     35 HAN         5.3540    3.2400   -0.1810 hc        1 EMN      0.080700
     36 HAB        10.8060    5.8370   -2.2870 hc        1 EMN      0.083033
     37 HAD3        8.6240    6.7920   -1.2860 hn        1 EMN      0.464133
     38 HABA       10.5720    4.4890   -3.4750 hc        1 EMN      0.083033
@<TRIPOS>BOND
     1    1   10 1   
     2    1   15 1   
     3    1   16 1   
     4    1   17 1   
     5    2   13 1   
     6    2   18 1   
     7    2   36 1   
     8    2   38 1   
     9    3   14 1   
    10    3   19 1   
    11    3   20 1   
    12    3   21 1   
    13    4   13 1   
    14    4   22 1   
    15    4   23 1   
    16    4   37 1   
    17    5    6 1   
    18    5   10 1   
    19    5   24 1   
    20    5   25 1   
    21    6   11 1   
    22    6   26 1   
    23    6   27 1   
    24    7   12 1   
    25    7   13 1   
    26    7   28 1   
    27    7   29 1   
    28    8   11 1   
    29    8   14 1   
    30    8   30 1   
    31    8   31 1   
    32    9   12 1   
    33    9   14 1   
    34    9   32 1   
    35    9   33 1   
    36   13   34 1   
    37   14   35 1   
@<TRIPOS>SUBSTRUCTURE
     1 EMN         1 TEMP              0 ****  ****    0 ROOT
