@<TRIPOS>MOLECULE
EMN
   37    36     1     0     0
SMALL
bcc


@<TRIPOS>ATOM
      1 CAA        -5.8760    0.5590   -3.7170 c3        1 EMN      0.118700
      2 CAB         3.9250    2.3290    3.0180 c3        1 EMN     -0.132100
      3 CAC        -0.3250   -2.0180    1.0920 c3        1 EMN     -0.087100
      4 NAD         4.8690    0.1500    2.9240 n3        1 EMN     -0.903800
      5 CAE        -4.0140   -0.0200   -2.3660 c3        1 EMN      0.125400
      6 CAF        -2.5950   -0.5860   -2.4320 c3        1 EMN      0.127400
      7 CAG         3.1160    0.6570    1.3530 c3        1 EMN      0.131400
      8 CAH        -0.6470   -0.9220   -1.1150 c3        1 EMN      0.134400
      9 CAI         1.4020   -0.4960    0.2060 c3        1 EMN      0.133400
     10 OAJ        -4.5560    0.0220   -3.6570 os        1 EMN     -0.425600
     11 OAK        -1.9480   -0.4130   -1.1590 os        1 EMN     -0.424600
     12 OAL         1.8550   -0.0160    1.4240 os        1 EMN     -0.424600
     13 CAM         3.6690    0.8630    2.7820 c3        1 EMN      0.157500
     14 CAN        -0.0770   -0.7560    0.2930 c3        1 EMN     -0.069700
     15 HAA        -6.5010   -0.0630   -3.2890 h1        1 EMN      0.034033
     16 HAAA       -6.1340    0.6850   -4.6610 h1        1 EMN      0.034033
     17 HAAB       -5.9020    1.4420   -3.2420 h1        1 EMN      0.034033
     18 HAB         4.3040    2.4540    3.9170 hc        1 EMN      0.041367
     19 HABA        4.5650    2.6670    2.3400 hc        1 EMN      0.041367
     20 HABB        3.0880    2.8200    2.9480 hc        1 EMN      0.041367
     21 HAC        -0.0400   -1.8750    2.0390 hc        1 EMN      0.041367
     22 HACA       -1.2840   -2.2380    1.0670 hc        1 EMN      0.041367
     23 HACB        0.1770   -2.7390    0.7140 hc        1 EMN      0.041367
     24 HNAD        5.5300    0.7160    3.2770 hn        1 EMN      0.346800
     25 HNAA        4.7420   -0.5430    3.4770 hn        1 EMN      0.346800
     26 HAE        -3.9870    0.8990   -1.9870 h1        1 EMN      0.040700
     27 HAEA       -4.5720   -0.5980   -1.7910 h1        1 EMN      0.040700
     28 HAF        -2.0910   -0.1170   -3.1170 h1        1 EMN      0.039700
     29 HAFA       -2.6350   -1.5610   -2.6550 h1        1 EMN      0.039700
     30 HAG         3.7700    0.0960    0.8150 h1        1 EMN      0.034200
     31 HAGA        2.9960    1.5460    0.9090 h1        1 EMN      0.034200
     32 HAH        -0.6610   -1.8630   -1.3470 h1        1 EMN      0.028200
     33 HAHA       -0.0830   -0.4340   -1.7550 h1        1 EMN      0.028200
     34 HAI         1.8610   -1.3150   -0.0080 h1        1 EMN      0.027200
     35 HAIA        1.5730    0.1570   -0.4810 h1        1 EMN      0.027200
     36 HAM         2.9910    0.5250    3.4600 h1        1 EMN      0.074700
     37 HAN        -0.5040   -0.0180    0.7250 hc        1 EMN      0.080700
@<TRIPOS>BOND
     1    1   10 1   
     2    1   15 1   
     3    1   16 1   
     4    1   17 1   
     5    2   13 1   
     6    2   18 1   
     7    2   19 1   
     8    2   20 1   
     9    3   14 1   
    10    3   21 1   
    11    3   22 1   
    12    3   23 1   
    13    4   13 1   
    14    4   24 1   
    15    4   25 1   
    16    5    6 1   
    17    5   10 1   
    18    5   26 1   
    19    5   27 1   
    20    6   11 1   
    21    6   28 1   
    22    6   29 1   
    23    7   12 1   
    24    7   13 1   
    25    7   30 1   
    26    7   31 1   
    27    8   11 1   
    28    8   14 1   
    29    8   32 1   
    30    8   33 1   
    31    9   12 1   
    32    9   14 1   
    33    9   34 1   
    34    9   35 1   
    35   13   36 1   
    36   14   37 1   
@<TRIPOS>SUBSTRUCTURE
     1 EMN         1 TEMP              0 ****  ****    0 ROOT
