@<TRIPOS>MOLECULE
EMN
   38    37     1     0     0
SMALL
bcc


@<TRIPOS>ATOM
      1 CAA         0.3150    0.2530   -0.7690 c3        1 EMN      0.115700
      2 CAB        10.1150    5.4370   -3.0620 c3        1 EMN     -0.139100
      3 CAC         6.0600    3.4970    1.8460 c3        1 EMN     -0.091100
      4 NAD         8.0250    6.3180   -2.0030 nz        1 EMN     -0.838600
      5 CAE         1.9900    0.3760    0.8970 c3        1 EMN      0.124400
      6 CAF         3.4860    0.1470    1.0720 c3        1 EMN      0.125400
      7 CAG         8.8950    4.0550   -1.3620 c3        1 EMN      0.109400
      8 CAH         5.5310    1.3040    0.7610 c3        1 EMN      0.136400
      9 CAI         7.4410    2.6680   -0.0740 c3        1 EMN      0.141400
     10 OAJ         1.6910    0.0910   -0.4680 os        1 EMN     -0.426600
     11 OAK         4.1170    1.4170    0.8920 os        1 EMN     -0.424600
     12 OAL         7.6130    3.9140   -0.7730 os        1 EMN     -0.473600
     13 CAM         8.7500    5.0920   -2.4950 c3        1 EMN      0.119500
     14 CAN         6.0500    2.7250    0.5460 c3        1 EMN     -0.074700
     15 HAA        -0.3080   -0.4390   -0.1490 h1        1 EMN      0.037033
     16 HAAA        0.2350   -0.0120   -1.8530 h1        1 EMN      0.037033
     17 HAAB       -0.0030    1.3100   -0.5970 h1        1 EMN      0.037033
     18 HABB       10.7920    5.8610   -2.2800 hc        1 EMN      0.083033
     19 HAC         5.0280    3.5200    2.2740 hc        1 EMN      0.045033
     20 HACA        6.4060    4.5430    1.6710 hc        1 EMN      0.045033
     21 HACB        6.7410    3.0170    2.5900 hc        1 EMN      0.045033
     22 HNAD        8.5930    6.8030   -1.3040 hn        1 EMN      0.464133
     23 HNAA        7.8320    6.9500   -2.7820 hn        1 EMN      0.464133
     24 HAE         1.7150    1.4370    1.1350 h1        1 EMN      0.045700
     25 HAEA        1.4170   -0.3240    1.5620 h1        1 EMN      0.045700
     26 HAF         3.8640   -0.5890    0.3140 h1        1 EMN      0.047700
     27 HAFA        3.7060   -0.2220    2.1080 h1        1 EMN      0.047700
     28 HAG         9.2540    3.0910   -1.8130 h1        1 EMN      0.075700
     29 HAGA        9.6270    4.4020   -0.5840 h1        1 EMN      0.075700
     30 HAH         5.7760    0.6470   -0.1170 h1        1 EMN      0.034700
     31 HAHA        5.9650    0.8530    1.6930 h1        1 EMN      0.034700
     32 HAI         8.2390    2.5750    0.7080 h1        1 EMN      0.049700
     33 HAIA        7.5330    1.8300   -0.8150 h1        1 EMN      0.049700
     34 HAM         8.0910    4.6510   -3.3040 hx        1 EMN      0.119700
     35 HAN         5.3540    3.2410   -0.1770 hc        1 EMN      0.080700
     36 HAB        10.0360    6.1610   -3.9100 hc        1 EMN      0.083033
     37 HAD3        7.1420    6.0200   -1.5630 hn        1 EMN      0.464133
     38 HABA       10.5820    4.4960   -3.4530 hc        1 EMN      0.083033
@<TRIPOS>BOND
     1    1   10 1   
     2    1   15 1   
     3    1   16 1   
     4    1   17 1   
     5    2   13 1   
     6    2   18 1   
     7    2   36 1   
     8    2   38 1   
     9    3   14 1   
    10    3   19 1   
    11    3   20 1   
    12    3   21 1   
    13    4   13 1   
    14    4   22 1   
    15    4   23 1   
    16    4   37 1   
    17    5    6 1   
    18    5   10 1   
    19    5   24 1   
    20    5   25 1   
    21    6   11 1   
    22    6   26 1   
    23    6   27 1   
    24    7   12 1   
    25    7   13 1   
    26    7   28 1   
    27    7   29 1   
    28    8   11 1   
    29    8   14 1   
    30    8   30 1   
    31    8   31 1   
    32    9   12 1   
    33    9   14 1   
    34    9   32 1   
    35    9   33 1   
    36   13   34 1   
    37   14   35 1   
@<TRIPOS>SUBSTRUCTURE
     1 EMN         1 TEMP              0 ****  ****    0 ROOT
