@<TRIPOS>MOLECULE
EMO
   30    32     1     0     0
SMALL
bcc


@<TRIPOS>ATOM
      1 C1          1.1750   -0.2300   -2.4780 ca        1 EMO      0.243100
      2 O1          2.5170   -0.3570   -2.6830 oh        1 EMO     -0.500100
      3 C2          0.4230   -0.3170   -3.6710 ca        1 EMO     -0.258000
      4 C3         -0.9610   -0.1980   -3.6110 ca        1 EMO      0.182100
      5 O3         -1.7630   -0.2690   -4.7190 oh        1 EMO     -0.482100
      6 C4         -1.6170    0.0090   -2.3780 ca        1 EMO     -0.148000
      7 C5         -0.8660    0.0820   -1.2140 ca        1 EMO     -0.057600
      8 C6         -1.5930    0.3030    0.0580 c         1 EMO      0.579300
      9 O6         -2.7930    0.6110    0.0670 o         1 EMO     -0.512100
     10 C7         -0.8340    0.1260    1.3140 ca        1 EMO     -0.088600
     11 C8         -1.5450    0.0970    2.5060 ca        1 EMO     -0.124000
     12 C9         -0.8780   -0.0680    3.7360 ca        1 EMO     -0.021300
     13 C10        -1.6620   -0.1030    4.9920 c3        1 EMO     -0.063800
     14 C16         0.5010   -0.1890    3.7480 ca        1 EMO     -0.159000
     15 C17         1.2320   -0.1480    2.5340 ca        1 EMO      0.208100
     16 O17         2.5790   -0.2750    2.7160 oh        1 EMO     -0.501100
     17 C18         0.5730   -0.0000    1.2980 ca        1 EMO     -0.230600
     18 C19         1.3040    0.0250    0.0230 c         1 EMO      0.628300
     19 O19         2.5530    0.0870    0.0070 o         1 EMO     -0.620100
     20 C20         0.5420   -0.0420   -1.2300 ca        1 EMO     -0.260600
     21 HO1         3.0100   -0.2560   -1.8520 ho        1 EMO      0.466000
     22 H2          0.9520   -0.4730   -4.6220 ha        1 EMO      0.162000
     23 HO3        -1.1990   -0.4060   -5.4960 ho        1 EMO      0.429000
     24 H4         -2.7140    0.1170   -2.3520 ha        1 EMO      0.180000
     25 H8         -2.6420    0.2070    2.4890 ha        1 EMO      0.163000
     26 H101       -2.2400    0.8480    5.1120 hc        1 EMO      0.055033
     27 H102       -2.3900   -0.9530    4.9660 hc        1 EMO      0.055033
     28 H103       -1.0000   -0.2310    5.8830 hc        1 EMO      0.055033
     29 H16         1.0590   -0.3150    4.6890 ha        1 EMO      0.160000
     30 H17         3.0530   -0.2010    1.8720 ho        1 EMO      0.463000
@<TRIPOS>BOND
     1    1    2 1   
     2    1    3 ar  
     3    1   20 ar  
     4    2   21 1   
     5    3    4 ar  
     6    3   22 1   
     7    4    5 1   
     8    4    6 ar  
     9    5   23 1   
    10    6    7 ar  
    11    6   24 1   
    12    7    8 1   
    13    7   20 ar  
    14    8    9 2   
    15    8   10 1   
    16   10   11 ar  
    17   10   17 ar  
    18   11   12 ar  
    19   11   25 1   
    20   12   13 1   
    21   12   14 ar  
    22   13   26 1   
    23   13   27 1   
    24   13   28 1   
    25   14   15 ar  
    26   14   29 1   
    27   15   16 1   
    28   15   17 ar  
    29   16   30 1   
    30   17   18 1   
    31   18   19 2   
    32   18   20 1   
@<TRIPOS>SUBSTRUCTURE
     1 EMO         1 TEMP              0 ****  ****    0 ROOT
