@<TRIPOS>MOLECULE
EMO
   30    32     1     0     0
SMALL
bcc


@<TRIPOS>ATOM
      1 C1         -0.0050   -0.0540    0.0510 ca        1 EMO      0.208100
      2 O1         -0.7170   -0.1090   -1.1170 oh        1 EMO     -0.457100
      3 C2          1.3840   -0.2690    0.0740 ca        1 EMO     -0.300000
      4 C3          2.0530   -0.2150    1.2990 ca        1 EMO      0.177100
      5 O3          3.4070   -0.4060    1.4120 oh        1 EMO     -0.485100
      6 C4          1.3580    0.0370    2.4970 ca        1 EMO     -0.149000
      7 C5         -0.0190    0.2350    2.4520 ca        1 EMO     -0.067600
      8 C6         -0.7420    0.4760    3.7250 c         1 EMO      0.584300
      9 O6         -0.1480    0.8120    4.7580 o         1 EMO     -0.511100
     10 C7         -2.2050    0.2600    3.6970 ca        1 EMO     -0.097600
     11 C8         -2.8830    0.0850    4.9040 ca        1 EMO     -0.125000
     12 C9         -4.2660   -0.1480    4.9170 ca        1 EMO     -0.024300
     13 C10        -4.9690   -0.3230    6.2080 c3        1 EMO     -0.062800
     14 C16        -4.9620   -0.2050    3.7120 ca        1 EMO     -0.206000
     15 C17        -4.2800   -0.0170    2.4960 ca        1 EMO      0.171100
     16 O17        -4.9290   -0.0810    1.2900 oh        1 EMO     -0.462100
     17 C18        -2.8930    0.2260    2.4720 ca        1 EMO     -0.160600
     18 C19        -2.1790    0.4630    1.1990 c         1 EMO      0.599300
     19 O19        -2.7530    0.8670    0.1840 o         1 EMO     -0.479100
     20 C20        -0.7240    0.2050    1.2360 ca        1 EMO     -0.193600
     21 HO1        -0.0950   -0.2580   -1.8460 ho        1 EMO      0.421000
     22 H2          1.9290   -0.4700   -0.8580 ha        1 EMO      0.142000
     23 HO3         3.7680   -0.5590    0.5250 ho        1 EMO      0.425000
     24 H4          1.9030    0.0820    3.4530 ha        1 EMO      0.177000
     25 H8         -2.3210    0.1340    5.8510 ha        1 EMO      0.159000
     26 H101       -6.0140   -0.6870    6.0580 hc        1 EMO      0.052367
     27 H102       -5.0100    0.6530    6.7550 hc        1 EMO      0.052367
     28 H103       -4.4260   -1.0600    6.8510 hc        1 EMO      0.052367
     29 H16        -6.0460   -0.3920    3.7040 ha        1 EMO      0.141000
     30 H17        -5.8740   -0.2090    1.4630 ho        1 EMO      0.420000
@<TRIPOS>BOND
     1    1    2 1   
     2    1    3 ar  
     3    1   20 ar  
     4    2   21 1   
     5    3    4 ar  
     6    3   22 1   
     7    4    5 1   
     8    4    6 ar  
     9    5   23 1   
    10    6    7 ar  
    11    6   24 1   
    12    7    8 1   
    13    7   20 ar  
    14    8    9 2   
    15    8   10 1   
    16   10   11 ar  
    17   10   17 ar  
    18   11   12 ar  
    19   11   25 1   
    20   12   13 1   
    21   12   14 ar  
    22   13   26 1   
    23   13   27 1   
    24   13   28 1   
    25   14   15 ar  
    26   14   29 1   
    27   15   16 1   
    28   15   17 ar  
    29   16   30 1   
    30   17   18 1   
    31   18   19 2   
    32   18   20 1   
@<TRIPOS>SUBSTRUCTURE
     1 EMO         1 TEMP              0 ****  ****    0 ROOT
