@<TRIPOS>MOLECULE
EMP
   30    28     1     0     0
SMALL
bcc


@<TRIPOS>ATOM
      1 C1         -0.0420    0.5800    1.3580 c3        1 EMP      0.030000
      2 C2          4.2020    0.7320    0.6960 c3        1 EMP     -0.226000
      3 C3          3.0380    0.0710    1.4050 c3        1 EMP      0.019000
      4 C4          2.2370    1.0870    2.2560 c3        1 EMP     -0.169000
      5 C5         -3.9190    2.3900    2.2530 c1        1 EMP      0.292000
      6 C7          1.3030    4.1090    2.0000 c3        1 EMP     -0.251000
      7 O1          0.4120   -0.6830    1.7520 os        1 EMP     -0.277000
      8 O3          2.2110   -0.4860    0.3790 os        1 EMP     -0.298000
      9 N4          1.0470    1.6430    1.5430 nx        1 EMP     -0.041000
     10 O5         -2.7660    2.2060    2.0940 o         1 EMP     -0.289000
     11 H1         -0.3470    0.6090    0.2740 hx        1 EMP      0.160500
     12 H21         4.7230   -0.0180    0.0500 hc        1 EMP      0.107000
     13 H22        -0.9040    0.8110    2.0550 hx        1 EMP      0.160500
     14 H3          4.9260    1.1260    1.4490 hc        1 EMP      0.107000
     15 H4          3.8500    1.5670    0.0450 hc        1 EMP      0.107000
     16 H51         1.8690    0.5810    3.1950 hx        1 EMP      0.150000
     17 H52         2.9110    1.9440    2.5410 hx        1 EMP      0.150000
     18 H61        -0.5590    3.0060    1.8630 hx        1 EMP      0.146500
     19 H62         0.4490    2.6170    3.3410 hx        1 EMP      0.146500
     20 H71         1.3740    4.3560    0.9120 hc        1 EMP      0.115667
     21 H72         2.3350    4.0320    2.4200 hc        1 EMP      0.115667
     22 H73         0.7810    4.9550    2.5150 hc        1 EMP      0.115667
     23 H81         1.7760   -1.5880    3.6270 ha        1 EMP      0.001500
     24 H82         1.2100   -1.7670    3.9550 ha        1 EMP      0.001500
     25 H83         1.6310   -2.2570    1.4080 h2        1 EMP      0.148000
     26 HO1         0.6610   -1.6880   -0.1020 h2        1 EMP      0.148000
     27 HN4         3.3950   -0.7450    2.0950 h1        1 EMP      0.131000
     28 C6          0.4960    2.8490    2.2380 c3        1 EMP     -0.126000
     29 C8          1.2290   -1.3880    0.8190 c3        1 EMP      0.083000
     30 H42         1.3660    1.9220    0.6050 hn        1 EMP      0.243000
@<TRIPOS>BOND
     1    1    7 1   
     2    1    9 1   
     3    1   11 1   
     4    1   13 1   
     5    2    3 1   
     6    2   12 1   
     7    2   14 1   
     8    2   15 1   
     9    3    4 1   
    10    3    8 1   
    11    3   27 1   
    12    4    9 1   
    13    4   16 1   
    14    4   17 1   
    15    5   10 1   
    16    6   20 1   
    17    6   21 1   
    18    6   22 1   
    19    6   28 1   
    20    7   29 1   
    21    8   29 1   
    22    9   28 1   
    23    9   30 1   
    24   18   28 1   
    25   19   28 1   
    26   23   24 1   
    27   25   29 1   
    28   26   29 1   
@<TRIPOS>SUBSTRUCTURE
     1 EMP         1 TEMP              0 ****  ****    0 ROOT
