@<TRIPOS>MOLECULE
EMP
   30    25     1     0     0
SMALL
bcc


@<TRIPOS>ATOM
      1 C1          0.0390   -0.1090   -0.6270 c3        1 EMP     -0.021000
      2 C2          1.4010   -0.7360   -0.3260 c3        1 EMP     -0.276000
      3 C3          1.9410   -0.2610    0.9450 c2        1 EMP      0.167000
      4 C4          0.2670    1.7470    3.3820 c3        1 EMP     -0.167000
      5 C5         -2.5100   -1.5820    2.7570 c1        1 EMP      0.277000
      6 C7          3.5680    4.1650    2.0970 c2        1 EMP     -0.230500
      7 O1          0.1500    1.2980   -0.6530 oh        1 EMP     -0.344000
      8 O3          2.9710   -0.9610    1.4480 os        1 EMP     -0.116000
      9 N4          0.8890    2.0130    2.1050 n3        1 EMP     -0.351000
     10 O5         -1.5160   -1.1090    2.3420 o         1 EMP     -0.275000
     11 H1         -0.6850   -0.3410    0.2030 h1        1 EMP      0.123000
     12 H21         1.3290   -1.8620   -0.3530 hc        1 EMP      0.186000
     13 H22        -0.3530   -0.5220   -1.5930 h1        1 EMP      0.123000
     14 H3          2.1450   -0.4580   -1.1360 hc        1 EMP      0.186000
     15 H4          1.5030    0.7270    1.5030 h4        1 EMP      0.305000
     16 H51         1.0530    1.4360    4.1200 h1        1 EMP      0.098000
     17 H52        -0.2730    2.6400    3.7990 h1        1 EMP      0.098000
     18 H61         2.0190    5.4440    1.3810 ha        1 EMP      0.117500
     19 H62        -0.4730    0.9090    3.2630 h1        1 EMP      0.098000
     20 H71         4.1200    3.7560    2.9540 ha        1 EMP      0.117500
     21 H72         2.1800    5.3320    3.2200 ha        1 EMP      0.117500
     22 H73         3.9590    3.8680    1.1150 ha        1 EMP      0.117500
     23 H81         2.4430   -1.8900    3.9300 ha        1 EMP      0.018000
     24 H82         2.9850   -2.3050    3.9560 ha        1 EMP      0.018000
     25 H83         3.2340    0.2150    3.1600 ha        1 EMP      0.035000
     26 HO1         0.2480    1.5790   -1.5730 ho        1 EMP      0.230000
     27 HN4         1.5760    2.7490    2.1840 hn        1 EMP      0.192000
     28 C6          2.5460    5.0010    2.2380 c2        1 EMP     -0.230500
     29 C8          3.6100   -0.6640    2.5830 c1        1 EMP      0.197000
     30 H42         0.2010    2.2880    1.4210 hn        1 EMP      0.192000
@<TRIPOS>BOND
     1    1    2 1   
     2    1    7 1   
     3    1   11 1   
     4    1   13 1   
     5    2    3 1   
     6    2   12 1   
     7    2   14 1   
     8    3    8 1   
     9    3   15 1   
    10    4    9 1   
    11    4   16 1   
    12    4   17 1   
    13    4   19 1   
    14    5   10 1   
    15    6   20 1   
    16    6   22 1   
    17    6   28 1   
    18    7   26 1   
    19    8   29 1   
    20    9   27 1   
    21    9   30 1   
    22   18   28 1   
    23   21   28 1   
    24   23   24 1   
    25   25   29 1   
@<TRIPOS>SUBSTRUCTURE
     1 EMP         1 TEMP              0 ****  ****    0 ROOT
