@<TRIPOS>MOLECULE
EMP
   29    29     1     0     0
SMALL
bcc


@<TRIPOS>ATOM
      1 C1         -1.7890    0.5510   -2.1570 c3        1 EMP      0.330900
      2 C2         -0.2770    0.5510   -2.1570 c3        1 EMP     -0.104400
      3 C3          0.2870    0.5510   -0.7870 c3        1 EMP      0.153100
      4 C4         -0.2890   -0.5350    0.0610 c3        1 EMP      0.125500
      5 C5         -1.8070   -0.5320    0.0520 c3        1 EMP      0.096400
      6 C6          0.4930   -1.6370    1.9930 c3        1 EMP      0.164800
      7 C7          1.0200   -1.4480    3.4070 c3        1 EMP     -0.099100
      8 C8          2.4510    1.5750   -1.0520 c3        1 EMP      0.120700
      9 O1         -2.2350    1.7720   -1.6910 oh        1 EMP     -0.627800
     10 O3          1.7270    0.3670   -0.8720 os        1 EMP     -0.414600
     11 N4          0.1720   -0.3570    1.4270 n3        1 EMP     -0.817200
     12 O5         -2.3580   -0.5270   -1.3050 os        1 EMP     -0.445600
     13 H1         -2.1040    0.4290   -3.0730 h2        1 EMP      0.069700
     14 H21         0.0380   -0.2430   -2.6290 hc        1 EMP      0.073700
     15 H22         0.0380    1.3450   -2.6290 hc        1 EMP      0.073700
     16 H3          0.1010    1.4130   -0.3680 h1        1 EMP      0.056700
     17 H4          0.0280   -1.3960   -0.2700 h1        1 EMP      0.081700
     18 H51        -2.1270   -1.3260    0.5200 h1        1 EMP      0.052200
     19 H52        -2.1240    0.2620    0.5240 h1        1 EMP      0.052200
     20 H61         1.1750   -2.0720    1.4470 h1        1 EMP      0.030700
     21 H62        -0.3090   -2.1930    2.0170 h1        1 EMP      0.030700
     22 H71         1.7880   -0.8450    3.3900 hc        1 EMP      0.040033
     23 H72         1.2920   -2.3110    3.7710 hc        1 EMP      0.040033
     24 H73         0.3180   -1.0650    3.9670 hc        1 EMP      0.040033
     25 H81         2.0620    2.2730   -0.4920 h1        1 EMP      0.035367
     26 H82         3.3830    1.4360   -0.7990 h1        1 EMP      0.035367
     27 H83         2.4050    1.8450   -1.9890 h1        1 EMP      0.035367
     28 HO1        -2.8740    2.0780   -2.2270 ho        1 EMP      0.416000
     29 HN4        -0.4850    0.0370    1.9210 hn        1 EMP      0.354800
@<TRIPOS>BOND
     1    1    2 1   
     2    1    9 1   
     3    1   12 1   
     4    1   13 1   
     5    2    3 1   
     6    2   14 1   
     7    2   15 1   
     8    3    4 1   
     9    3   10 1   
    10    3   16 1   
    11    4    5 1   
    12    4   11 1   
    13    4   17 1   
    14    5   12 1   
    15    5   18 1   
    16    5   19 1   
    17    6    7 1   
    18    6   11 1   
    19    6   20 1   
    20    6   21 1   
    21    7   22 1   
    22    7   23 1   
    23    7   24 1   
    24    8   10 1   
    25    8   25 1   
    26    8   26 1   
    27    8   27 1   
    28    9   28 1   
    29   11   29 1   
@<TRIPOS>SUBSTRUCTURE
     1 EMP         1 TEMP              0 ****  ****    0 ROOT
