@<TRIPOS>MOLECULE
EMP
   29    29     1     0     0
SMALL
bcc


@<TRIPOS>ATOM
      1 C1          0.3630   -0.2730   -1.9780 c3        1 EMP      0.345900
      2 C2          0.4190    0.6620   -0.7710 c3        1 EMP     -0.130400
      3 C3         -0.1490    2.0330   -1.1030 c3        1 EMP      0.142100
      4 C4          0.5180    2.6130   -2.3800 c3        1 EMP      0.119500
      5 C5          0.4110    1.5550   -3.4970 c3        1 EMP      0.152400
      6 C7          3.7230    4.5560   -2.8010 c3        1 EMP     -0.101100
      7 O1          1.1290   -1.4330   -1.7930 oh        1 EMP     -0.594800
      8 O3         -1.5480    1.8640   -1.3480 os        1 EMP     -0.421600
      9 N4          1.8850    3.0330   -2.1090 n3        1 EMP     -0.813200
     10 O5          0.9700    0.3060   -3.1320 os        1 EMP     -0.443600
     11 H1         -0.6890   -0.6050   -2.2000 h2        1 EMP      0.081700
     12 H21         1.4830    0.7870   -0.4410 hc        1 EMP      0.070200
     13 H22        -0.1650    0.2000    0.0650 hc        1 EMP      0.070200
     14 H3          0.0030    2.7270   -0.2300 h1        1 EMP      0.042700
     15 H4         -0.1180    3.4910   -2.7220 h1        1 EMP      0.023700
     16 H51        -0.6780    1.4230   -3.7410 h1        1 EMP      0.056200
     17 H52         0.9830    1.8560   -4.4140 h1        1 EMP      0.056200
     18 H61         2.8520    2.9380   -3.9480 h1        1 EMP      0.032700
     19 H62         1.7920    4.4020   -3.7610 h1        1 EMP      0.032700
     20 H71         3.4280    5.3800   -2.1080 hc        1 EMP      0.040367
     21 H72         4.4900    3.9230   -2.2930 hc        1 EMP      0.040367
     22 H73         4.1810    5.0060   -3.7140 hc        1 EMP      0.040367
     23 H81        -3.3740    2.7040   -1.2860 h1        1 EMP      0.035033
     24 H82        -2.0160    3.8830   -1.6620 h1        1 EMP      0.035033
     25 H83        -2.2380    3.2640    0.0460 h1        1 EMP      0.035033
     26 HO1         2.0610   -1.1900   -1.8860 ho        1 EMP      0.420000
     27 HN4         1.9030    3.6010   -1.2820 hn        1 EMP      0.354800
     28 C6          2.5180    3.7270   -3.2150 c3        1 EMP      0.160800
     29 C8         -2.3250    3.0080   -1.0390 c3        1 EMP      0.115700
@<TRIPOS>BOND
     1    1    2 1   
     2    1    7 1   
     3    1   10 1   
     4    1   11 1   
     5    2    3 1   
     6    2   12 1   
     7    2   13 1   
     8    3    4 1   
     9    3    8 1   
    10    3   14 1   
    11    4    5 1   
    12    4    9 1   
    13    4   15 1   
    14    5   10 1   
    15    5   16 1   
    16    5   17 1   
    17    6   20 1   
    18    6   21 1   
    19    6   22 1   
    20    6   28 1   
    21    7   26 1   
    22    8   29 1   
    23    9   27 1   
    24    9   28 1   
    25   18   28 1   
    26   19   28 1   
    27   23   29 1   
    28   24   29 1   
    29   25   29 1   
@<TRIPOS>SUBSTRUCTURE
     1 EMP         1 TEMP              0 ****  ****    0 ROOT
