@<TRIPOS>MOLECULE
EMP
   30    26     1     0     0
SMALL
bcc


@<TRIPOS>ATOM
      1 C1         -1.6880    4.2080    0.5080 c3        1 EMP      0.097000
      2 C2          5.9720   -1.3380    2.4010 c1        1 EMP     -0.106000
      3 C3          5.0630   -2.0730    1.5820 c3        1 EMP     -0.185000
      4 C4         -0.0230   -0.6840    1.4400 c3        1 EMP     -0.137000
      5 C5         -2.2150    2.3530    1.8680 c1        1 EMP     -0.082000
      6 C7          1.4050    2.6340    2.5930 c3        1 EMP     -0.250000
      7 O1         -0.8010    4.7360    1.4350 oh        1 EMP     -0.328000
      8 O3          3.7320   -1.4200    1.5440 os        1 EMP     -0.090000
      9 N4          0.8840    0.3400    1.8930 n3        1 EMP     -0.187000
     10 O5         -2.6400    3.4480    1.3110 os        1 EMP     -0.182000
     11 H1         -1.1100    3.5300   -0.1690 h2        1 EMP      0.136000
     12 H21         5.3560   -2.1220    0.4940 h1        1 EMP      0.177000
     13 H22        -2.3290    4.9580   -0.0250 h2        1 EMP      0.136000
     14 H3          7.0110   -1.6380    2.5380 ha        1 EMP      0.131000
     15 H4          4.8460   -3.1140    1.9580 h1        1 EMP      0.177000
     16 H51         0.3440   -1.0860    0.4570 h1        1 EMP      0.115333
     17 H52        -1.0670   -0.2910    1.3130 h1        1 EMP      0.115333
     18 H61        -0.6330    1.8880    1.9490 h4        1 EMP      0.277000
     19 H62        -3.0440    1.8800    2.4440 ha        1 EMP      0.094000
     20 H71         2.4920    2.4000    2.4640 hc        1 EMP      0.127000
     21 H72         1.2040    2.8130    3.6820 hc        1 EMP      0.127000
     22 H73         1.1640    3.5800    2.0380 hc        1 EMP      0.127000
     23 H81         3.7890    1.3850    0.8300 ha        1 EMP      0.005000
     24 H82         4.4050    1.4530    1.1070 ha        1 EMP      0.005000
     25 H83         4.1440   -0.0320    3.0420 ha        1 EMP      0.127000
     26 HO1        -1.2140    5.4940    1.8720 ho        1 EMP      0.236000
     27 HN4        -0.0340   -1.5180    2.1930 h1        1 EMP      0.115333
     28 C6          0.4970    1.5630    2.1160 c2        1 EMP     -0.017000
     29 C8          3.4280   -0.4440    2.3040 c1        1 EMP     -0.092000
     30 H42         1.9300    0.0200    2.0430 hn        1 EMP      0.329000
@<TRIPOS>BOND
     1    1    7 1   
     2    1   10 1   
     3    1   11 1   
     4    1   13 1   
     5    2    3 1   
     6    2   14 1   
     7    3    8 1   
     8    3   12 1   
     9    3   15 1   
    10    4    9 1   
    11    4   16 1   
    12    4   17 1   
    13    4   27 1   
    14    5   10 1   
    15    5   19 1   
    16    6   20 1   
    17    6   21 1   
    18    6   22 1   
    19    6   28 1   
    20    7   26 1   
    21    8   29 1   
    22    9   28 1   
    23    9   30 1   
    24   18   28 1   
    25   23   24 1   
    26   25   29 1   
@<TRIPOS>SUBSTRUCTURE
     1 EMP         1 TEMP              0 ****  ****    0 ROOT
