@<TRIPOS>MOLECULE
EMQ
   65    63     1     0     0
SMALL
bcc


@<TRIPOS>ATOM
      1 N1         -1.6140    2.4500    0.9720 n         1 EMQ     -0.375000
      2 C2         -4.0860   -3.9360   -3.0640 c1        1 EMQ     -0.232000
      3 C3         -3.4520   -5.1960   -2.6990 c1        1 EMQ     -0.126000
      4 C4         -2.1480   -5.2010   -2.1240 c1        1 EMQ     -0.126000
      5 C5         -3.4040   -2.7040   -2.8480 c1        1 EMQ     -0.011000
      6 C6         -2.1480   -2.7020   -2.2950 c1        1 EMQ     -0.160000
      7 C7         -1.4870   -4.0190   -1.9130 c1        1 EMQ      0.155000
      8 N8          0.0000   -3.9560   -1.2600 n3        1 EMQ     -0.314000
      9 C9          0.5570   -2.6820   -1.0430 c3        1 EMQ      0.069000
     10 C10        -1.3230   -1.4020   -2.0910 c3        1 EMQ      0.085000
     11 C11         0.1020   -1.5840   -1.9730 c3        1 EMQ     -0.130000
     12 C12         0.8290   -0.2540   -1.5560 c3        1 EMQ     -0.157000
     13 C13         0.2390    0.3620   -0.3580 c3        1 EMQ     -0.184000
     14 C14        -1.2240    0.5280   -0.4670 c3        1 EMQ      0.017000
     15 O15        -1.9170   -0.7230   -0.8380 os        1 EMQ     -0.272000
     16 C16         2.1320   -2.8090   -1.1690 c2        1 EMQ     -0.099000
     17 C17         2.9170   -2.8290   -0.0260 c2        1 EMQ     -0.119000
     18 C18         4.2860   -3.0640   -0.1240 c1        1 EMQ     -0.132000
     19 C19         4.8650   -3.2790   -1.3650 c1        1 EMQ     -0.126000
     20 C20         4.0820   -3.2590   -2.5070 c1        1 EMQ     -0.126000
     21 C21         2.7120   -3.0240   -2.4100 c1        1 EMQ     -0.110000
     22 C22        -5.5240   -3.9300   -3.5910 c3        1 EMQ      0.475000
     23 F23        -5.7890   -2.7400   -4.1630 f         1 EMQ     -0.171667
     24 F24        -5.6700   -4.8990   -4.4940 f         1 EMQ     -0.171667
     25 F25        -6.3710   -4.1350   -2.5770 f         1 EMQ     -0.171667
     26 C26        -1.7670    1.0120    0.8780 c3        1 EMQ     -0.028000
     27 C27        -1.6360    3.1020    2.2780 c2        1 EMQ      0.366000
     28 N28        -1.1880    4.4840    2.4070 n         1 EMQ     -0.343000
     29 O29        -2.1450    2.5290    3.2410 o         1 EMQ     -0.393000
     30 C30        -0.4780    4.9160    3.6140 c3        1 EMQ     -0.043000
     31 C31         0.8620    5.5800    3.2140 c3        1 EMQ     -0.097000
     32 N32         1.8980    5.1650    4.1280 n3        1 EMQ     -0.266000
     33 C33         3.0200    4.6300    3.3770 c3        1 EMQ     -0.115500
     34 C34         2.3330    6.2910    4.9000 c3        1 EMQ     -0.115500
     35 HN1        -1.5860    2.9540    0.2140 hn        1 EMQ      0.214000
     36 H3         -3.9230   -6.0410   -2.8480 ha        1 EMQ      0.139000
     37 H4         -1.7270   -6.0430   -1.8800 ha        1 EMQ      0.139000
     38 H5         -3.8290   -1.8620   -3.0930 ha        1 EMQ      0.149000
     39 HN8         0.0090   -4.4300   -0.4760 hn        1 EMQ      0.229000
     40 H9          0.3470   -2.4120   -0.1340 h1        1 EMQ      0.098000
     41 H10        -1.4880   -0.8180   -2.8580 h1        1 EMQ      0.087000
     42 H11         0.4270   -1.8170   -2.8600 hc        1 EMQ      0.110000
     43 H12         1.7640   -0.4490   -1.3800 hc        1 EMQ      0.091500
     44 H12A        0.7740    0.3800   -2.2940 hc        1 EMQ      0.091500
     45 H13         0.6470    1.2400   -0.2200 hc        1 EMQ      0.099000
     46 H13A        0.4360   -0.2050    0.4180 hc        1 EMQ      0.099000
     47 H14        -1.4130    1.2030   -1.1420 h1        1 EMQ      0.077000
     48 H17         2.5090   -2.6770    0.8490 ha        1 EMQ      0.138000
     49 H18         4.8380   -3.0780    0.6800 ha        1 EMQ      0.136000
     50 H19         5.8290   -3.4450   -1.4340 ha        1 EMQ      0.139000
     51 H20         4.4890   -3.4100   -3.3790 ha        1 EMQ      0.139000
     52 H21         2.1610   -3.0100   -3.2150 ha        1 EMQ      0.142000
     53 H26        -2.7230    0.7780    0.9490 h1        1 EMQ      0.113500
     54 H26A       -1.2720    0.5830    1.6010 h1        1 EMQ      0.113500
     55 HN28       -1.3750    5.0870    1.7480 hn        1 EMQ      0.198000
     56 H30        -0.3010    4.1410    4.1830 h1        1 EMQ      0.116000
     57 H30A       -1.0330    5.5650    4.1070 h1        1 EMQ      0.116000
     58 H31         1.1000    5.3110    2.3110 h1        1 EMQ      0.074000
     59 H31A        0.7670    6.5580    3.2500 h1        1 EMQ      0.074000
     60 H33         3.2740    5.2610    2.6800 h1        1 EMQ      0.071000
     61 H33A        2.7600    3.7670    2.9640 h1        1 EMQ      0.071000
     62 H33B        3.7750    4.4890    3.9780 h1        1 EMQ      0.071000
     63 H34         1.5680    6.6540    5.4140 h1        1 EMQ      0.071000
     64 H34A        3.0420    6.0090    5.5210 h1        1 EMQ      0.071000
     65 H34B        2.6860    6.9930    4.2920 h1        1 EMQ      0.071000
@<TRIPOS>BOND
     1    1   26 1   
     2    1   27 1   
     3    1   35 1   
     4    2    5 1   
     5    2   22 1   
     6    3    4 1   
     7    3   36 1   
     8    4   37 1   
     9    5   38 1   
    10    6    7 1   
    11    6   10 1   
    12    7    8 1   
    13    8    9 1   
    14    8   39 1   
    15    9   11 1   
    16    9   16 1   
    17    9   40 1   
    18   10   11 1   
    19   10   15 1   
    20   10   41 1   
    21   11   12 1   
    22   11   42 1   
    23   12   13 1   
    24   12   43 1   
    25   12   44 1   
    26   13   14 1   
    27   13   45 1   
    28   13   46 1   
    29   14   15 1   
    30   14   26 1   
    31   14   47 1   
    32   16   17 1   
    33   16   21 1   
    34   17   18 1   
    35   17   48 1   
    36   18   49 1   
    37   19   20 1   
    38   19   50 1   
    39   20   51 1   
    40   21   52 1   
    41   22   23 1   
    42   22   24 1   
    43   22   25 1   
    44   26   53 1   
    45   26   54 1   
    46   27   28 1   
    47   27   29 1   
    48   28   30 1   
    49   28   55 1   
    50   30   31 1   
    51   30   56 1   
    52   30   57 1   
    53   31   32 1   
    54   31   58 1   
    55   31   59 1   
    56   32   33 1   
    57   32   34 1   
    58   33   60 1   
    59   33   61 1   
    60   33   62 1   
    61   34   63 1   
    62   34   64 1   
    63   34   65 1   
@<TRIPOS>SUBSTRUCTURE
     1 EMQ         1 TEMP              0 ****  ****    0 ROOT
