@<TRIPOS>MOLECULE
EMQ
   65    68     1     0     0
SMALL
bcc


@<TRIPOS>ATOM
      1 N1          2.3260    1.4500    0.7380 n         1 EMQ     -0.540900
      2 C2         -1.2960   -3.7220    0.3410 ca        1 EMQ     -0.236300
      3 C3         -2.1860   -3.8560   -0.7310 ca        1 EMQ     -0.029000
      4 C4         -2.8690   -2.7540   -1.2160 ca        1 EMQ     -0.216000
      5 C5         -1.0990   -2.4750    0.9320 ca        1 EMQ     -0.014000
      6 C6         -1.7810   -1.3560    0.4640 ca        1 EMQ     -0.166300
      7 C7         -2.6650   -1.4690   -0.6430 ca        1 EMQ      0.226600
      8 N8         -3.2730   -0.3580   -1.1990 nh        1 EMQ     -0.742600
      9 C9         -3.2260    0.9370   -0.5410 c3        1 EMQ      0.268800
     10 C10        -1.5920   -0.0330    1.1350 c3        1 EMQ      0.204400
     11 C11        -2.8150    0.8710    0.9460 c3        1 EMQ     -0.100700
     12 C12        -2.5240    2.2570    1.5010 c3        1 EMQ     -0.075400
     13 C13        -1.2070    2.8170    1.0090 c3        1 EMQ     -0.108400
     14 C14        -0.0820    1.8060    1.1940 c3        1 EMQ      0.127100
     15 O15        -0.4090    0.5560    0.5790 os        1 EMQ     -0.416600
     16 C16        -4.5370    1.6760   -0.6770 ca        1 EMQ     -0.113300
     17 C17        -4.5580    2.9410   -1.2740 ca        1 EMQ     -0.120000
     18 C18        -5.7610    3.6340   -1.4020 ca        1 EMQ     -0.128000
     19 C19        -6.9490    3.0660   -0.9410 ca        1 EMQ     -0.121000
     20 C20        -6.9320    1.8040   -0.3490 ca        1 EMQ     -0.128000
     21 C21        -5.7310    1.1090   -0.2170 ca        1 EMQ     -0.120000
     22 F23        -1.1850   -6.1320    0.6860 f         1 EMQ     -0.242300
     23 F24         0.6850   -5.1340    0.2500 f         1 EMQ     -0.242300
     24 F25        -0.2360   -4.8980    2.1930 f         1 EMQ     -0.242300
     25 C26         1.1920    2.3080    0.4900 c3        1 EMQ      0.088000
     26 C27         3.6010    1.9560    0.4020 c         1 EMQ      0.746100
     27 N28         4.6730    1.0560    0.2950 n         1 EMQ     -0.559900
     28 O29         3.7690    3.1880    0.2190 o         1 EMQ     -0.643100
     29 C30         6.0220    1.5630    0.2900 c3        1 EMQ      0.083000
     30 C31         6.9290    0.7320   -0.6490 c3        1 EMQ      0.159800
     31 N32         8.3410    1.0460   -0.4760 n3        1 EMQ     -0.738600
     32 C33         9.1960    0.0700   -1.1160 c3        1 EMQ      0.155100
     33 C34         8.6750    2.4050   -0.8380 c3        1 EMQ      0.155100
     34 HN1         2.1480    0.4840    0.5650 hn        1 EMQ      0.302500
     35 H3         -2.3450   -4.8480   -1.1850 ha        1 EMQ      0.148000
     36 H4         -3.5610   -2.8760   -2.0620 ha        1 EMQ      0.141000
     37 H5         -0.4030   -2.3740    1.7820 ha        1 EMQ      0.149000
     38 HN8        -4.0820   -0.5280   -1.7560 hn        1 EMQ      0.426800
     39 H9         -2.4160    1.5220   -1.0830 h1        1 EMQ      0.077700
     40 H10        -1.4250   -0.1840    2.2420 h1        1 EMQ      0.048700
     41 H11        -3.6680    0.4240    1.5300 hc        1 EMQ      0.065700
     42 H12        -3.3560    2.9550    1.2190 hc        1 EMQ      0.053700
     43 H12A       -2.5020    2.1900    2.6220 hc        1 EMQ      0.053700
     44 H13        -1.2900    3.0890   -0.0760 hc        1 EMQ      0.055700
     45 H13A       -0.9580    3.7510    1.5750 hc        1 EMQ      0.055700
     46 H14         0.1030    1.6350    2.2920 h1        1 EMQ      0.052700
     47 H17        -3.6230    3.3910   -1.6410 ha        1 EMQ      0.136000
     48 H18        -5.7720    4.6300   -1.8700 ha        1 EMQ      0.136500
     49 H19        -7.8980    3.6130   -1.0450 ha        1 EMQ      0.136000
     50 H20        -7.8680    1.3540    0.0160 ha        1 EMQ      0.136500
     51 H21        -5.7220    0.1160    0.2580 ha        1 EMQ      0.136000
     52 H26         1.4300    3.3390    0.8790 h1        1 EMQ      0.063200
     53 H26A        0.9810    2.3880   -0.6150 h1        1 EMQ      0.063200
     54 HN28        4.5600    0.1370    0.6560 hn        1 EMQ      0.299500
     55 H30         6.0040    2.6350   -0.0600 h1        1 EMQ      0.063700
     56 H30A        6.4470    1.5430    1.3350 h1        1 EMQ      0.063700
     57 H31         6.7970   -0.3630   -0.4160 h1        1 EMQ      0.036200
     58 H31A        6.5920    0.8970   -1.7140 h1        1 EMQ      0.036200
     59 H33         9.0690    0.0310   -2.2330 h1        1 EMQ      0.032867
     60 H33A       10.2650    0.3220   -0.8870 h1        1 EMQ      0.032867
     61 H33B        8.9710   -0.9450   -0.6960 h1        1 EMQ      0.032867
     62 H34         8.1090    3.1080   -0.1720 h1        1 EMQ      0.032867
     63 H34A        9.7730    2.5680   -0.6770 h1        1 EMQ      0.032867
     64 H34B        8.4310    2.6530   -1.9080 h1        1 EMQ      0.032867
     65 C22        -0.5350   -4.9320    0.8520 c3        1 EMQ      0.695200
@<TRIPOS>BOND
     1    1   25 1   
     2    1   26 1   
     3    1   34 1   
     4    2    3 ar  
     5    2    5 ar  
     6    2   65 1   
     7    3    4 ar  
     8    3   35 1   
     9    4    7 ar  
    10    4   36 1   
    11    5    6 ar  
    12    5   37 1   
    13    6    7 ar  
    14    6   10 1   
    15    7    8 1   
    16    8    9 1   
    17    8   38 1   
    18    9   11 1   
    19    9   16 1   
    20    9   39 1   
    21   10   11 1   
    22   10   15 1   
    23   10   40 1   
    24   11   12 1   
    25   11   41 1   
    26   12   13 1   
    27   12   42 1   
    28   12   43 1   
    29   13   14 1   
    30   13   44 1   
    31   13   45 1   
    32   14   15 1   
    33   14   25 1   
    34   14   46 1   
    35   16   17 ar  
    36   16   21 ar  
    37   17   18 ar  
    38   17   47 1   
    39   18   19 ar  
    40   18   48 1   
    41   19   20 ar  
    42   19   49 1   
    43   20   21 ar  
    44   20   50 1   
    45   21   51 1   
    46   22   65 1   
    47   23   65 1   
    48   24   65 1   
    49   25   52 1   
    50   25   53 1   
    51   26   27 1   
    52   26   28 2   
    53   27   29 1   
    54   27   54 1   
    55   29   30 1   
    56   29   55 1   
    57   29   56 1   
    58   30   31 1   
    59   30   57 1   
    60   30   58 1   
    61   31   32 1   
    62   31   33 1   
    63   32   59 1   
    64   32   60 1   
    65   32   61 1   
    66   33   62 1   
    67   33   63 1   
    68   33   64 1   
@<TRIPOS>SUBSTRUCTURE
     1 EMQ         1 TEMP              0 ****  ****    0 ROOT
