@<TRIPOS>MOLECULE
EMR
   24    24     1     0     0
SMALL
bcc


@<TRIPOS>ATOM
      1 O1          0.1320   -0.0930   -0.1840 os        1 EMR     -0.393600
      2 C2          1.5370   -0.2410   -0.0270 c3        1 EMR      0.125400
      3 C3          1.9470   -0.1270    1.4480 c3        1 EMR      0.136800
      4 N4          1.1810   -1.0260    2.3040 n3        1 EMR     -0.750600
      5 C5         -0.2550   -0.9740    2.0570 c3        1 EMR      0.136800
      6 C6         -0.5920   -1.0610    0.5610 c3        1 EMR      0.125400
      7 C1'         1.5290   -0.9360    3.7030 c3        1 EMR      0.172800
      8 C2'         1.8040   -2.3650    4.2470 c3        1 EMR      0.078800
      9 N2'         2.1980   -2.3480    5.6840 nz        1 EMR     -0.836600
     10 H21         1.8690   -1.2220   -0.4560 h1        1 EMR      0.070700
     11 H22         1.9780    0.6090   -0.6120 h1        1 EMR      0.070700
     12 H31         3.0350   -0.4000    1.5380 h1        1 EMR      0.047450
     13 H32         1.8230    0.9480    1.7710 h1        1 EMR      0.047450
     14 H51        -0.7070   -0.0250    2.4690 h1        1 EMR      0.047450
     15 H52        -0.7290   -1.8480    2.5840 h1        1 EMR      0.047450
     16 H61        -0.3780   -2.0890    0.1660 h1        1 EMR      0.070700
     17 H62        -1.6700   -0.7970    0.3970 h1        1 EMR      0.070700
     18 H1'1        2.4590   -0.3140    3.8440 h1        1 EMR      0.055200
     19 H1'2        0.7050   -0.4720    4.3210 h1        1 EMR      0.055200
     20 H2'1        2.6400   -2.8470    3.6620 hx        1 EMR      0.120200
     21 H2'2        0.8780   -3.0010    4.1480 hx        1 EMR      0.120200
     22 HN21        2.3670   -3.3040    6.0120 hn        1 EMR      0.460800
     23 HN22        1.4540   -1.9270    6.2510 hn        1 EMR      0.460800
     24 H2'3        3.0540   -1.7970    5.8090 hn        1 EMR      0.460800
@<TRIPOS>BOND
     1    1    2 1   
     2    1    6 1   
     3    2    3 1   
     4    2   10 1   
     5    2   11 1   
     6    3    4 1   
     7    3   12 1   
     8    3   13 1   
     9    4    5 1   
    10    4    7 1   
    11    5    6 1   
    12    5   14 1   
    13    5   15 1   
    14    6   16 1   
    15    6   17 1   
    16    7    8 1   
    17    7   18 1   
    18    7   19 1   
    19    8    9 1   
    20    8   20 1   
    21    8   21 1   
    22    9   22 1   
    23    9   23 1   
    24    9   24 1   
@<TRIPOS>SUBSTRUCTURE
     1 EMR         1 TEMP              0 ****  ****    0 ROOT
