@<TRIPOS>MOLECULE
EMR
   24    24     1     0     0
SMALL
bcc


@<TRIPOS>ATOM
      1 O1          0.2160   -0.1040   -0.2190 os        1 EMR     -0.393600
      2 C2          1.6120   -0.2960   -0.0340 c3        1 EMR      0.125400
      3 C3          2.0000   -0.1720    1.4470 c3        1 EMR      0.136800
      4 N4          1.1890   -1.0300    2.3030 n3        1 EMR     -0.750600
      5 C5         -0.2400   -0.9340    2.0290 c3        1 EMR      0.136800
      6 C6         -0.5530   -1.0350    0.5290 c3        1 EMR      0.125400
      7 C1'         1.5150   -0.9290    3.7060 c3        1 EMR      0.172800
      8 C2'         1.7360   -2.3570    4.2760 c3        1 EMR      0.078800
      9 N2'         2.1050   -2.3300    5.7200 n4        1 EMR     -0.836600
     10 H21         1.9180   -1.2960   -0.4410 h1        1 EMR      0.070700
     11 H22         2.0910    0.5290   -0.6240 h1        1 EMR      0.070700
     12 H31         3.0760   -0.4800    1.5610 h1        1 EMR      0.047450
     13 H32         1.9060    0.9110    1.7500 h1        1 EMR      0.047450
     14 H51        -0.6670    0.0360    2.4180 h1        1 EMR      0.047450
     15 H52        -0.7530   -1.7830    2.5610 h1        1 EMR      0.047450
     16 H61        -1.6190   -0.7370    0.3410 h1        1 EMR      0.070700
     17 H62        -0.3680   -2.0750    0.1540 h1        1 EMR      0.070700
     18 H1'1        0.6950   -0.4310    4.3020 h1        1 EMR      0.055200
     19 H1'2        2.4610   -0.3340    3.8550 h1        1 EMR      0.055200
     20 H2'1        2.5670   -2.8740    3.7140 hx        1 EMR      0.120200
     21 H2'2        0.7920   -2.9660    4.1700 hx        1 EMR      0.120200
     22 HN21        1.3640   -1.8790    6.2670 hn        1 EMR      0.460800
     23 HN22        2.9750   -1.8040    5.8530 hn        1 EMR      0.460800
     24 H2'3        2.2390   -3.2860    6.0640 hn        1 EMR      0.460800
@<TRIPOS>BOND
     1    1    2 1   
     2    1    6 1   
     3    2    3 1   
     4    2   10 1   
     5    2   11 1   
     6    3    4 1   
     7    3   12 1   
     8    3   13 1   
     9    4    5 1   
    10    4    7 1   
    11    5    6 1   
    12    5   14 1   
    13    5   15 1   
    14    6   16 1   
    15    6   17 1   
    16    7    8 1   
    17    7   18 1   
    18    7   19 1   
    19    8    9 1   
    20    8   20 1   
    21    8   21 1   
    22    9   22 1   
    23    9   23 1   
    24    9   24 1   
@<TRIPOS>SUBSTRUCTURE
     1 EMR         1 TEMP              0 ****  ****    0 ROOT
