@<TRIPOS>MOLECULE
EMR
   23    23     1     0     0
SMALL
bcc


@<TRIPOS>ATOM
      1 O1          0.2890   -0.1830   -2.7060 os        1 EMR     -0.415600
      2 C2         -0.9750    0.3140   -2.2830 c3        1 EMR      0.126400
      3 C3         -1.3070   -0.1230   -0.8530 c3        1 EMR      0.131300
      4 N4         -0.2470    0.2080    0.0940 n3        1 EMR     -0.726600
      5 C5          1.0610   -0.2230   -0.3820 c3        1 EMR      0.131300
      6 C6          1.3370    0.2080   -1.8270 c3        1 EMR      0.126400
      7 C1'        -0.5570   -0.2890    1.4290 c3        1 EMR      0.165800
      8 C2'         0.3990    0.2640    2.5090 c3        1 EMR      0.154800
      9 N2'        -0.0350   -0.0890    3.8410 n3        1 EMR     -0.916800
     10 H21        -1.7080   -0.1350   -3.0030 h1        1 EMR      0.052950
     11 H22        -0.9860    1.4330   -2.3690 h1        1 EMR      0.052950
     12 H31        -1.5250   -1.2310   -0.8610 h1        1 EMR      0.041450
     13 H32        -2.2400    0.4120   -0.5240 h1        1 EMR      0.041450
     14 H51         1.8390    0.2500    0.2800 h1        1 EMR      0.041450
     15 H52         1.1800   -1.3430   -0.3140 h1        1 EMR      0.041450
     16 H61         2.2440   -0.3220   -2.2210 h1        1 EMR      0.052950
     17 H62         1.4820    1.3190   -1.8890 h1        1 EMR      0.052950
     18 H1'1       -0.5330   -1.4170    1.4720 h1        1 EMR      0.039700
     19 H1'2       -1.6090    0.0390    1.6680 h1        1 EMR      0.039700
     20 H2'1        0.5010    1.3800    2.3670 h1        1 EMR      0.033700
     21 H2'2        1.4210   -0.1890    2.3620 h1        1 EMR      0.033700
     22 HN21        0.5700    0.3270    4.5200 hn        1 EMR      0.350300
     23 HN22       -0.9740    0.2140    4.0080 hn        1 EMR      0.350300
@<TRIPOS>BOND
     1    1    2 1   
     2    1    6 1   
     3    2    3 1   
     4    2   10 1   
     5    2   11 1   
     6    3    4 1   
     7    3   12 1   
     8    3   13 1   
     9    4    5 1   
    10    4    7 1   
    11    5    6 1   
    12    5   14 1   
    13    5   15 1   
    14    6   16 1   
    15    6   17 1   
    16    7    8 1   
    17    7   18 1   
    18    7   19 1   
    19    8    9 1   
    20    8   20 1   
    21    8   21 1   
    22    9   22 1   
    23    9   23 1   
@<TRIPOS>SUBSTRUCTURE
     1 EMR         1 TEMP              0 ****  ****    0 ROOT
