@<TRIPOS>MOLECULE
EMR
   23    23     1     0     0
SMALL
bcc


@<TRIPOS>ATOM
      1 O1         -1.4870    0.9880   -2.3530 os        1 EMR     -0.415600
      2 C2         -0.0730    0.9880   -2.3530 c3        1 EMR      0.126400
      3 C3          0.5030    0.9880   -0.9550 c3        1 EMR      0.131300
      4 N4         -0.0420   -0.0370   -0.1480 n3        1 EMR     -0.726600
      5 C5         -1.4560   -0.0370   -0.1480 c3        1 EMR      0.131300
      6 C6         -2.0310   -0.0360   -1.5470 c3        1 EMR      0.126400
      7 C1'         0.4320    0.1070    1.1860 c3        1 EMR      0.165800
      8 C2'         1.2320   -1.1180    1.5710 c3        1 EMR      0.154800
      9 N2'         1.7090   -0.9730    2.9070 n3        1 EMR     -0.916800
     10 H21         0.2420    0.1940   -2.8250 h1        1 EMR      0.052950
     11 H22         0.2420    1.7830   -2.8250 h1        1 EMR      0.052950
     12 H31         0.3180    1.8510   -0.5370 h1        1 EMR      0.041450
     13 H32         1.4700    0.8660   -1.0120 h1        1 EMR      0.041450
     14 H51        -1.7720   -0.8310    0.3230 h1        1 EMR      0.041450
     15 H52        -1.7710    0.7570    0.3240 h1        1 EMR      0.041450
     16 H61        -2.9980    0.0870   -1.4900 h1        1 EMR      0.052950
     17 H62        -1.8460   -0.8990   -1.9650 h1        1 EMR      0.052950
     18 H1'1       -0.3270    0.2040    1.7920 h1        1 EMR      0.039700
     19 H1'2        1.0000    0.8980    1.2460 h1        1 EMR      0.039700
     20 H2'1        1.9900   -1.2160    0.9640 h1        1 EMR      0.033700
     21 H2'2        0.6640   -1.9100    1.5120 h1        1 EMR      0.033700
     22 HN21        2.6200   -1.0030    2.9100 hn        1 EMR      0.350300
     23 HN22        1.3800   -1.6510    3.4220 hn        1 EMR      0.350300
@<TRIPOS>BOND
     1    1    2 1   
     2    1    6 1   
     3    2    3 1   
     4    2   10 1   
     5    2   11 1   
     6    3    4 1   
     7    3   12 1   
     8    3   13 1   
     9    4    5 1   
    10    4    7 1   
    11    5    6 1   
    12    5   14 1   
    13    5   15 1   
    14    6   16 1   
    15    6   17 1   
    16    7    8 1   
    17    7   18 1   
    18    7   19 1   
    19    8    9 1   
    20    8   20 1   
    21    8   21 1   
    22    9   22 1   
    23    9   23 1   
@<TRIPOS>SUBSTRUCTURE
     1 EMR         1 TEMP              0 ****  ****    0 ROOT
