@<TRIPOS>MOLECULE
EMR
   24    24     1     0     0
SMALL
bcc


@<TRIPOS>ATOM
      1 O1          0.1710   -0.0990   -0.2010 os        1 EMR     -0.393600
      2 C2          1.5720   -0.2640   -0.0300 c3        1 EMR      0.125400
      3 C3          1.9700   -0.1440    1.4480 c3        1 EMR      0.136800
      4 N4          1.1860   -1.0280    2.3040 n3        1 EMR     -0.750600
      5 C5         -0.2470   -0.9590    2.0430 c3        1 EMR      0.136800
      6 C6         -0.5720   -1.0520    0.5450 c3        1 EMR      0.125400
      7 C1'         1.5220   -0.9330    3.7050 c3        1 EMR      0.172800
      8 C2'         1.7720   -2.3610    4.2610 c3        1 EMR      0.078800
      9 N2'         2.1550   -2.3390    5.7020 n4        1 EMR     -0.836600
     10 H21         2.0290    0.5770   -0.6170 h1        1 EMR      0.070700
     11 H22         1.8950   -1.2520   -0.4490 h1        1 EMR      0.070700
     12 H31         3.0540   -0.4310    1.5500 h1        1 EMR      0.047450
     13 H32         1.8570    0.9330    1.7630 h1        1 EMR      0.047450
     14 H51        -0.7380   -1.8230    2.5720 h1        1 EMR      0.047450
     15 H52        -0.6910   -0.0020    2.4450 h1        1 EMR      0.047450
     16 H61        -1.6450   -0.7760    0.3690 h1        1 EMR      0.070700
     17 H62        -0.3680   -2.0850    0.1590 h1        1 EMR      0.070700
     18 H1'1        2.4590   -0.3220    3.8500 h1        1 EMR      0.055200
     19 H1'2        0.6990   -0.4540    4.3120 h1        1 EMR      0.055200
     20 H2'1        0.8380   -2.9850    4.1590 hx        1 EMR      0.120200
     21 H2'2        2.6070   -2.8590    3.6870 hx        1 EMR      0.120200
     22 HN21        2.3070   -3.2960    6.0370 hn        1 EMR      0.460800
     23 HN22        1.4120   -1.9040    6.2590 hn        1 EMR      0.460800
     24 H2'3        3.0160   -1.7990    5.8300 hn        1 EMR      0.460800
@<TRIPOS>BOND
     1    1    2 1   
     2    1    6 1   
     3    2    3 1   
     4    2   10 1   
     5    2   11 1   
     6    3    4 1   
     7    3   12 1   
     8    3   13 1   
     9    4    5 1   
    10    4    7 1   
    11    5    6 1   
    12    5   14 1   
    13    5   15 1   
    14    6   16 1   
    15    6   17 1   
    16    7    8 1   
    17    7   18 1   
    18    7   19 1   
    19    8    9 1   
    20    8   20 1   
    21    8   21 1   
    22    9   22 1   
    23    9   23 1   
    24    9   24 1   
@<TRIPOS>SUBSTRUCTURE
     1 EMR         1 TEMP              0 ****  ****    0 ROOT
