@<TRIPOS>MOLECULE
EMU
   28    30     1     0     0
SMALL
bcc


@<TRIPOS>ATOM
      1 N1         -0.0130    0.2010   -0.0240 nb        1 EMU     -0.795000
      2 C2          1.3480    0.1930   -0.0250 ca        1 EMU      0.687900
      3 N3          2.2230    0.0400    0.9960 nb        1 EMU     -0.736000
      4 C4          1.5950   -0.1300    2.2000 ca        1 EMU      0.453800
      5 C5          0.1460   -0.1450    2.3650 ca        1 EMU     -0.233200
      6 C6         -0.6510    0.0250    1.1800 ca        1 EMU      0.762200
      7 C9         -2.8790    0.2360    0.1430 c3        1 EMU      0.265100
      8 N7         -0.1780   -0.3340    3.7160 nc        1 EMU     -0.541100
      9 C8          1.0030   -0.4290    4.3480 cd        1 EMU      0.396700
     10 N9          2.1150   -0.3140    3.4850 na        1 EMU     -0.379000
     11 C10        -4.3360    0.1990    0.5010 ca        1 EMU     -0.112300
     12 C11        -4.8940   -0.9420    1.0880 ca        1 EMU     -0.116000
     13 C12        -6.2550   -0.9800    1.3860 ca        1 EMU     -0.130500
     14 C13        -7.0660    0.1180    1.0970 ca        1 EMU     -0.122000
     15 C14        -6.5120    1.2560    0.5100 ca        1 EMU     -0.130500
     16 C15        -5.1500    1.3000    0.2160 ca        1 EMU     -0.116000
     17 N10        -2.0210   -0.0220    1.2730 nu        1 EMU     -0.859900
     18 H2          1.8080    0.3360   -1.0270 h5        1 EMU      0.051100
     19 H9C1       -2.6210    1.2400   -0.3080 h1        1 EMU      0.062200
     20 H9C2       -2.6790   -0.5480   -0.6480 h1        1 EMU      0.062200
     21 H8          1.1330   -0.5820    5.4250 h5        1 EMU      0.072800
     22 H9          3.0690   -0.3550    3.7280 hn        1 EMU      0.317700
     23 H11        -4.2570   -1.8120    1.3100 ha        1 EMU      0.138000
     24 H12        -6.6890   -1.8780    1.8480 ha        1 EMU      0.134500
     25 H13        -8.1400    0.0860    1.3300 ha        1 EMU      0.133000
     26 H14        -7.1500    2.1220    0.2810 ha        1 EMU      0.134500
     27 H15        -4.7170    2.2010   -0.2440 ha        1 EMU      0.138000
     28 H10        -2.4250   -0.0580    2.1800 hn        1 EMU      0.459800
@<TRIPOS>BOND
     1    1    2 ar  
     2    1    6 ar  
     3    2    3 ar  
     4    2   18 1   
     5    3    4 ar  
     6    4    5 ar  
     7    4   10 1   
     8    5    6 ar  
     9    5    8 1   
    10    6   17 1   
    11    7   11 1   
    12    7   17 1   
    13    7   19 1   
    14    7   20 1   
    15    8    9 2   
    16    9   10 1   
    17    9   21 1   
    18   10   22 1   
    19   11   12 ar  
    20   11   16 ar  
    21   12   13 ar  
    22   12   23 1   
    23   13   14 ar  
    24   13   24 1   
    25   14   15 ar  
    26   14   25 1   
    27   15   16 ar  
    28   15   26 1   
    29   16   27 1   
    30   17   28 1   
@<TRIPOS>SUBSTRUCTURE
     1 EMU         1 TEMP              0 ****  ****    0 ROOT
