@<TRIPOS>MOLECULE
EMU
   28    30     1     0     0
SMALL
bcc


@<TRIPOS>ATOM
      1 N1         -2.3960    1.5890   -1.6340 nb        1 EMU     -0.795000
      2 C2         -1.6490    0.4810   -1.8890 ca        1 EMU      0.687900
      3 N3         -0.7560   -0.1720   -1.1110 nb        1 EMU     -0.736000
      4 C4         -0.6140    0.4100    0.1190 ca        1 EMU      0.453800
      5 C5         -1.3430    1.5990    0.5450 ca        1 EMU     -0.233200
      6 C6         -2.2650    2.1760   -0.3980 ca        1 EMU      0.762200
      7 C9         -3.8760    3.9550   -0.9610 c3        1 EMU      0.266100
      8 N7         -0.9720    1.9450    1.8520 nc        1 EMU     -0.541100
      9 C8         -0.0670    1.0220    2.2120 cd        1 EMU      0.396700
     10 N9          0.1940    0.0640    1.2080 na        1 EMU     -0.379000
     11 C10        -4.5270    5.1670   -0.3600 ca        1 EMU     -0.112300
     12 C11        -5.3000    5.0540    0.8010 ca        1 EMU     -0.116000
     13 C12        -5.9290    6.1780    1.3340 ca        1 EMU     -0.130500
     14 C13        -5.7930    7.4180    0.7090 ca        1 EMU     -0.122000
     15 C14        -5.0250    7.5330   -0.4490 ca        1 EMU     -0.130500
     16 C15        -4.3890    6.4120   -0.9820 ca        1 EMU     -0.116000
     17 N10        -3.0070    3.2730   -0.0350 nh        1 EMU     -0.859900
     18 H2         -1.8000    0.0480   -2.9030 h5        1 EMU      0.051100
     19 H9C1       -4.6830    3.2370   -1.2950 h1        1 EMU      0.062200
     20 H9C2       -3.2910    4.2530   -1.8810 h1        1 EMU      0.062200
     21 H8          0.4430    0.9810    3.1820 h5        1 EMU      0.072800
     22 H9          0.8170   -0.6980    1.2530 hn        1 EMU      0.317700
     23 H11        -5.4160    4.0750    1.2910 ha        1 EMU      0.138000
     24 H12        -6.5350    6.0860    2.2470 ha        1 EMU      0.134500
     25 H13        -6.2920    8.3040    1.1290 ha        1 EMU      0.133000
     26 H14        -4.9160    8.5090   -0.9440 ha        1 EMU      0.134500
     27 H15        -3.7810    6.5070   -1.8940 ha        1 EMU      0.138000
     28 H10        -2.8010    3.7080    0.8350 hn        1 EMU      0.459800
@<TRIPOS>BOND
     1    1    2 ar  
     2    1    6 ar  
     3    2    3 ar  
     4    2   18 1   
     5    3    4 ar  
     6    4    5 ar  
     7    4   10 1   
     8    5    6 ar  
     9    5    8 1   
    10    6   17 1   
    11    7   11 1   
    12    7   17 1   
    13    7   19 1   
    14    7   20 1   
    15    8    9 2   
    16    9   10 1   
    17    9   21 1   
    18   10   22 1   
    19   11   12 ar  
    20   11   16 ar  
    21   12   13 ar  
    22   12   23 1   
    23   13   14 ar  
    24   13   24 1   
    25   14   15 ar  
    26   14   25 1   
    27   15   16 ar  
    28   15   26 1   
    29   16   27 1   
    30   17   28 1   
@<TRIPOS>SUBSTRUCTURE
     1 EMU         1 TEMP              0 ****  ****    0 ROOT
