@<TRIPOS>MOLECULE
EMU
   28    21     1     0     0
SMALL
bcc


@<TRIPOS>ATOM
      1 N1          2.3660   -0.6040   -0.9750 n1        1 EMU     -0.269000
      2 C2          3.7140   -0.7050   -0.9020 c1        1 EMU      0.025000
      3 N3          4.3900   -0.1520    0.1560 n1        1 EMU     -0.210000
      4 C4          3.7090    0.4980    1.1300 c1        1 EMU     -0.090000
      5 C5          2.3700    0.5990    1.0590 c1        1 EMU     -0.090000
      6 C6          1.6890    0.0390   -0.0110 c1        1 EMU      0.241000
      7 C9         -0.4500   -0.0200   -1.2330 c3        1 EMU      0.022000
      8 N7          1.9420    1.2930    2.1540 n1        1 EMU     -0.170500
      9 C8          3.0300    1.6180    2.9020 c1        1 EMU     -0.059000
     10 N9          4.1230    1.1310    2.2760 n1        1 EMU     -0.170500
     11 C10        -1.9440   -0.2590   -0.9560 c2        1 EMU     -0.105000
     12 C11        -2.4560   -1.5550   -0.9920 c2        1 EMU     -0.114000
     13 C12        -3.8300   -1.7690   -0.8400 c1        1 EMU     -0.131000
     14 C13        -4.6780   -0.6950   -0.6540 c1        1 EMU     -0.126000
     15 C14        -4.1610    0.6040   -0.6180 c1        1 EMU     -0.126000
     16 C15        -2.7920    0.8140   -0.7700 c1        1 EMU     -0.118000
     17 N10         0.2790   -0.0720   -0.0030 n3        1 EMU     -0.304000
     18 H2          4.1940   -1.1610   -1.5870 ha        1 EMU      0.188000
     19 H9C1       -0.1100   -0.7260   -1.8530 h1        1 EMU      0.101500
     20 H9C2       -0.3300    0.8560   -1.6430 h1        1 EMU      0.101500
     21 H8          3.0110    2.0080    3.8040 DU        1 EMU      0.235000
     22 H9          4.9510    1.2060    2.5540 DU        1 EMU      0.235000
     23 H11        -1.8720   -2.2910   -1.1200 ha        1 EMU      0.136000
     24 H12        -4.1890   -2.6820   -0.8660 ha        1 EMU      0.134000
     25 H13        -5.6510   -0.8430   -0.5460 ha        1 EMU      0.134000
     26 H14        -4.7410    1.3410   -0.4910 ha        1 EMU      0.134000
     27 H15        -2.4120    1.7730   -0.7430 ha        1 EMU      0.140000
     28 H10        -0.1520   -0.2460    0.7660 hn        1 EMU      0.255000
@<TRIPOS>BOND
     1    1    6 1   
     2    2    3 1   
     3    2   18 1   
     4    4    5 1   
     5    6   17 1   
     6    7   11 1   
     7    7   17 1   
     8    7   19 1   
     9    7   20 1   
    10    8    9 1   
    11    9   10 1   
    12   11   12 1   
    13   11   16 1   
    14   12   13 1   
    15   12   23 1   
    16   13   24 1   
    17   14   15 1   
    18   14   25 1   
    19   15   26 1   
    20   16   27 1   
    21   17   28 1   
@<TRIPOS>SUBSTRUCTURE
     1 EMU         1 TEMP              0 ****  ****    0 ROOT
