@<TRIPOS>MOLECULE
EMU
   29    31     1     0     0
SMALL
bcc


@<TRIPOS>ATOM
      1 N1         -0.0530   -1.2600    0.2680 nb        1 EMU     -0.685000
      2 C2          1.3090   -1.1840    0.1950 ca        1 EMU      0.672900
      3 N3          2.1720   -0.5600    1.0360 nb        1 EMU     -0.619000
      4 C4          1.5650    0.0610    2.0790 ca        1 EMU      0.452800
      5 C5          0.0990    0.0620    2.2810 ca        1 EMU     -0.142200
      6 C6         -0.6510   -0.6370    1.3150 ca        1 EMU      0.542200
      7 C9         -2.8020    0.2290    0.4610 c3        1 EMU      0.182100
      8 N7         -0.2200    0.7820    3.4380 nc        1 EMU     -0.579100
      9 C8          0.9650    1.2000    3.9240 cd        1 EMU      0.498700
     10 N9          2.0730    0.8010    3.1530 na        1 EMU     -0.360000
     11 C10        -4.2770    0.1730    0.6470 ca        1 EMU     -0.196300
     12 C11        -5.0520   -0.6750   -0.1530 ca        1 EMU     -0.097500
     13 C12        -6.4380   -0.6940   -0.0040 ca        1 EMU     -0.120500
     14 C13        -7.0510    0.1290    0.9420 ca        1 EMU     -0.076000
     15 C14        -6.2790    0.9750    1.7410 ca        1 EMU     -0.120500
     16 C15        -4.8930    0.9990    1.5950 ca        1 EMU     -0.097500
     17 N10        -2.1190   -0.6940    1.4410 n4        1 EMU     -0.749700
     18 H2          1.7680   -1.7080   -0.6760 h5        1 EMU      0.099100
     19 H9C1       -2.4070    1.2690    0.6460 hx        1 EMU      0.114700
     20 H9C2       -2.5060   -0.0970   -0.5780 hx        1 EMU      0.114700
     21 H8          1.0900    1.8030    4.8390 h5        1 EMU      0.108800
     22 H9          3.0300    0.9950    3.3250 hn        1 EMU      0.351700
     23 H11        -4.5740   -1.3150   -0.9120 ha        1 EMU      0.142000
     24 H12        -7.0490   -1.3560   -0.6390 ha        1 EMU      0.159500
     25 H13        -8.1480    0.1140    1.0560 ha        1 EMU      0.160000
     26 H14        -6.7650    1.6290    2.4820 ha        1 EMU      0.159500
     27 H15        -4.2890    1.6800    2.2150 ha        1 EMU      0.142000
     28 H10        -2.3800   -0.4220    2.3990 hn        1 EMU      0.470300
     29 H102       -2.4460   -1.6560    1.2740 hn        1 EMU      0.470300
@<TRIPOS>BOND
     1    1    2 ar  
     2    1    6 ar  
     3    2    3 ar  
     4    2   18 1   
     5    3    4 ar  
     6    4    5 ar  
     7    4   10 1   
     8    5    6 ar  
     9    5    8 1   
    10    6   17 1   
    11    7   11 1   
    12    7   17 1   
    13    7   19 1   
    14    7   20 1   
    15    8    9 2   
    16    9   10 1   
    17    9   21 1   
    18   10   22 1   
    19   11   12 ar  
    20   11   16 ar  
    21   12   13 ar  
    22   12   23 1   
    23   13   14 ar  
    24   13   24 1   
    25   14   15 ar  
    26   14   25 1   
    27   15   16 ar  
    28   15   26 1   
    29   16   27 1   
    30   17   28 1   
    31   17   29 1   
@<TRIPOS>SUBSTRUCTURE
     1 EMU         1 TEMP              0 ****  ****    0 ROOT
