@<TRIPOS>MOLECULE
EN1
   20    20     1     0     0
SMALL
bcc


@<TRIPOS>ATOM
      1 C1         -0.5790   -0.5260   -0.2130 c         1 EN1      0.893800
      2 O1          0.3860   -1.2030   -0.6460 o         1 EN1     -0.815800
      3 C2         -0.7630   -0.2380    1.2770 ce        1 EN1      0.063900
      4 O2         -1.4990   -0.0510   -0.9480 o         1 EN1     -0.815800
      5 C3          0.0750   -0.2350    2.3400 cf        1 EN1     -0.242200
      6 O3          5.5240   -1.4820    3.0050 oh        1 EN1     -0.522100
      7 C4          1.4760   -0.5760    2.4310 ca        1 EN1     -0.006800
      8 O4         -2.0550    0.1490    1.5850 oh        1 EN1     -0.559100
      9 C5          2.2500    0.0710    3.4130 ca        1 EN1     -0.104000
     10 C6          3.5950   -0.2310    3.5950 ca        1 EN1     -0.190500
     11 C7          4.1860   -1.2070    2.7820 ca        1 EN1      0.077100
     12 C8          3.4360   -1.8680    1.8010 ca        1 EN1     -0.190500
     13 C9          2.0910   -1.5530    1.6320 ca        1 EN1     -0.104000
     14 H3         -0.3570    0.0970    3.3050 ha        1 EN1      0.106000
     15 HO3         5.8010   -2.1140    2.3280 ho        1 EN1      0.404000
     16 HO4        -2.5430    0.2460    0.7450 ho        1 EN1      0.446000
     17 H5          1.7820    0.8390    4.0470 ha        1 EN1      0.158000
     18 H6          4.1950    0.2800    4.3580 ha        1 EN1      0.121500
     19 H8          3.9080   -2.6260    1.1620 ha        1 EN1      0.121500
     20 H9          1.5000   -2.0560    0.8430 ha        1 EN1      0.158000
@<TRIPOS>BOND
     1    1    2 1   
     2    1    3 1   
     3    1    4 1   
     4    3    5 2   
     5    3    8 1   
     6    5    7 1   
     7    5   14 1   
     8    6   11 1   
     9    6   15 1   
    10    7    9 ar  
    11    7   13 ar  
    12    8   16 1   
    13    9   10 ar  
    14    9   17 1   
    15   10   11 ar  
    16   10   18 1   
    17   11   12 ar  
    18   12   13 ar  
    19   12   19 1   
    20   13   20 1   
@<TRIPOS>SUBSTRUCTURE
     1 EN1         1 TEMP              0 ****  ****    0 ROOT
