@<TRIPOS>MOLECULE
EN1
   20    16     1     0     0
SMALL
bcc


@<TRIPOS>ATOM
      1 C1          0.9630    2.5490   -1.0820 c1        1 EN1      0.383000
      2 O1          0.2330    2.7270   -2.0930 o         1 EN1     -0.535500
      3 C2          0.3560    2.5920    0.3080 c1        1 EN1      0.050500
      4 O2          2.2030    2.3760   -1.2230 o         1 EN1     -0.535500
      5 C3         -0.1180    1.4540    0.8770 c1        1 EN1     -0.242500
      6 O3         -0.5740   -4.0070   -0.2800 oh        1 EN1     -0.259000
      7 C4         -0.0410    0.1310    0.1190 c1        1 EN1      0.023000
      8 O4          0.2840    3.8180    1.0110 oh        1 EN1     -0.259000
      9 C5         -1.2610   -0.3720   -0.3050 c2        1 EN1     -0.132000
     10 C6         -1.4270   -1.7420   -0.4740 c1        1 EN1     -0.216000
     11 C7         -0.3720   -2.6050   -0.2200 c1        1 EN1      0.050500
     12 C8          0.8490   -2.1010    0.2040 c1        1 EN1     -0.242500
     13 C9          1.0150   -0.7320    0.3730 c1        1 EN1     -0.101000
     14 H3         -0.5080    1.4820    1.7720 ha        1 EN1      0.112000
     15 HO3        -1.1920   -4.1910   -0.8960 ho        1 EN1      0.188000
     16 HO4         0.4720    3.6800    1.8640 ho        1 EN1      0.188000
     17 H5         -2.0230    0.2310   -0.4230 ha        1 EN1      0.114000
     18 H6         -2.2830   -2.0960   -0.7870 ha        1 EN1      0.107000
     19 H8          1.5830   -2.7120    0.4200 ha        1 EN1      0.112000
     20 H9          1.8410   -0.4820    0.8350 ha        1 EN1      0.195000
@<TRIPOS>BOND
     1    1    2 1   
     2    1    4 1   
     3    3    5 1   
     4    3    8 1   
     5    5   14 1   
     6    6   11 1   
     7    6   15 1   
     8    7    9 1   
     9    7   13 1   
    10    8   16 1   
    11    9   10 1   
    12    9   17 1   
    13   10   18 1   
    14   11   12 1   
    15   12   19 1   
    16   13   20 1   
@<TRIPOS>SUBSTRUCTURE
     1 EN1         1 TEMP              0 ****  ****    0 ROOT
