@<TRIPOS>MOLECULE
EN1
   20    20     1     0     0
SMALL
bcc


@<TRIPOS>ATOM
      1 C1          2.3480   -1.0150   -0.0750 c         1 EN1      0.932800
      2 O1          2.5130   -1.6460    0.9980 o         1 EN1     -0.801800
      3 C2          2.1910    0.5150    0.0350 ce        1 EN1      0.097900
      4 O2          2.2900   -1.5120   -1.2300 o         1 EN1     -0.801800
      5 C3          1.0610    1.2640    0.0690 cf        1 EN1     -0.322200
      6 O3         -4.3390   -0.2780   -0.3230 oh        1 EN1     -0.522100
      7 C4         -0.3040    0.8100   -0.0390 ca        1 EN1      0.010200
      8 O4          3.4210    1.1120    0.1310 oh        1 EN1     -0.492100
      9 C5         -1.3330    1.6460    0.4340 ca        1 EN1     -0.116000
     10 C6         -2.6710    1.2760    0.3380 ca        1 EN1     -0.182500
     11 C7         -2.9940    0.0450   -0.2440 ca        1 EN1      0.071100
     12 C8         -1.9880   -0.8030   -0.7260 ca        1 EN1     -0.182500
     13 C9         -0.6560   -0.4180   -0.6250 ca        1 EN1     -0.116000
     14 H3          1.1620    2.3570    0.2090 ha        1 EN1      0.089000
     15 HO3        -4.3950   -1.1690   -0.6930 ho        1 EN1      0.404000
     16 HO4         3.3050    2.0700    0.2210 ho        1 EN1      0.379000
     17 H5         -1.0760    2.6110    0.8950 ha        1 EN1      0.154500
     18 H6         -3.4700    1.9300    0.7110 ha        1 EN1      0.122000
     19 H8         -2.2490   -1.7690   -1.1800 ha        1 EN1      0.122000
     20 H9          0.1410   -1.0850   -1.0100 ha        1 EN1      0.154500
@<TRIPOS>BOND
     1    1    2 1   
     2    1    3 1   
     3    1    4 1   
     4    3    5 2   
     5    3    8 1   
     6    5    7 1   
     7    5   14 1   
     8    6   11 1   
     9    6   15 1   
    10    7    9 ar  
    11    7   13 ar  
    12    8   16 1   
    13    9   10 ar  
    14    9   17 1   
    15   10   11 ar  
    16   10   18 1   
    17   11   12 ar  
    18   12   13 ar  
    19   12   19 1   
    20   13   20 1   
@<TRIPOS>SUBSTRUCTURE
     1 EN1         1 TEMP              0 ****  ****    0 ROOT
