@<TRIPOS>MOLECULE
EN1
   20    20     1     0     0
SMALL
bcc


@<TRIPOS>ATOM
      1 C1         -0.5660   -0.4670   -0.2210 c         1 EN1      0.893800
      2 O1          0.3830   -1.1700   -0.6490 o         1 EN1     -0.815800
      3 C2         -0.7460   -0.1720    1.2680 ce        1 EN1      0.063900
      4 O2         -1.4710    0.0290   -0.9590 o         1 EN1     -0.815800
      5 C3          0.0880   -0.1910    2.3340 cf        1 EN1     -0.242200
      6 O3          5.4970   -1.5910    3.0200 oh        1 EN1     -0.522100
      7 C4          1.4780   -0.5710    2.4300 ca        1 EN1     -0.006800
      8 O4         -2.0280    0.2530    1.5720 oh        1 EN1     -0.559100
      9 C5          2.2670    0.0560    3.4130 ca        1 EN1     -0.104000
     10 C6          3.6030   -0.2850    3.6010 ca        1 EN1     -0.190500
     11 C7          4.1680   -1.2780    2.7920 ca        1 EN1      0.077100
     12 C8          3.4030   -1.9190    1.8100 ca        1 EN1     -0.190500
     13 C9          2.0680   -1.5660    1.6350 ca        1 EN1     -0.104000
     14 H3         -0.3380    0.1550    3.2970 ha        1 EN1      0.106000
     15 HO3         5.7580   -2.2320    2.3450 ho        1 EN1      0.404000
     16 HO4        -2.5100    0.3610    0.7290 ho        1 EN1      0.446000
     17 H5          1.8200    0.8380    4.0450 ha        1 EN1      0.158000
     18 H6          4.2150    0.2100    4.3650 ha        1 EN1      0.121500
     19 H8          3.8550   -2.6920    1.1730 ha        1 EN1      0.121500
     20 H9          1.4660   -2.0530    0.8450 ha        1 EN1      0.158000
@<TRIPOS>BOND
     1    1    2 1   
     2    1    3 1   
     3    1    4 1   
     4    3    5 2   
     5    3    8 1   
     6    5    7 1   
     7    5   14 1   
     8    6   11 1   
     9    6   15 1   
    10    7    9 ar  
    11    7   13 ar  
    12    8   16 1   
    13    9   10 ar  
    14    9   17 1   
    15   10   11 ar  
    16   10   18 1   
    17   11   12 ar  
    18   12   13 ar  
    19   12   19 1   
    20   13   20 1   
@<TRIPOS>SUBSTRUCTURE
     1 EN1         1 TEMP              0 ****  ****    0 ROOT
