@<TRIPOS>MOLECULE
EN5
   89    84     1     0     0
SMALL
bcc


@<TRIPOS>ATOM
      1 C          -1.7510    3.7850   -0.5650 c2        1 EN5     -0.120000
      2 N          -0.7470    3.0190   -0.7020 n2        1 EN5     -0.232000
      3 O          -7.1570   -1.5870    7.8220 o         1 EN5     -0.387000
      4 C1         -0.6400   -0.0600    1.0700 c3        1 EN5     -0.274000
      5 N1         -9.2630   -0.7280    7.6810 n         1 EN5     -0.371000
      6 C2         -4.5180    2.9840    1.6330 c2        1 EN5     -0.237000
      7 N2        -11.9660   -2.1660    9.7690 n         1 EN5     -0.348000
      8 C3         -4.1020    2.1770    2.6060 c2        1 EN5     -0.156000
      9 N3        -14.2690   -8.2100   11.6870 n3        1 EN5     -0.349000
     10 C4         -4.0690    0.6980    2.4960 c3        1 EN5     -0.140000
     11 C5         -4.4230    0.0080    3.7990 c3        1 EN5     -0.152000
     12 C6         -5.8740    0.2210    4.1740 c3        1 EN5     -0.160000
     13 C7         -6.2000   -0.4540    5.4890 c3        1 EN5     -0.153000
     14 C8         -7.6520   -0.2420    5.8570 c3        1 EN5     -0.176000
     15 C9         -7.9880   -0.9230    7.1670 c2        1 EN5      0.290000
     16 C10        -9.7850   -1.6090    8.7040 c3        1 EN5     -0.112000
     17 C11        -9.3440   -1.3500   10.1280 c1        1 EN5      0.021000
     18 C12       -11.3330   -1.6560    8.6660 c2        1 EN5      0.323000
     19 C13       -13.4110   -2.2590    9.8430 c3        1 EN5      0.080000
     20 C14       -13.8760   -3.3270   10.8440 c3        1 EN5     -0.156000
     21 C15       -13.4980   -4.7220   10.4000 c3        1 EN5     -0.160000
     22 C16       -14.0930   -5.7590   11.3300 c3        1 EN5     -0.162000
     23 C17       -13.6880   -7.1620   10.8820 c3        1 EN5     -0.077000
     24 C18       -14.0810   -0.9310   10.1760 c2        1 EN5     -0.147000
     25 C19       -14.5300    0.4200   12.0630 c2        1 EN5     -0.295000
     26 C20       -15.2880    0.3650   13.3300 c3        1 EN5     -0.099000
     27 C21       -16.5240    1.2430   13.2940 c3        1 EN5     -0.184000
     28 C22       -22.3470   -1.1820   14.1630 c2        1 EN5     -0.240000
     29 C23       -22.2160   -0.0830   13.4220 c2        1 EN5     -0.153000
     30 C24       -21.7700   -0.0730   12.0160 c3        1 EN5     -0.211000
     31 C25       -18.7400    1.5220   12.0980 c1        1 EN5     -0.066000
     32 C26       -17.5670    0.7150   12.3300 c3        1 EN5     -0.253000
     33 H          -1.5320   -0.0430    0.4050 hc        1 EN5      0.069250
     34 HA         -4.5140    4.0770    1.7370 ha        1 EN5      0.112000
     35 HN          0.2810    0.0570    0.4580 hc        1 EN5      0.069250
     36 HNA        -0.7500    2.1750   -0.1640 hn        1 EN5      0.137000
     37 H1         -2.6350    3.6230    0.0880 h4        1 EN5      0.106000
     38 H1A        -1.7750    4.7260   -1.1480 h4        1 EN5      0.106000
     39 HN1        -9.9500   -0.3100    7.0880 hn        1 EN5      0.245000
     40 HO1        -7.5690   -0.6610    9.7060 ho        1 EN5      0.209000
     41 H2         -0.6040   -1.0290    1.6130 hc        1 EN5      0.069250
     42 H2A        -0.7060    0.7720    1.8040 hc        1 EN5      0.069250
     43 HN2       -11.4520   -2.2400   10.6230 hn        1 EN5      0.259000
     44 H3         -3.7630    0.3910    4.6210 hc        1 EN5      0.083500
     45 H3A        -4.8970    2.6120    0.6720 ha        1 EN5      0.112000
     46 HN3       -13.8850   -9.0980   11.4320 hn        1 EN5      0.144500
     47 HN3A      -14.1100   -8.0480   12.6610 hn        1 EN5      0.144500
     48 H4         -3.7350    2.5830    3.5640 ha        1 EN5      0.122000
     49 H4A        -3.0270    0.3880    2.1950 hc        1 EN5      0.090000
     50 HN4       -13.5810   -0.0490    8.4280 hn        1 EN5      0.205000
     51 H5         -4.2230   -1.0910    3.6950 hc        1 EN5      0.083500
     52 H5A        -4.7640    0.3480    1.6860 hc        1 EN5      0.090000
     53 H6         -6.0810    1.3220    4.2490 hc        1 EN5      0.082000
     54 H6A        -6.5360   -0.1870    3.3650 hc        1 EN5      0.082000
     55 H7         -5.5440   -0.0480    6.3040 hc        1 EN5      0.098500
     56 H7A        -5.9880   -1.5540    5.4210 hc        1 EN5      0.098500
     57 H8         -8.3160   -0.6590    5.0530 hc        1 EN5      0.111000
     58 H8A        -7.8690    0.8570    5.9430 hc        1 EN5      0.111000
     59 H10        -9.4380   -2.6790    8.4990 h1        1 EN5      0.144000
     60 H11        -5.5340   -1.4700    9.6760 ha        1 EN5      0.002500
     61 H11A       -5.8620   -2.0210    9.8940 ha        1 EN5      0.002500
     62 H13       -13.7840   -2.5470    8.8100 h1        1 EN5      0.128000
     63 H14       -14.9920   -3.2400   10.9250 hc        1 EN5      0.102000
     64 H14A      -13.4530   -3.1150   11.8610 hc        1 EN5      0.102000
     65 H15       -12.3820   -4.8320   10.3820 hc        1 EN5      0.083500
     66 H15A      -13.8660   -4.9000    9.3550 hc        1 EN5      0.083500
     67 H16       -13.7390   -5.5730   12.3780 hc        1 EN5      0.088000
     68 H16A      -15.2110   -5.6680   11.3340 hc        1 EN5      0.088000
     69 H17       -14.0400   -7.3210    9.8220 h1        1 EN5      0.063500
     70 H17A      -12.5570   -7.2080   10.8620 h1        1 EN5      0.063500
     71 H19       -14.2800    1.3660   11.5800 h4        1 EN5      0.149000
     72 H19A      -14.8130    0.7070    9.2800 hn        1 EN5      0.205000
     73 H20       -14.6100    0.7230   14.1530 hc        1 EN5      0.092500
     74 H20A      -15.5790   -0.6920   13.5700 hc        1 EN5      0.092500
     75 H21       -16.2340    2.2850   12.9970 hc        1 EN5      0.081000
     76 H22       -16.9610    1.2990   14.3250 hc        1 EN5      0.081000
     77 H22A      -22.1340   -2.1870   13.7760 ha        1 EN5      0.107000
     78 H23       -22.6790   -1.1490   15.2080 ha        1 EN5      0.107000
     79 H23A      -22.4410    0.9110   13.8440 ha        1 EN5      0.113000
     80 H24       -21.6120   -1.1070   11.6230 hc        1 EN5      0.091000
     81 H24A      -22.5340    0.4330   11.3740 hc        1 EN5      0.091000
     82 H25       -20.8030    0.4940   11.9180 hc        1 EN5      0.091000
     83 H25A      -18.8040    2.4770   12.6430 ha        1 EN5      0.038000
     84 H26       -17.9340   -0.2990   12.6710 hc        1 EN5      0.149500
     85 H26A      -17.0900    0.5340   11.3190 hc        1 EN5      0.149500
     86 O1         -8.1930   -0.8850   10.4370 oh        1 EN5     -0.135000
     87 O2        -11.9540   -1.3090    7.6350 o         1 EN5     -0.412000
     88 O3        -14.2450   -0.7440   11.5090 os        1 EN5      0.047000
     89 N4        -13.9890    0.1470    9.3170 n3        1 EN5     -0.341000
@<TRIPOS>BOND
     1    1    2 1   
     2    1   37 1   
     3    1   38 1   
     4    2   36 1   
     5    3   15 1   
     6    4   33 1   
     7    4   35 1   
     8    4   41 1   
     9    4   42 1   
    10    5   15 1   
    11    5   16 1   
    12    5   39 1   
    13    6    8 1   
    14    6   34 1   
    15    6   45 1   
    16    7   18 1   
    17    7   19 1   
    18    7   43 1   
    19    8   10 1   
    20    8   48 1   
    21    9   23 1   
    22    9   46 1   
    23    9   47 1   
    24   10   11 1   
    25   10   49 1   
    26   10   52 1   
    27   11   12 1   
    28   11   44 1   
    29   11   51 1   
    30   12   13 1   
    31   12   53 1   
    32   12   54 1   
    33   13   14 1   
    34   13   55 1   
    35   13   56 1   
    36   14   15 1   
    37   14   57 1   
    38   14   58 1   
    39   16   17 1   
    40   16   18 1   
    41   16   59 1   
    42   17   86 1   
    43   18   87 1   
    44   19   20 1   
    45   19   24 1   
    46   19   62 1   
    47   20   21 1   
    48   20   63 1   
    49   20   64 1   
    50   21   22 1   
    51   21   65 1   
    52   21   66 1   
    53   22   23 1   
    54   22   67 1   
    55   22   68 1   
    56   23   69 1   
    57   23   70 1   
    58   24   88 1   
    59   24   89 1   
    60   25   26 1   
    61   25   71 1   
    62   25   88 1   
    63   26   27 1   
    64   26   73 1   
    65   26   74 1   
    66   27   32 1   
    67   27   75 1   
    68   27   76 1   
    69   28   29 1   
    70   28   77 1   
    71   28   78 1   
    72   29   30 1   
    73   29   79 1   
    74   30   80 1   
    75   30   81 1   
    76   30   82 1   
    77   31   32 1   
    78   31   83 1   
    79   32   84 1   
    80   32   85 1   
    81   40   86 1   
    82   50   89 1   
    83   60   61 1   
    84   72   89 1   
@<TRIPOS>SUBSTRUCTURE
     1 EN5         1 TEMP              0 ****  ****    0 ROOT
