@<TRIPOS>MOLECULE
ENB
   85    86     1     0     0
SMALL
bcc


@<TRIPOS>ATOM
      1 C1          1.0630   -0.0610    0.0690 c3        1 ENB      0.180700
      2 C2          0.4460   -1.3080    0.6280 c2        1 ENB     -0.189200
      3 N1          1.7320    0.7770    1.1410 n4        1 ENB     -0.653800
      4 C3          2.8940    0.1850    1.8350 c         1 ENB      0.557100
      5 C4          3.5010    1.0190    2.9850 c3        1 ENB      0.144800
      6 O1          3.3330   -0.9210    1.5450 o         1 ENB     -0.428100
      7 N2          5.0120    1.0740    2.8220 n4        1 ENB     -0.665800
      8 C5          2.9380    2.3950    3.1140 ca        1 ENB     -0.256300
      9 C6          3.1750    3.3760    2.1360 ca        1 ENB     -0.114000
     10 C7          2.6520    4.6540    2.2950 ca        1 ENB     -0.105500
     11 C8          1.8870    4.9660    3.4260 ca        1 ENB     -0.044000
     12 C9          1.6540    3.9940    4.4000 ca        1 ENB     -0.105500
     13 C10         2.1840    2.7120    4.2530 ca        1 ENB     -0.114000
     14 C11         5.7670    0.0760    3.6420 c         1 ENB      0.532100
     15 C12         7.2330   -0.1680    3.2480 c3        1 ENB      0.070500
     16 O2          5.2060   -0.4780    4.5750 o         1 ENB     -0.383100
     17 N3          8.1090   -0.0170    4.4530 n4        1 ENB     -0.671800
     18 C13         8.0710    1.4130    5.0010 c         1 ENB      0.675100
     19 O3          9.0910    1.6210    5.7860 os        1 ENB     -0.408900
     20 O4          7.1330    2.1230    4.6370 o         1 ENB     -0.539000
     21 C14         9.2810    2.9890    6.5200 c3        1 ENB      0.244800
     22 C15         1.9850   -0.4070   -1.1040 c3        1 ENB     -0.099400
     23 C16         2.6140    0.7970   -1.7710 c3        1 ENB     -0.151700
     24 C17         2.8740    0.5780   -3.2730 c3        1 ENB     -0.096400
     25 C18         4.3460    0.9780   -3.5100 c3        1 ENB      0.067000
     26 N4          4.9210    1.2220   -2.1930 n         1 ENB     -0.501900
     27 C19         4.0050    1.1210   -1.1980 c         1 ENB      0.716500
     28 O5          4.2510    1.2720    0.0360 o         1 ENB     -0.852500
     29 C20         7.3610   -1.5730    2.6000 c3        1 ENB     -0.074700
     30 C21         8.6670   -1.6650    1.8390 c3        1 ENB     -0.134100
     31 C22         7.2380   -2.6960    3.6040 c3        1 ENB     -0.134100
     32 C23         8.0840    3.1820    7.4090 c3        1 ENB     -0.143100
     33 C24        10.5560    2.6840    7.2700 c3        1 ENB     -0.143100
     34 C25         9.4390    4.0400    5.4550 c3        1 ENB     -0.143100
     35 C26        -0.6930   -1.3440    1.3270 ce        1 ENB     -0.117200
     36 C27        -1.4440   -0.1370    1.7400 c         1 ENB      0.636300
     37 O6         -2.7580   -0.3390    1.8930 os        1 ENB     -0.373900
     38 O7         -0.9370    0.9800    1.9710 o         1 ENB     -0.638000
     39 C28        -3.6010    0.7740    2.2940 c3        1 ENB      0.139400
     40 C29        -3.9670    1.6150    1.1010 c3        1 ENB     -0.133100
     41 H1          0.2310    0.6240   -0.3070 hx        1 ENB      0.129700
     42 H2          0.9690   -2.2480    0.3680 ha        1 ENB      0.183000
     43 HN1         0.9990    1.0300    1.8470 hn        1 ENB      0.500300
     44 H4          3.2720    0.4290    3.9360 hx        1 ENB      0.164700
     45 HN2         5.3220    2.0200    3.1240 hn        1 ENB      0.505800
     46 H6          3.7790    3.1420    1.2420 ha        1 ENB      0.154000
     47 H7          2.8400    5.4280    1.5300 ha        1 ENB      0.183000
     48 H8          1.4710    5.9840    3.5470 ha        1 ENB      0.189000
     49 H9          1.0500    4.2390    5.2920 ha        1 ENB      0.183000
     50 H10         1.9980    1.9580    5.0360 ha        1 ENB      0.154000
     51 H12         7.5820    0.6090    2.4980 hx        1 ENB      0.134700
     52 HN3         9.0790   -0.2630    4.1940 hn        1 ENB      0.496300
     53 H151        2.7770   -1.1310   -0.7740 hc        1 ENB      0.107700
     54 H152        1.3340   -0.9450   -1.8530 hc        1 ENB      0.107700
     55 H16         1.9680    1.7080   -1.6410 hc        1 ENB      0.089700
     56 H171        2.7140   -0.4900   -3.5650 hc        1 ENB      0.095700
     57 H172        2.1910    1.2100   -3.8930 hc        1 ENB      0.095700
     58 H181        4.9160    0.1550   -4.0240 h1        1 ENB      0.095700
     59 H182        4.4190    1.9100   -4.1370 h1        1 ENB      0.095700
     60 HN4         5.8690    1.4850   -2.0780 hn        1 ENB      0.354500
     61 H20         6.5080   -1.6460    1.8630 hc        1 ENB      0.094700
     62 H211        8.7690   -0.8350    1.0980 hc        1 ENB      0.077367
     63 H212        9.5490   -1.6530    2.5250 hc        1 ENB      0.077367
     64 H213        8.6950   -2.6360    1.2770 hc        1 ENB      0.077367
     65 H221        6.3660   -2.5460    4.2870 hc        1 ENB      0.077367
     66 H222        8.1690   -2.8160    4.2110 hc        1 ENB      0.077367
     67 H223        7.0810   -3.6630    3.0570 hc        1 ENB      0.077367
     68 H231        7.9610    2.3220    8.1120 hc        1 ENB      0.087256
     69 H232        8.2380    4.1090    8.0210 hc        1 ENB      0.087256
     70 H233        7.1510    3.3100    6.8080 hc        1 ENB      0.087256
     71 H241       10.8340    3.5940    7.8650 hc        1 ENB      0.087256
     72 H242       10.4160    1.8270    7.9730 hc        1 ENB      0.087256
     73 H243       11.3920    2.4470    6.5680 hc        1 ENB      0.087256
     74 H251        8.4980    4.1640    4.8670 hc        1 ENB      0.087256
     75 H252       10.2820    3.7910    4.7640 hc        1 ENB      0.087256
     76 H253        9.6760    5.0190    5.9510 hc        1 ENB      0.087256
     77 H26        -1.1540   -2.3040    1.6360 ha        1 ENB      0.209000
     78 H281       -4.4920    0.2350    2.7210 h1        1 ENB      0.088700
     79 H282       -3.0770    1.3690    3.0850 h1        1 ENB      0.088700
     80 H291       -4.7150    2.3860    1.4130 hc        1 ENB      0.064367
     81 H292       -3.0660    2.1330    0.6920 hc        1 ENB      0.064367
     82 H293       -4.4200    0.9880    0.2950 hc        1 ENB      0.064367
     83 H121        2.0780    1.6470    0.6980 hn        1 ENB      0.500300
     84 H22         5.2510    0.9600    1.8180 hn        1 ENB      0.505800
     85 H32         7.8080   -0.6700    5.1950 hn        1 ENB      0.496300
@<TRIPOS>BOND
     1    1    2 1   
     2    1    3 1   
     3    1   22 1   
     4    1   41 1   
     5    2   35 2   
     6    2   42 1   
     7    3    4 1   
     8    3   43 1   
     9    3   83 1   
    10    4    5 1   
    11    4    6 2   
    12    5    7 1   
    13    5    8 1   
    14    5   44 1   
    15    7   14 1   
    16    7   45 1   
    17    7   84 1   
    18    8    9 ar  
    19    8   13 ar  
    20    9   10 ar  
    21    9   46 1   
    22   10   11 ar  
    23   10   47 1   
    24   11   12 ar  
    25   11   48 1   
    26   12   13 ar  
    27   12   49 1   
    28   13   50 1   
    29   14   15 1   
    30   14   16 2   
    31   15   17 1   
    32   15   29 1   
    33   15   51 1   
    34   17   18 1   
    35   17   52 1   
    36   17   85 1   
    37   18   19 1   
    38   18   20 2   
    39   19   21 1   
    40   21   32 1   
    41   21   33 1   
    42   21   34 1   
    43   22   23 1   
    44   22   53 1   
    45   22   54 1   
    46   23   24 1   
    47   23   27 1   
    48   23   55 1   
    49   24   25 1   
    50   24   56 1   
    51   24   57 1   
    52   25   26 1   
    53   25   58 1   
    54   25   59 1   
    55   26   27 1   
    56   26   60 1   
    57   27   28 2   
    58   29   30 1   
    59   29   31 1   
    60   29   61 1   
    61   30   62 1   
    62   30   63 1   
    63   30   64 1   
    64   31   65 1   
    65   31   66 1   
    66   31   67 1   
    67   32   68 1   
    68   32   69 1   
    69   32   70 1   
    70   33   71 1   
    71   33   72 1   
    72   33   73 1   
    73   34   74 1   
    74   34   75 1   
    75   34   76 1   
    76   35   36 1   
    77   35   77 1   
    78   36   37 1   
    79   36   38 2   
    80   37   39 1   
    81   39   40 1   
    82   39   78 1   
    83   39   79 1   
    84   40   80 1   
    85   40   81 1   
    86   40   82 1   
@<TRIPOS>SUBSTRUCTURE
     1 ENB         1 TEMP              0 ****  ****    0 ROOT
