@<TRIPOS>MOLECULE
ENB
   82    80     1     0     0
SMALL
bcc


@<TRIPOS>ATOM
      1 C1         -2.8060   -0.9100   -2.4110 c3        1 ENB      0.039000
      2 C2         -4.3300   -0.9110   -2.5760 c2        1 ENB     -0.104000
      3 N1         -2.4760   -0.7340   -1.0310 n         1 ENB     -0.365000
      4 C3         -1.1530   -0.1950   -0.6450 c2        1 ENB      0.302000
      5 C4         -0.6770   -0.3260    0.7740 c3        1 ENB      0.056000
      6 O1         -0.5050    0.4110   -1.4340 o         1 ENB     -0.373000
      7 N2          0.7750   -0.4200    0.7960 n         1 ENB     -0.360000
      8 C5         -1.1180    0.8870    1.5700 c2        1 ENB     -0.122000
      9 C6         -0.6010    2.1460    1.2660 c2        1 ENB     -0.112000
     10 C7         -1.0070    3.2620    1.9940 c1        1 ENB     -0.135000
     11 C8         -1.9320    3.1220    3.0270 c1        1 ENB     -0.127500
     12 C9         -2.4490    1.8690    3.3310 c1        1 ENB     -0.127500
     13 C10        -2.0400    0.7470    2.6000 c1        1 ENB     -0.107000
     14 C11         1.4610   -1.1050    1.9320 c2        1 ENB      0.279000
     15 C12         2.9900   -1.0610    2.0380 c3        1 ENB      0.008000
     16 O2          0.8150   -1.7440    2.7350 o         1 ENB     -0.386000
     17 N3          3.3650   -0.7820    3.3820 n         1 ENB     -0.312000
     18 C13         4.0270    0.4380    3.7010 c2        1 ENB      0.391000
     19 O3          4.2500    0.7950    5.0700 os        1 ENB     -0.281000
     20 O4          4.3700    1.1810    2.8250 o         1 ENB     -0.402000
     21 C14         4.8310    2.0730    5.2380 c3        1 ENB      0.114000
     22 C15        -2.2450   -2.2280   -2.9020 c3        1 ENB     -0.159000
     23 C16        -2.7250   -2.4810   -4.4170 c3        1 ENB     -0.125000
     24 C17        -3.1630   -4.1160   -4.6130 c3        1 ENB     -0.172000
     25 C18        -3.0390   -4.3730   -5.7820 c3        1 ENB     -0.025000
     26 N4         -2.0290   -3.4630   -6.2810 n         1 ENB     -0.397000
     27 C19        -1.7990   -2.3830   -5.1410 c2        1 ENB      0.303000
     28 O5         -1.0300   -1.4680   -5.1830 o         1 ENB     -0.361000
     29 C20         3.5660   -2.4010    1.6200 c3        1 ENB     -0.100000
     30 C21         4.8450   -2.1870    0.9050 c3        1 ENB     -0.215500
     31 C22         3.8140   -3.2550    2.8620 c3        1 ENB     -0.215500
     32 C23         3.9900    3.1300    4.4780 c3        1 ENB     -0.232000
     33 C24         4.8690    2.4370    6.7660 c3        1 ENB     -0.232000
     34 C25         6.2770    2.0610    4.6710 c3        1 ENB     -0.232000
     35 C26        -4.9770    0.2020   -3.1430 c1        1 ENB     -0.172000
     36 C27        -4.1650    1.4090   -3.5910 c1        1 ENB      0.332000
     37 O6         -4.3030    1.9070   -4.9140 os        1 ENB     -0.276000
     38 O7         -3.4800    2.0040   -2.7920 o         1 ENB     -0.353000
     39 C28        -5.1780    3.0440   -5.0200 c3        1 ENB     -0.011000
     40 C29        -4.9650    3.7370   -6.3820 c3        1 ENB     -0.245000
     41 H1         -2.4220   -0.1780   -2.9350 h1        1 ENB      0.148000
     42 H2         -4.8420   -1.6700   -2.2940 ha        1 ENB      0.139000
     43 HN1        -3.0780   -0.9710   -0.3840 hn        1 ENB      0.231000
     44 H4         -1.0630   -1.1380    1.1730 h1        1 ENB      0.140000
     45 HN2         1.2810    0.0050    0.1330 hn        1 ENB      0.250000
     46 H6          0.0280    2.2430    0.5630 ha        1 ENB      0.161000
     47 H7         -0.6310    4.1730    1.7730 ha        1 ENB      0.134000
     48 H8         -2.2210    3.9130    3.5430 ha        1 ENB      0.133000
     49 H9         -3.0990    1.7700    4.0580 ha        1 ENB      0.133000
     50 H10        -2.4140   -0.1640    2.8220 ha        1 ENB      0.153000
     51 H12         3.3520   -0.3310    1.4290 h1        1 ENB      0.142000
     52 HN3         3.1900   -1.3800    4.0300 hn        1 ENB      0.242000
     53 H151       -2.5750   -2.9680   -2.3200 hc        1 ENB      0.101500
     54 H152       -1.2640   -2.1990   -2.8700 hc        1 ENB      0.101500
     55 H16        -3.4560   -1.7930   -4.5020 hc        1 ENB      0.137000
     56 H171       -2.5740   -4.6900   -4.0760 hc        1 ENB      0.106500
     57 H172       -4.0620   -4.2410   -4.3520 hc        1 ENB      0.106500
     58 H181       -3.8630   -4.2360   -6.2400 h1        1 ENB      0.079500
     59 H182       -2.7430   -5.2980   -5.8920 h1        1 ENB      0.079500
     60 HN4        -1.4830   -3.6040   -7.0120 hn        1 ENB      0.244000
     61 H20         2.9560   -2.8450    1.0480 hc        1 ENB      0.097000
     62 H211        5.5700   -2.1930    1.5360 hc        1 ENB      0.083167
     63 H212        4.8210   -1.3420    0.4530 hc        1 ENB      0.083167
     64 H213        4.9770   -2.9170    0.2410 hc        1 ENB      0.083167
     65 H221        4.1250   -4.1390    2.5920 hc        1 ENB      0.083167
     66 H222        4.4880   -2.8320    3.4150 hc        1 ENB      0.083167
     67 H223        2.9980   -3.3410    3.3610 hc        1 ENB      0.083167
     68 H231        3.8970    3.9370    5.0360 hc        1 ENB      0.091333
     69 H232        4.4410    3.3660    3.6350 hc        1 ENB      0.091333
     70 H233        3.0940    2.7610    4.2800 hc        1 ENB      0.091333
     71 H241        5.3960    1.7520    7.2580 hc        1 ENB      0.091333
     72 H242        3.9260    2.4610    7.1290 hc        1 ENB      0.091333
     73 H243        5.2960    3.3320    6.8830 hc        1 ENB      0.091333
     74 H251        6.7700    2.8200    5.0230 hc        1 ENB      0.091333
     75 H252        6.7300    1.2180    4.9380 hc        1 ENB      0.091333
     76 H253        6.2440    2.1180    3.6890 hc        1 ENB      0.091333
     77 H26        -5.9780    0.2000   -3.2510 ha        1 ENB      0.159000
     78 H281       -6.1320    2.7410   -4.9460 h1        1 ENB      0.102500
     79 H282       -4.9780    3.6830   -4.2900 h1        1 ENB      0.102500
     80 H291       -4.0470    4.0910   -6.4310 hc        1 ENB      0.089667
     81 H292       -5.1050    3.0960   -7.0970 hc        1 ENB      0.089667
     82 H293       -5.6000    4.4700   -6.4750 hc        1 ENB      0.089667
@<TRIPOS>BOND
     1    1    2 1   
     2    1    3 1   
     3    1   22 1   
     4    1   41 1   
     5    2   35 1   
     6    2   42 1   
     7    3    4 1   
     8    3   43 1   
     9    4    5 1   
    10    4    6 1   
    11    5    7 1   
    12    5    8 1   
    13    5   44 1   
    14    7   14 1   
    15    7   45 1   
    16    8    9 1   
    17    8   13 1   
    18    9   10 1   
    19    9   46 1   
    20   10   47 1   
    21   11   12 1   
    22   11   48 1   
    23   12   49 1   
    24   13   50 1   
    25   14   15 1   
    26   14   16 1   
    27   15   17 1   
    28   15   29 1   
    29   15   51 1   
    30   17   18 1   
    31   17   52 1   
    32   18   19 1   
    33   18   20 1   
    34   19   21 1   
    35   21   32 1   
    36   21   33 1   
    37   21   34 1   
    38   22   23 1   
    39   22   53 1   
    40   22   54 1   
    41   23   24 1   
    42   23   27 1   
    43   23   55 1   
    44   24   25 1   
    45   24   56 1   
    46   24   57 1   
    47   25   26 1   
    48   25   58 1   
    49   25   59 1   
    50   26   27 1   
    51   26   60 1   
    52   27   28 1   
    53   29   30 1   
    54   29   31 1   
    55   29   61 1   
    56   30   62 1   
    57   30   63 1   
    58   30   64 1   
    59   31   65 1   
    60   31   66 1   
    61   31   67 1   
    62   32   68 1   
    63   32   69 1   
    64   32   70 1   
    65   33   71 1   
    66   33   72 1   
    67   33   73 1   
    68   34   74 1   
    69   34   75 1   
    70   34   76 1   
    71   35   77 1   
    72   36   37 1   
    73   36   38 1   
    74   37   39 1   
    75   39   40 1   
    76   39   78 1   
    77   39   79 1   
    78   40   80 1   
    79   40   81 1   
    80   40   82 1   
@<TRIPOS>SUBSTRUCTURE
     1 ENB         1 TEMP              0 ****  ****    0 ROOT
