@<TRIPOS>MOLECULE
ENB
   85    86     1     0     0
SMALL
bcc


@<TRIPOS>ATOM
      1 C1          1.4090   -0.0460    0.5480 c3        1 ENB      0.199700
      2 C2         -0.0860   -0.0200    0.5160 c2        1 ENB     -0.253200
      3 N1          1.8210   -0.7740    1.8350 ny        1 ENB     -0.658800
      4 C3          3.2790   -0.7550    2.1150 c         1 ENB      0.552100
      5 C4          3.7660    0.1620    3.2510 c3        1 ENB      0.154800
      6 O1          4.0110   -1.5350    1.5190 o         1 ENB     -0.414100
      7 N2          5.2090    0.5680    3.0100 ny        1 ENB     -0.666800
      8 C5          2.9080    1.3630    3.4720 ca        1 ENB     -0.259300
      9 C6          2.8700    2.4130    2.5400 ca        1 ENB     -0.113500
     10 C7          2.0980    3.5420    2.8010 ca        1 ENB     -0.111000
     11 C8          1.3580    3.6320    3.9850 ca        1 ENB     -0.044000
     12 C9          1.3930    2.5860    4.9110 ca        1 ENB     -0.111000
     13 C10         2.1730    1.4580    4.6650 ca        1 ENB     -0.113500
     14 C11         6.2220   -0.2190    3.7810 c         1 ENB      0.533100
     15 C12         7.6890   -0.0550    3.3480 c3        1 ENB      0.071500
     16 O2          5.8510   -0.9330    4.7000 o         1 ENB     -0.388100
     17 N3          8.5330    0.2750    4.5400 ny        1 ENB     -0.671800
     18 C13         8.1390    1.6240    5.1510 c         1 ENB      0.676100
     19 O3          9.0950    2.0670    5.9160 os        1 ENB     -0.408900
     20 O4          7.0340    2.0700    4.8410 o         1 ENB     -0.540000
     21 C14         8.9500    3.4140    6.7010 c3        1 ENB      0.246800
     22 C15         1.9580   -0.7130   -0.7230 c3        1 ENB     -0.094400
     23 C16         2.7760    0.2710   -1.5330 c3        1 ENB     -0.141700
     24 C17         3.0600   -0.2100   -2.9650 c3        1 ENB     -0.096400
     25 C18         4.5700    0.0300   -3.1860 c3        1 ENB      0.069000
     26 N4          5.1270    0.3760   -1.8830 ns        1 ENB     -0.512900
     27 C19         4.1680    0.4940   -0.9260 c         1 ENB      0.724500
     28 O5          4.3780    0.7290    0.3000 o         1 ENB     -0.844500
     29 C20         8.1590   -1.3530    2.6350 c3        1 ENB     -0.074700
     30 C21         9.4240   -1.0720    1.8510 c3        1 ENB     -0.134100
     31 C22         8.3580   -2.5080    3.5900 c3        1 ENB     -0.134100
     32 C23         7.7780    3.2540    7.6310 c3        1 ENB     -0.143100
     33 C24        10.2880    3.4290    7.4010 c3        1 ENB     -0.143100
     34 C25         8.7860    4.5030    5.6760 c3        1 ENB     -0.143100
     35 C26        -0.7990    1.1110    0.5670 ce        1 ENB     -0.072200
     36 C27        -2.2800    1.0540    0.4800 c         1 ENB      0.604300
     37 O6         -2.8410    2.2720    0.3040 os        1 ENB     -0.423900
     38 O7         -2.9710    0.0370    0.5680 o         1 ENB     -0.492000
     39 C28        -4.2910    2.3020    0.1790 c3        1 ENB      0.142400
     40 C29        -4.6490    3.7460   -0.0580 c3        1 ENB     -0.109100
     41 H1          1.8440    0.9960    0.6580 hx        1 ENB      0.113700
     42 H2         -0.5960   -0.9960    0.3830 ha        1 ENB      0.190000
     43 HN1         1.5130   -1.7560    1.7500 hn        1 ENB      0.480800
     44 H4          3.7420   -0.4920    4.1900 hx        1 ENB      0.161700
     45 HN2         5.4190    0.5020    1.9910 hn        1 ENB      0.511800
     46 H6          3.4480    2.3500    1.6010 ha        1 ENB      0.158500
     47 H7          2.0740    4.3730    2.0740 ha        1 ENB      0.185500
     48 H8          0.7490    4.5320    4.1890 ha        1 ENB      0.192000
     49 H9          0.8090    2.6570    5.8470 ha        1 ENB      0.185500
     50 H10         2.2090    0.6520    5.4170 ha        1 ENB      0.158500
     51 H12         7.7980    0.8140    2.6260 hx        1 ENB      0.136700
     52 HN3         9.5240    0.3020    4.2490 hn        1 ENB      0.496300
     53 H151        1.0920   -1.0640   -1.3540 hc        1 ENB      0.103200
     54 H152        2.5780   -1.6200   -0.4910 hc        1 ENB      0.103200
     55 H16         2.2560    1.2690   -1.5730 hc        1 ENB      0.105700
     56 H171        2.8170   -1.2950   -3.0870 hc        1 ENB      0.094700
     57 H172        2.4580    0.3660   -3.7100 hc        1 ENB      0.094700
     58 H181        4.7440    0.8720   -3.9130 h1        1 ENB      0.093200
     59 H182        5.0780   -0.8930   -3.5790 h1        1 ENB      0.093200
     60 HN4         6.0900    0.5620   -1.7620 hn        1 ENB      0.348500
     61 H20         7.3350   -1.6150    1.9080 hc        1 ENB      0.093700
     62 H211        9.2900   -0.2120    1.1510 hc        1 ENB      0.078033
     63 H212       10.2920   -0.8640    2.5230 hc        1 ENB      0.078033
     64 H213        9.6840   -1.9770    1.2420 hc        1 ENB      0.078033
     65 H221        8.4410   -3.4600    3.0020 hc        1 ENB      0.078033
     66 H222        7.4970   -2.6160    4.2930 hc        1 ENB      0.078033
     67 H223        9.3050   -2.4060    4.1750 hc        1 ENB      0.078033
     68 H231        6.8220    3.1500    7.0620 hc        1 ENB      0.087256
     69 H232        7.7060    4.1700    8.2760 hc        1 ENB      0.087256
     70 H233        7.9120    2.3700    8.3010 hc        1 ENB      0.087256
     71 H241       10.3410    4.3580    8.0260 hc        1 ENB      0.087256
     72 H242       10.4040    2.5410    8.0700 hc        1 ENB      0.087256
     73 H243       11.1290    3.4440    6.6660 hc        1 ENB      0.087256
     74 H251        7.8240    4.3930    5.1200 hc        1 ENB      0.087256
     75 H252        8.7760    5.4920    6.2050 hc        1 ENB      0.087256
     76 H253        9.6380    4.5070    4.9530 hc        1 ENB      0.087256
     77 H26        -0.3670    2.1220    0.6540 ha        1 ENB      0.163000
     78 H281       -4.5810    1.6420   -0.6790 h1        1 ENB      0.070700
     79 H282       -4.7280    1.9000    1.1290 h1        1 ENB      0.070700
     80 H291       -5.7590    3.8240   -0.1650 hc        1 ENB      0.064033
     81 H292       -4.1670    4.1290   -0.9900 hc        1 ENB      0.064033
     82 H293       -4.3220    4.3840    0.7980 hc        1 ENB      0.064033
     83 H121        1.3120   -0.3300    2.6140 hn        1 ENB      0.480800
     84 H22         5.3040    1.5630    3.2980 hn        1 ENB      0.511800
     85 H32         8.4370   -0.4610    5.2580 hn        1 ENB      0.496300
@<TRIPOS>BOND
     1    1    2 1   
     2    1    3 1   
     3    1   22 1   
     4    1   41 1   
     5    2   35 2   
     6    2   42 1   
     7    3    4 1   
     8    3   43 1   
     9    3   83 1   
    10    4    5 1   
    11    4    6 2   
    12    5    7 1   
    13    5    8 1   
    14    5   44 1   
    15    7   14 1   
    16    7   45 1   
    17    7   84 1   
    18    8    9 ar  
    19    8   13 ar  
    20    9   10 ar  
    21    9   46 1   
    22   10   11 ar  
    23   10   47 1   
    24   11   12 ar  
    25   11   48 1   
    26   12   13 ar  
    27   12   49 1   
    28   13   50 1   
    29   14   15 1   
    30   14   16 2   
    31   15   17 1   
    32   15   29 1   
    33   15   51 1   
    34   17   18 1   
    35   17   52 1   
    36   17   85 1   
    37   18   19 1   
    38   18   20 2   
    39   19   21 1   
    40   21   32 1   
    41   21   33 1   
    42   21   34 1   
    43   22   23 1   
    44   22   53 1   
    45   22   54 1   
    46   23   24 1   
    47   23   27 1   
    48   23   55 1   
    49   24   25 1   
    50   24   56 1   
    51   24   57 1   
    52   25   26 1   
    53   25   58 1   
    54   25   59 1   
    55   26   27 1   
    56   26   60 1   
    57   27   28 2   
    58   29   30 1   
    59   29   31 1   
    60   29   61 1   
    61   30   62 1   
    62   30   63 1   
    63   30   64 1   
    64   31   65 1   
    65   31   66 1   
    66   31   67 1   
    67   32   68 1   
    68   32   69 1   
    69   32   70 1   
    70   33   71 1   
    71   33   72 1   
    72   33   73 1   
    73   34   74 1   
    74   34   75 1   
    75   34   76 1   
    76   35   36 1   
    77   35   77 1   
    78   36   37 1   
    79   36   38 2   
    80   37   39 1   
    81   39   40 1   
    82   39   78 1   
    83   39   79 1   
    84   40   80 1   
    85   40   81 1   
    86   40   82 1   
@<TRIPOS>SUBSTRUCTURE
     1 ENB         1 TEMP              0 ****  ****    0 ROOT
