@<TRIPOS>MOLECULE
ENB
   82    83     1     0     0
SMALL
bcc


@<TRIPOS>ATOM
      1 C1          2.9950    0.9040    0.7430 c3        1 ENB      0.112900
      2 C2          4.0950   -0.1300    0.7470 c2        1 ENB     -0.122200
      3 N1          1.7010    0.3090    0.9990 n         1 ENB     -0.555900
      4 C3          0.7810    0.0750    0.0010 c         1 ENB      0.644100
      5 C4         -0.5260   -0.6560    0.4280 c3        1 ENB      0.085000
      6 O1          0.9670    0.4330   -1.1780 o         1 ENB     -0.605100
      7 N2         -1.6370   -0.2550   -0.3970 n         1 ENB     -0.541900
      8 C5         -0.2590   -2.1400    0.3490 ca        1 ENB     -0.116300
      9 C6          0.2870   -2.7020   -0.8090 ca        1 ENB     -0.110500
     10 C7          0.5230   -4.0740   -0.8730 ca        1 ENB     -0.130000
     11 C8          0.2120   -4.8890    0.2160 ca        1 ENB     -0.117000
     12 C9         -0.3390   -4.3300    1.3690 ca        1 ENB     -0.130000
     13 C10        -0.5790   -2.9580    1.4370 ca        1 ENB     -0.110500
     14 C11        -2.6790    0.5060    0.0910 c         1 ENB      0.633100
     15 C12        -3.7250    1.0030   -0.9430 c3        1 ENB      0.033700
     16 O2         -2.7860    0.7670    1.3070 o         1 ENB     -0.619100
     17 N3         -5.0390    1.1320   -0.3590 n         1 ENB     -0.502900
     18 C13        -5.9360    0.0750   -0.4900 c         1 ENB      0.737100
     19 O3         -6.9500    0.1550    0.4310 os        1 ENB     -0.442900
     20 O4         -5.9100   -0.8210   -1.3500 o         1 ENB     -0.590000
     21 C14        -8.0950   -0.7310    0.3090 c3        1 ENB      0.185800
     22 C15         3.3290    1.9840    1.7940 c3        1 ENB     -0.073400
     23 C16         4.6000    2.7280    1.4460 c3        1 ENB     -0.141700
     24 C17         5.0900    3.6050    2.6090 c3        1 ENB     -0.093400
     25 C18         5.1750    5.0440    2.0540 c3        1 ENB      0.092000
     26 N4          4.7110    4.9900    0.6890 n         1 ENB     -0.585900
     27 C19         4.4010    3.7040    0.2780 c         1 ENB      0.696500
     28 O5          4.0310    3.4110   -0.8690 o         1 ENB     -0.625500
     29 C20        -3.1950    2.3360   -1.5250 c3        1 ENB     -0.063700
     30 C21        -3.9550    2.7000   -2.7810 c3        1 ENB     -0.096600
     31 C22        -3.2460    3.4650   -0.5190 c3        1 ENB     -0.096600
     32 C23        -7.6740   -2.1760    0.5150 c3        1 ENB     -0.114100
     33 C24        -8.9960   -0.2700    1.4530 c3        1 ENB     -0.114100
     34 C25        -8.7910   -0.5340   -1.0270 c3        1 ENB     -0.114100
     35 C26         4.6810   -0.5560   -0.3770 ce        1 ENB     -0.185200
     36 C27         5.7610   -1.5510   -0.3350 c         1 ENB      0.627300
     37 O6          6.1800   -1.9350   -1.5790 os        1 ENB     -0.432900
     38 O7          6.3110   -2.0570    0.6490 o         1 ENB     -0.553000
     39 C28         7.2380   -2.9100   -1.6250 c3        1 ENB      0.139400
     40 C29         7.5150   -3.1620   -3.0870 c3        1 ENB     -0.101100
     41 H1          2.9520    1.4090   -0.2760 h1        1 ENB      0.130700
     42 H2          4.3960   -0.5200    1.7340 ha        1 ENB      0.141000
     43 HN1         1.5600   -0.0980    1.8920 hn        1 ENB      0.311500
     44 H4         -0.7800   -0.3780    1.4990 h1        1 ENB      0.105700
     45 HN2        -1.5100   -0.3430   -1.3800 hn        1 ENB      0.329500
     46 H6          0.5370   -2.0530   -1.6640 ha        1 ENB      0.144000
     47 H7          0.9550   -4.5130   -1.7850 ha        1 ENB      0.136000
     48 H8          0.3990   -5.9720    0.1650 ha        1 ENB      0.134000
     49 H9         -0.5890   -4.9720    2.2270 ha        1 ENB      0.136000
     50 H10        -1.0270   -2.5230    2.3440 ha        1 ENB      0.144000
     51 H12        -3.8000    0.2550   -1.7910 h1        1 ENB      0.104700
     52 HN3        -5.0780    1.6450    0.4980 hn        1 ENB      0.327500
     53 H151        2.4770    2.7100    1.8660 hc        1 ENB      0.056700
     54 H152        3.4550    1.5030    2.8010 hc        1 ENB      0.056700
     55 H16         5.3990    1.9970    1.1450 hc        1 ENB      0.089700
     56 H171        4.3820    3.5670    3.4720 hc        1 ENB      0.059200
     57 H172        6.0910    3.2660    2.9650 hc        1 ENB      0.059200
     58 H181        4.5290    5.7430    2.6530 h1        1 ENB      0.043200
     59 H182        6.2330    5.4250    2.0970 h1        1 ENB      0.043200
     60 HN4         4.7350    5.7720    0.0890 hn        1 ENB      0.334500
     61 H20        -2.1170    2.1520   -1.8040 hc        1 ENB      0.061700
     62 H211       -3.5230    3.6290   -3.2270 hc        1 ENB      0.043367
     63 H212       -3.8870    1.8790   -3.5340 hc        1 ENB      0.043367
     64 H213       -5.0330    2.8850   -2.5560 hc        1 ENB      0.043367
     65 H221       -2.8480    3.1270    0.4700 hc        1 ENB      0.043367
     66 H222       -2.6260    4.3210   -0.8800 hc        1 ENB      0.043367
     67 H223       -4.2920    3.8290   -0.3770 hc        1 ENB      0.043367
     68 H231       -7.0780   -2.2710    1.4540 hc        1 ENB      0.052144
     69 H232       -8.5830   -2.8180    0.5950 hc        1 ENB      0.052144
     70 H233       -7.0530   -2.5300   -0.3440 hc        1 ENB      0.052144
     71 H241       -9.2800    0.8000    1.3130 hc        1 ENB      0.052144
     72 H242       -9.9170   -0.8980    1.4650 hc        1 ENB      0.052144
     73 H243       -8.4640   -0.3740    2.4280 hc        1 ENB      0.052144
     74 H251       -8.1520   -0.9150   -1.8610 hc        1 ENB      0.052144
     75 H252       -9.7570   -1.0920   -1.0270 hc        1 ENB      0.052144
     76 H253       -8.9960    0.5500   -1.1960 hc        1 ENB      0.052144
     77 H26         4.4000   -0.1940   -1.3810 ha        1 ENB      0.174000
     78 H281        6.8950   -3.8370   -1.0960 h1        1 ENB      0.050700
     79 H282        8.1330   -2.4940   -1.0930 h1        1 ENB      0.050700
     80 H291        8.3340   -3.9140   -3.1770 hc        1 ENB      0.048367
     81 H292        6.6020   -3.5500   -3.5980 hc        1 ENB      0.048367
     82 H293        7.8270   -2.2180   -3.5950 hc        1 ENB      0.048367
@<TRIPOS>BOND
     1    1    2 1   
     2    1    3 1   
     3    1   22 1   
     4    1   41 1   
     5    2   35 2   
     6    2   42 1   
     7    3    4 1   
     8    3   43 1   
     9    4    5 1   
    10    4    6 2   
    11    5    7 1   
    12    5    8 1   
    13    5   44 1   
    14    7   14 1   
    15    7   45 1   
    16    8    9 ar  
    17    8   13 ar  
    18    9   10 ar  
    19    9   46 1   
    20   10   11 ar  
    21   10   47 1   
    22   11   12 ar  
    23   11   48 1   
    24   12   13 ar  
    25   12   49 1   
    26   13   50 1   
    27   14   15 1   
    28   14   16 2   
    29   15   17 1   
    30   15   29 1   
    31   15   51 1   
    32   17   18 1   
    33   17   52 1   
    34   18   19 1   
    35   18   20 2   
    36   19   21 1   
    37   21   32 1   
    38   21   33 1   
    39   21   34 1   
    40   22   23 1   
    41   22   53 1   
    42   22   54 1   
    43   23   24 1   
    44   23   27 1   
    45   23   55 1   
    46   24   25 1   
    47   24   56 1   
    48   24   57 1   
    49   25   26 1   
    50   25   58 1   
    51   25   59 1   
    52   26   27 1   
    53   26   60 1   
    54   27   28 2   
    55   29   30 1   
    56   29   31 1   
    57   29   61 1   
    58   30   62 1   
    59   30   63 1   
    60   30   64 1   
    61   31   65 1   
    62   31   66 1   
    63   31   67 1   
    64   32   68 1   
    65   32   69 1   
    66   32   70 1   
    67   33   71 1   
    68   33   72 1   
    69   33   73 1   
    70   34   74 1   
    71   34   75 1   
    72   34   76 1   
    73   35   36 1   
    74   35   77 1   
    75   36   37 1   
    76   36   38 2   
    77   37   39 1   
    78   39   40 1   
    79   39   78 1   
    80   39   79 1   
    81   40   80 1   
    82   40   81 1   
    83   40   82 1   
@<TRIPOS>SUBSTRUCTURE
     1 ENB         1 TEMP              0 ****  ****    0 ROOT
