@<TRIPOS>MOLECULE
ENB
   85    84     1     0     0
SMALL
bcc


@<TRIPOS>ATOM
      1 C1       -218.7260  -55.5760 -174.3920 c3        1 ENB     -0.034000
      2 C2       -219.6510  -55.1940 -175.5150 c2        1 ENB     -0.173000
      3 N1       -219.5260  -55.8720 -173.1390 n4        1 ENB     -0.075000
      4 C3       -218.8930  -55.4280 -171.8610 c2        1 ENB      0.295000
      5 C4       -219.6210  -55.8840 -170.5860 c3        1 ENB     -0.035000
      6 O1       -217.8580  -54.7730 -171.8750 o         1 ENB     -0.205000
      7 N2       -219.1800  -55.0730 -169.4020 n4        1 ENB     -0.114000
      8 C5       -221.1100  -55.8600 -170.7390 ca        1 ENB     -0.227000
      9 C6       -221.7740  -54.6960 -171.1540 ca        1 ENB     -0.114000
     10 C7       -223.1630  -54.6890 -171.2450 ca        1 ENB     -0.115000
     11 C8       -223.8950  -55.8370 -170.9230 ca        1 ENB     -0.065000
     12 C9       -223.2340  -56.9940 -170.5090 ca        1 ENB     -0.115000
     13 C10      -221.8420  -57.0080 -170.4090 ca        1 ENB     -0.114000
     14 C11      -218.9700  -55.8730 -168.1130 c2        1 ENB      0.183000
     15 C12      -218.4070  -55.0420 -166.8930 c3        1 ENB      0.061000
     16 O2       -219.2490  -57.0560 -168.1460 o         1 ENB     -0.183000
     17 N3       -218.8870  -55.5200 -165.6660 n3        1 ENB     -0.371000
     18 C13      -218.9830  -51.1050 -168.6620 c1        1 ENB      0.451000
     19 O3       -218.9320  -49.9310 -168.5560 o         1 ENB     -0.224500
     20 O4       -219.0360  -52.2990 -168.7780 o         1 ENB     -0.224500
     21 C14      1239.2010  312.4970  964.1360 c2        1 ENB      0.338000
     22 C15      -217.8570  -56.7590 -174.8420 c3        1 ENB     -0.170000
     23 C16      -216.6740  -57.0500 -173.9450 c3        1 ENB     -0.148000
     24 C17      -215.5520  -57.7990 -174.6860 c3        1 ENB     -0.174000
     25 C18      -215.2660  -59.0700 -173.8550 c3        1 ENB     -0.043000
     26 N4       -216.2310  -59.0780 -172.7680 n         1 ENB     -0.324000
     27 C19      -217.0390  -57.9840 -172.7800 c2        1 ENB      0.315000
     28 O5       -217.9560  -57.7460 -171.9520 o         1 ENB     -0.510000
     29 C20      -216.8640  -55.0740 -167.0490 c3        1 ENB     -0.099000
     30 C21      -216.2530  -54.0170 -166.1530 c3        1 ENB     -0.225500
     31 C22      -216.2770  -56.4350 -166.7500 c3        1 ENB     -0.225500
     32 C23      1238.6750  313.7760  964.5860 c3        1 ENB     -0.319000
     33 C24      1238.5800  311.2590  964.5780 c3        1 ENB     -0.319000
     34 C25      1240.3490  312.4560  963.2430 c3        1 ENB     -0.319000
     35 C26      -220.2990  -54.0290 -175.6170 c2        1 ENB     -0.113000
     36 C27      -220.2720  -52.9730 -174.5850 c2        1 ENB      0.344000
     37 O6       -220.4510  -51.7350 -175.0780 os        1 ENB     -0.221000
     38 O7       -220.1400  -53.1550 -173.3600 o         1 ENB     -0.455000
     39 C28      -220.4350  -50.6100 -174.1700 c3        1 ENB     -0.012000
     40 C29      -219.0200  -50.1750 -173.8930 c3        1 ENB     -0.250000
     41 H1       -218.0570  -54.6910 -174.1460 hx        1 ENB      0.175000
     42 H2       -219.7340  -55.9390 -176.3290 ha        1 ENB      0.182000
     43 HN1      -220.4350  -55.3750 -173.1990 hn        1 ENB      0.281500
     44 H4       -219.2690  -56.9630 -170.4090 hx        1 ENB      0.233000
     45 HN2      -219.8900  -54.3500 -169.2080 hn        1 ENB      0.269000
     46 H6       -221.2060  -53.7860 -171.4140 ha        1 ENB      0.160500
     47 H7       -223.6890  -53.7740 -171.5660 ha        1 ENB      0.173000
     48 H8       -224.9970  -55.8250 -170.9910 ha        1 ENB      0.177000
     49 H9       -223.8100  -57.8990 -170.2510 ha        1 ENB      0.173000
     50 H10      -221.3260  -57.9180 -170.0590 ha        1 ENB      0.160500
     51 H12      -218.7670  -53.9770 -167.0410 h1        1 ENB      0.135000
     52 HN3      -219.8490  -55.3770 -165.4670 hn        1 ENB      0.223000
     53 H151     -218.4850  -57.6810 -174.9730 hc        1 ENB      0.135500
     54 H152     -217.4640  -56.4780 -175.8620 hc        1 ENB      0.135500
     55 H16      -216.2760  -56.0940 -173.5050 hc        1 ENB      0.140000
     56 H171     -214.6340  -57.1650 -174.7580 hc        1 ENB      0.123500
     57 H172     -215.8590  -58.0810 -175.7230 hc        1 ENB      0.123500
     58 H181     -215.3860  -59.9990 -174.4780 h1        1 ENB      0.122500
     59 H182     -214.2210  -59.0530 -173.4380 h1        1 ENB      0.122500
     60 HN4      -216.2720  -59.8080 -172.0990 hn        1 ENB      0.275000
     61 H20      -216.6370  -54.8070 -168.1200 hc        1 ENB      0.072000
     62 H211     -216.4700  -54.2290 -165.0770 hc        1 ENB      0.100000
     63 H212     -215.1430  -54.0070 -166.2920 hc        1 ENB      0.100000
     64 H213     -216.6530  -53.0050 -166.4040 hc        1 ENB      0.100000
     65 H221     -215.2190  -56.4760 -167.1100 hc        1 ENB      0.100000
     66 H222     -216.8570  -57.2440 -167.2570 hc        1 ENB      0.100000
     67 H223     -216.2660  -56.6380 -165.6500 hc        1 ENB      0.100000
     68 H231     1238.6880  313.8280  965.7150 hc        1 ENB      0.180000
     69 H232     1239.2360  314.6560  964.1780 hc        1 ENB      0.180000
     70 H233     1237.5870  313.8740  964.2970 hc        1 ENB      0.180000
     71 H241     1237.7070  311.4190  965.2620 hc        1 ENB      0.180000
     72 H242     1239.3390  310.6070  965.1050 hc        1 ENB      0.180000
     73 H243     1238.2370  310.6540  963.6870 hc        1 ENB      0.180000
     74 H251     1240.6610  311.4160  962.9670 hc        1 ENB      0.180000
     75 H252     1240.1280  313.0330  962.2960 hc        1 ENB      0.180000
     76 H253     1241.2290  312.9860  963.7150 hc        1 ENB      0.180000
     77 H26      -220.9010  -53.7810 -176.5150 ha        1 ENB      0.205000
     78 H281     -220.9820  -50.8800 -173.2310 h1        1 ENB      0.121000
     79 H282     -221.0060  -49.8350 -174.7540 h1        1 ENB      0.121000
     80 H291     -219.0350  -49.2350 -173.2890 hc        1 ENB      0.100000
     81 H292     -218.4700  -50.9640 -173.3250 hc        1 ENB      0.100000
     82 H293     -218.4740  -49.9760 -174.8470 hc        1 ENB      0.100000
     83 H121     -219.6790  -56.8910 -173.0620 hn        1 ENB      0.281500
     84 H22      -218.2960  -54.5840 -169.6090 hn        1 ENB      0.269000
     85 H32      -218.5040  -56.3770 -165.3330 hn        1 ENB      0.223000
@<TRIPOS>BOND
     1    1    2 1   
     2    1    3 1   
     3    1   22 1   
     4    1   41 1   
     5    2   35 1   
     6    2   42 1   
     7    3    4 1   
     8    3   43 1   
     9    3   83 1   
    10    4    5 1   
    11    4    6 1   
    12    5    7 1   
    13    5    8 1   
    14    5   44 1   
    15    7   14 1   
    16    7   45 1   
    17    7   84 1   
    18    8    9 1   
    19    8   13 1   
    20    9   10 1   
    21    9   46 1   
    22   10   11 1   
    23   10   47 1   
    24   11   12 1   
    25   11   48 1   
    26   12   13 1   
    27   12   49 1   
    28   13   50 1   
    29   14   15 1   
    30   14   16 1   
    31   15   17 1   
    32   15   29 1   
    33   15   51 1   
    34   17   52 1   
    35   17   85 1   
    36   18   19 1   
    37   18   20 1   
    38   21   32 1   
    39   21   33 1   
    40   21   34 1   
    41   22   23 1   
    42   22   53 1   
    43   22   54 1   
    44   23   24 1   
    45   23   27 1   
    46   23   55 1   
    47   24   25 1   
    48   24   56 1   
    49   24   57 1   
    50   25   26 1   
    51   25   58 1   
    52   25   59 1   
    53   26   27 1   
    54   26   60 1   
    55   27   28 1   
    56   29   30 1   
    57   29   31 1   
    58   29   61 1   
    59   30   62 1   
    60   30   63 1   
    61   30   64 1   
    62   31   65 1   
    63   31   66 1   
    64   31   67 1   
    65   32   68 1   
    66   32   69 1   
    67   32   70 1   
    68   33   71 1   
    69   33   72 1   
    70   33   73 1   
    71   34   74 1   
    72   34   75 1   
    73   34   76 1   
    74   35   36 1   
    75   35   77 1   
    76   36   37 1   
    77   36   38 1   
    78   37   39 1   
    79   39   40 1   
    80   39   78 1   
    81   39   79 1   
    82   40   80 1   
    83   40   81 1   
    84   40   82 1   
@<TRIPOS>SUBSTRUCTURE
     1 ENB         1 TEMP              0 ****  ****    0 ROOT
