@<TRIPOS>MOLECULE
ENC
   10     9     1     0     0
SMALL
bcc


@<TRIPOS>ATOM
      1 C          -1.8280    0.2430    0.0000 c1        1 ENC      0.580300
      2 N          -0.7360   -0.1360   -0.0000 n1        1 ENC     -0.524300
      3 C1          0.6160   -0.6000   -0.0000 c3        1 ENC      0.255100
      4 C2          1.6520    0.5090    0.0000 c3        1 ENC     -0.130100
      5 H          -2.8590    0.5870    0.0000 ha        1 ENC      0.296500
      6 H11         0.7290   -1.2470   -0.9240 h1        1 ENC      0.127700
      7 H12         0.7290   -1.2470    0.9240 h1        1 ENC      0.127700
      8 H21         1.5760    1.1530   -0.9100 hc        1 ENC      0.089700
      9 H22         1.5760    1.1530    0.9100 hc        1 ENC      0.089700
     10 H23         2.6590    0.0160    0.0000 hc        1 ENC      0.089700
@<TRIPOS>BOND
     1    1    2 3   
     2    1    5 1   
     3    2    3 1   
     4    3    4 1   
     5    3    6 1   
     6    3    7 1   
     7    4    8 1   
     8    4    9 1   
     9    4   10 1   
@<TRIPOS>SUBSTRUCTURE
     1 ENC         1 TEMP              0 ****  ****    0 ROOT
