@<TRIPOS>MOLECULE
ENC
   10     9     1     0     0
SMALL
bcc


@<TRIPOS>ATOM
      1 C          -0.9380    0.1170    2.4210 c1        1 ENC      0.580300
      2 N          -0.4770    0.0380    1.3640 n1        1 ENC     -0.524300
      3 C1          0.0980   -0.0600    0.0590 c3        1 ENC      0.255100
      4 C2          1.6130   -0.1400    0.0530 c3        1 ENC     -0.130100
      5 H          -1.3830    0.1910    3.4090 ha        1 ENC      0.296500
      6 H11        -0.2530    0.8560   -0.5110 h1        1 ENC      0.127700
      7 H12        -0.3500   -0.9880   -0.4160 h1        1 ENC      0.127700
      8 H21         1.9330   -0.2120   -1.0200 hc        1 ENC      0.089700
      9 H22         1.9860   -1.0450    0.5920 hc        1 ENC      0.089700
     10 H23         2.0820    0.7710    0.4980 hc        1 ENC      0.089700
@<TRIPOS>BOND
     1    1    2 3   
     2    1    5 1   
     3    2    3 1   
     4    3    4 1   
     5    3    6 1   
     6    3    7 1   
     7    4    8 1   
     8    4    9 1   
     9    4   10 1   
@<TRIPOS>SUBSTRUCTURE
     1 ENC         1 TEMP              0 ****  ****    0 ROOT
