@<TRIPOS>MOLECULE
ENC
   10     7     1     0     0
SMALL
bcc


@<TRIPOS>ATOM
      1 C          -1.3550   -0.0110    1.7870 c1        1 ENC      0.197000
      2 N          -0.8920    0.0230    0.6740 n1        1 ENC     -0.016000
      3 C1         -0.3300    0.0640   -0.6540 c2        1 ENC     -0.006000
      4 C2          1.1400   -0.0490   -0.5690 c3        1 ENC     -0.248000
      5 H          -1.7270   -0.0390    2.6900 DU        1 ENC      0.354000
      6 H11        -0.6790   -0.6670   -1.1730 ha        1 ENC      0.167000
      7 H12        -0.5680    0.9170   -1.0850 ha        1 ENC      0.167000
      8 H21         1.5330   -0.0090   -1.4960 hc        1 ENC      0.129000
      9 H22         1.3860   -0.9200   -0.1410 hc        1 ENC      0.129000
     10 H23         1.4920    0.6910   -0.0310 hc        1 ENC      0.129000
@<TRIPOS>BOND
     1    1    2 1   
     2    3    4 1   
     3    3    6 1   
     4    3    7 1   
     5    4    8 1   
     6    4    9 1   
     7    4   10 1   
@<TRIPOS>SUBSTRUCTURE
     1 ENC         1 TEMP              0 ****  ****    0 ROOT
