@<TRIPOS>MOLECULE
ENC
   10     9     1     0     0
SMALL
bcc


@<TRIPOS>ATOM
      1 C          -0.9340    0.1240    2.4200 c1        1 ENC      0.580300
      2 N          -0.4740    0.0430    1.3640 n1        1 ENC     -0.524300
      3 C1          0.1000   -0.0590    0.0590 c3        1 ENC      0.255100
      4 C2          1.6150   -0.1460    0.0530 c3        1 ENC     -0.130100
      5 H          -1.3800    0.2020    3.4090 ha        1 ENC      0.296500
      6 H11        -0.2460    0.8580   -0.5110 h1        1 ENC      0.127700
      7 H12        -0.3520   -0.9840   -0.4150 h1        1 ENC      0.127700
      8 H21         1.9340   -0.2200   -1.0200 hc        1 ENC      0.089700
      9 H22         1.9840   -1.0520    0.5920 hc        1 ENC      0.089700
     10 H23         2.0880    0.7630    0.4970 hc        1 ENC      0.089700
@<TRIPOS>BOND
     1    1    2 3   
     2    1    5 1   
     3    2    3 1   
     4    3    4 1   
     5    3    6 1   
     6    3    7 1   
     7    4    8 1   
     8    4    9 1   
     9    4   10 1   
@<TRIPOS>SUBSTRUCTURE
     1 ENC         1 TEMP              0 ****  ****    0 ROOT
