@<TRIPOS>MOLECULE
ENC
   10     9     1     0     0
SMALL
bcc


@<TRIPOS>ATOM
      1 C          -0.9370    0.1190    2.4210 c1        1 ENC      0.580300
      2 N          -0.4760    0.0380    1.3640 n1        1 ENC     -0.524300
      3 C1          0.0970   -0.0620    0.0590 c3        1 ENC      0.255100
      4 C2          1.6130   -0.1400    0.0520 c3        1 ENC     -0.130100
      5 H          -1.3820    0.1950    3.4100 ha        1 ENC      0.296500
      6 H11        -0.2550    0.8520   -0.5130 h1        1 ENC      0.127700
      7 H12        -0.3490   -0.9920   -0.4130 h1        1 ENC      0.127700
      8 H21         1.9310   -0.2140   -1.0210 hc        1 ENC      0.089700
      9 H22         1.9880   -1.0420    0.5930 hc        1 ENC      0.089700
     10 H23         2.0810    0.7730    0.4950 hc        1 ENC      0.089700
@<TRIPOS>BOND
     1    1    2 3   
     2    1    5 1   
     3    2    3 1   
     4    3    4 1   
     5    3    6 1   
     6    3    7 1   
     7    4    8 1   
     8    4    9 1   
     9    4   10 1   
@<TRIPOS>SUBSTRUCTURE
     1 ENC         1 TEMP              0 ****  ****    0 ROOT
