@<TRIPOS>MOLECULE
END
   48    51     1     0     0
SMALL
bcc


@<TRIPOS>ATOM
      1 OAB         0.2420    0.3940   -0.2370 oh        1 END     -0.595800
      2 CAP         1.5860    0.0370    0.0660 c3        1 END      0.148300
      3 CAF         1.7570   -0.2340    1.5240 c2        1 END     -0.213200
      4 CAG         2.8860   -0.6630    2.0890 c2        1 END     -0.145200
      5 CAQ         4.1550   -0.9310    1.3480 c3        1 END      0.142300
      6 OAM         5.0740   -1.4120    2.3420 os        1 END     -0.395600
      7 CAX         6.3530   -1.7110    1.7890 c3        1 END      0.115100
      8 CAR         7.2770   -2.1180    2.9390 c3        1 END      0.152100
      9 OAC         7.5490   -0.9550    3.7010 oh        1 END     -0.586800
     10 CAW         8.5980   -2.6690    2.3550 c3        1 END      0.076100
     11 OAL         9.2730   -3.2160    3.4870 os        1 END     -0.419600
     12 CAH        10.6700   -3.4220    3.3140 c3        1 END      0.163600
     13 CAD        11.0000   -4.6560    2.5520 c2        1 END     -0.202200
     14 CAE        10.5400   -4.9590    1.3360 c2        1 END     -0.148200
     15 CAJ         9.6320   -4.1100    0.5310 c3        1 END     -0.053200
     16 CAU         8.3550   -3.7430    1.2840 c3        1 END      0.123100
     17 OAO         7.4630   -3.2540    0.2730 os        1 END     -0.406600
     18 CAV         6.1970   -2.8870    0.8120 c3        1 END      0.111100
     19 CAK         5.3040   -2.4600   -0.3410 c3        1 END     -0.080400
     20 CAT         3.9690   -1.9620    0.2130 c3        1 END      0.124100
     21 OAN         3.3280   -1.3430   -0.9040 os        1 END     -0.427600
     22 CAS         1.9110   -1.2050   -0.7860 c3        1 END      0.110100
     23 CAI         1.4050   -1.0340   -2.2240 c3        1 END      0.140400
     24 OAA         1.6830   -2.1800   -2.9990 oh        1 END     -0.598800
     25 HAA         2.6410   -2.3020   -2.9900 ho        1 END      0.408000
     26 HAI1        1.8700   -0.1240   -2.6860 h1        1 END      0.064700
     27 HAI2        0.2870   -0.9370   -2.2170 h1        1 END      0.064700
     28 HAS         1.4590   -2.1240   -0.3250 h1        1 END      0.068700
     29 HAT         3.3580   -2.8270    0.5900 h1        1 END      0.059700
     30 HAK1        5.8010   -1.6470   -0.9320 hc        1 END      0.072200
     31 HAK2        5.1280   -3.3210   -1.0340 hc        1 END      0.072200
     32 HAV         5.7460   -3.7680    1.3510 h1        1 END      0.056700
     33 HAU         7.9060   -4.6550    1.7670 h1        1 END      0.061700
     34 HAJ1        9.3390   -4.6430   -0.4130 hc        1 END      0.066200
     35 HAJ2       10.1640   -3.1680    0.2260 hc        1 END      0.066200
     36 HAE        10.8550   -5.8960    0.8460 ha        1 END      0.128000
     37 HAD        11.6950   -5.3400    3.0680 ha        1 END      0.130000
     38 HAH1       11.0450   -3.5000    4.3730 h1        1 END      0.056700
     39 HAH2       11.1390   -2.5260    2.8190 h1        1 END      0.056700
     40 HAW         9.1930   -1.8190    1.9190 h1        1 END      0.064700
     41 HAR         6.7840   -2.8970    3.5830 h1        1 END      0.066700
     42 HAC         8.0950   -1.2430    4.4440 ho        1 END      0.415000
     43 HAX         6.7680   -0.8060    1.2660 h1        1 END      0.071700
     44 HAQ         4.5590    0.0260    0.9070 h1        1 END      0.066700
     45 HAG         2.9510   -0.8320    3.1780 ha        1 END      0.152000
     46 HAF         0.8590   -0.0540    2.1400 ha        1 END      0.137000
     47 HAP         2.2740    0.8780   -0.2450 h1        1 END      0.055700
     48 HAB         0.0320    1.1670    0.3020 ho        1 END      0.407000
@<TRIPOS>BOND
     1    1    2 1   
     2    1   48 1   
     3    2    3 1   
     4    2   22 1   
     5    2   47 1   
     6    3    4 2   
     7    3   46 1   
     8    4    5 1   
     9    4   45 1   
    10    5    6 1   
    11    5   20 1   
    12    5   44 1   
    13    6    7 1   
    14    7    8 1   
    15    7   18 1   
    16    7   43 1   
    17    8    9 1   
    18    8   10 1   
    19    8   41 1   
    20    9   42 1   
    21   10   11 1   
    22   10   16 1   
    23   10   40 1   
    24   11   12 1   
    25   12   13 1   
    26   12   38 1   
    27   12   39 1   
    28   13   14 2   
    29   13   37 1   
    30   14   15 1   
    31   14   36 1   
    32   15   16 1   
    33   15   34 1   
    34   15   35 1   
    35   16   17 1   
    36   16   33 1   
    37   17   18 1   
    38   18   19 1   
    39   18   32 1   
    40   19   20 1   
    41   19   30 1   
    42   19   31 1   
    43   20   21 1   
    44   20   29 1   
    45   21   22 1   
    46   22   23 1   
    47   22   28 1   
    48   23   24 1   
    49   23   26 1   
    50   23   27 1   
    51   24   25 1   
@<TRIPOS>SUBSTRUCTURE
     1 END         1 TEMP              0 ****  ****    0 ROOT
