@<TRIPOS>MOLECULE
END
   48    51     1     0     0
SMALL
bcc


@<TRIPOS>ATOM
      1 OAB         6.0080    0.9540    0.1250 oh        1 END     -0.595800
      2 CAP         4.6010    0.8420    0.3070 c3        1 END      0.148300
      3 CAF         3.8750    1.9160   -0.4350 c2        1 END     -0.213200
      4 CAG         2.5470    2.0190   -0.5130 c2        1 END     -0.145200
      5 CAQ         1.5840    1.0790    0.1360 c3        1 END      0.142300
      6 OAM         0.2840    1.5490   -0.2530 os        1 END     -0.395600
      7 CAX        -0.7600    0.7510    0.2990 c3        1 END      0.115100
      8 CAR        -2.0950    1.3910   -0.0930 c3        1 END      0.152100
      9 OAC        -2.2240    2.5950    0.6410 oh        1 END     -0.586800
     10 CAW        -3.2460    0.4310    0.2890 c3        1 END      0.076100
     11 OAL        -4.3970    1.0180   -0.3170 os        1 END     -0.419600
     12 CAH        -5.6440    0.5730    0.2050 c3        1 END      0.163600
     13 CAD        -6.0720   -0.7510   -0.3210 c2        1 END     -0.202200
     14 CAE        -5.3520   -1.8730   -0.2630 c2        1 END     -0.148200
     15 CAJ        -4.0080   -1.9950    0.3460 c3        1 END     -0.053200
     16 CAU        -3.0100   -0.9940   -0.2340 c3        1 END      0.123100
     17 OAO        -1.7260   -1.4770    0.1810 os        1 END     -0.406600
     18 CAV        -0.6660   -0.6580   -0.3060 c3        1 END      0.111100
     19 CAK         0.6470   -1.2940    0.1180 c3        1 END     -0.080400
     20 CAT         1.8040   -0.3860   -0.3000 c3        1 END      0.124100
     21 OAN         2.9440   -0.9270    0.3710 os        1 END     -0.427600
     22 CAS         4.2050   -0.5620   -0.1910 c3        1 END      0.110100
     23 CAI         5.1900   -1.6230    0.3150 c3        1 END      0.140400
     24 OAA         4.8410   -2.9050   -0.1580 oh        1 END     -0.598800
     25 HAA         3.9490   -3.0920    0.1630 ho        1 END      0.408000
     26 HAI1        6.2110   -1.4140   -0.1020 h1        1 END      0.064700
     27 HAI2        5.2190   -1.6110    1.4360 h1        1 END      0.064700
     28 HAS         4.1610   -0.5800   -1.3120 h1        1 END      0.068700
     29 HAT         1.9460   -0.4260   -1.4150 h1        1 END      0.059700
     30 HAK1        0.6620   -1.4450    1.2280 hc        1 END      0.072200
     31 HAK2        0.7640   -2.2990   -0.3620 hc        1 END      0.072200
     32 HAV        -0.7260   -0.5910   -1.4290 h1        1 END      0.056700
     33 HAU        -3.0620   -0.9910   -1.3580 h1        1 END      0.061700
     34 HAJ1       -4.0800   -1.8430    1.4570 hc        1 END      0.066200
     35 HAJ2       -3.5990   -3.0280    0.1810 hc        1 END      0.066200
     36 HAE        -5.7630   -2.8130   -0.6710 ha        1 END      0.128000
     37 HAD        -7.0780   -0.7600   -0.7730 ha        1 END      0.130000
     38 HAH1       -5.6110    0.5490    1.3300 h1        1 END      0.056700
     39 HAH2       -6.3560    1.3790   -0.1290 h1        1 END      0.056700
     40 HAW        -3.3590    0.4170    1.4090 h1        1 END      0.064700
     41 HAR        -2.1200    1.6040   -1.1970 h1        1 END      0.066700
     42 HAC        -3.0490    3.0030    0.3450 ho        1 END      0.415000
     43 HAX        -0.6670    0.7150    1.4190 h1        1 END      0.071700
     44 HAQ         1.6770    1.1410    1.2590 h1        1 END      0.066700
     45 HAG         2.0710    2.8460   -1.0690 ha        1 END      0.152000
     46 HAF         4.5220    2.6530   -0.9400 ha        1 END      0.137000
     47 HAP         4.3600    0.9160    1.4090 h1        1 END      0.055700
     48 HAB         6.2580    1.8350    0.4270 ho        1 END      0.407000
@<TRIPOS>BOND
     1    1    2 1   
     2    1   48 1   
     3    2    3 1   
     4    2   22 1   
     5    2   47 1   
     6    3    4 2   
     7    3   46 1   
     8    4    5 1   
     9    4   45 1   
    10    5    6 1   
    11    5   20 1   
    12    5   44 1   
    13    6    7 1   
    14    7    8 1   
    15    7   18 1   
    16    7   43 1   
    17    8    9 1   
    18    8   10 1   
    19    8   41 1   
    20    9   42 1   
    21   10   11 1   
    22   10   16 1   
    23   10   40 1   
    24   11   12 1   
    25   12   13 1   
    26   12   38 1   
    27   12   39 1   
    28   13   14 2   
    29   13   37 1   
    30   14   15 1   
    31   14   36 1   
    32   15   16 1   
    33   15   34 1   
    34   15   35 1   
    35   16   17 1   
    36   16   33 1   
    37   17   18 1   
    38   18   19 1   
    39   18   32 1   
    40   19   20 1   
    41   19   30 1   
    42   19   31 1   
    43   20   21 1   
    44   20   29 1   
    45   21   22 1   
    46   22   23 1   
    47   22   28 1   
    48   23   24 1   
    49   23   26 1   
    50   23   27 1   
    51   24   25 1   
@<TRIPOS>SUBSTRUCTURE
     1 END         1 TEMP              0 ****  ****    0 ROOT
