@<TRIPOS>MOLECULE
END
   48    51     1     0     0
SMALL
bcc


@<TRIPOS>ATOM
      1 OAB         0.2720    0.4150   -0.2300 oh        1 END     -0.595800
      2 CAP         1.6180    0.0570    0.0600 c3        1 END      0.148300
      3 CAF         1.8140   -0.1680    1.5230 c2        1 END     -0.211200
      4 CAG         2.9490   -0.5910    2.0810 c2        1 END     -0.147200
      5 CAQ         4.2030   -0.8980    1.3280 c3        1 END      0.142300
      6 OAM         5.1300   -1.3560    2.3250 os        1 END     -0.393600
      7 CAX         6.3940   -1.7060    1.7720 c3        1 END      0.077100
      8 CAR         7.3140   -2.1000    2.9360 c3        1 END      0.149100
      9 OAC         7.5840   -1.0000    3.7770 oh        1 END     -0.564800
     10 CAW         8.6240   -2.6870    2.3630 c3        1 END      0.083100
     11 OAL         9.2590   -3.3000    3.4820 os        1 END     -0.395600
     12 CAH        10.6610   -3.4950    3.3440 c3        1 END      0.159600
     13 CAD        11.0230   -4.6790    2.5190 c2        1 END     -0.200200
     14 CAE        10.5800   -4.9360    1.2860 c2        1 END     -0.153200
     15 CAJ         9.6590   -4.0790    0.5050 c3        1 END     -0.051200
     16 CAU         8.3800   -3.7390    1.2660 c3        1 END      0.120100
     17 OAO         7.4790   -3.2520    0.2630 os        1 END     -0.408600
     18 CAV         6.2160   -2.8920    0.8150 c3        1 END      0.115100
     19 CAK         5.3080   -2.4850   -0.3330 c3        1 END     -0.080400
     20 CAT         3.9860   -1.9610    0.2290 c3        1 END      0.124100
     21 OAN         3.3310   -1.3700   -0.8950 os        1 END     -0.427600
     22 CAS         1.9170   -1.2160   -0.7570 c3        1 END      0.109100
     23 CAI         1.3870   -1.0880   -2.1910 c3        1 END      0.140400
     24 OAA         1.6400   -2.2610   -2.9310 oh        1 END     -0.597800
     25 HAA         2.5970   -2.3910   -2.9370 ho        1 END      0.408000
     26 HAI1        1.8530   -0.1980   -2.6890 h1        1 END      0.064200
     27 HAI2        0.2700   -0.9790   -2.1670 h1        1 END      0.064200
     28 HAS         1.4660   -2.1150   -0.2580 h1        1 END      0.069700
     29 HAT         3.3750   -2.8090    0.6430 h1        1 END      0.061700
     30 HAK1        5.8010   -1.6920   -0.9530 hc        1 END      0.071700
     31 HAK2        5.1120   -3.3620   -1.0010 hc        1 END      0.071700
     32 HAV         5.7790   -3.7680    1.3720 h1        1 END      0.059700
     33 HAU         7.9440   -4.6640    1.7370 h1        1 END      0.064700
     34 HAJ1        9.3680   -4.5950   -0.4500 hc        1 END      0.064200
     35 HAJ2       10.1830   -3.1270    0.2160 hc        1 END      0.064200
     36 HAE        10.9240   -5.8430    0.7580 ha        1 END      0.127000
     37 HAD        11.7310   -5.3710    3.0050 ha        1 END      0.129000
     38 HAH1       10.9970   -3.6400    4.4090 h1        1 END      0.057200
     39 HAH2       11.1490   -2.5720    2.9250 h1        1 END      0.057200
     40 HAW         9.2590   -1.8520    1.9560 h1        1 END      0.047700
     41 HAR         6.8100   -2.8470    3.6110 h1        1 END      0.111700
     42 HAC         7.9780   -0.3060    3.2350 ho        1 END      0.393000
     43 HAX         6.8260   -0.8250    1.2200 h1        1 END      0.052700
     44 HAQ         4.6100    0.0390    0.8500 h1        1 END      0.062700
     45 HAG         3.0310   -0.7270    3.1740 ha        1 END      0.154000
     46 HAF         0.9300    0.0410    2.1490 ha        1 END      0.138000
     47 HAP         2.3060    0.8810   -0.2910 h1        1 END      0.055700
     48 HAB         0.0760    1.2040    0.2900 ho        1 END      0.407000
@<TRIPOS>BOND
     1    1    2 1   
     2    1   48 1   
     3    2    3 1   
     4    2   22 1   
     5    2   47 1   
     6    3    4 2   
     7    3   46 1   
     8    4    5 1   
     9    4   45 1   
    10    5    6 1   
    11    5   20 1   
    12    5   44 1   
    13    6    7 1   
    14    7    8 1   
    15    7   18 1   
    16    7   43 1   
    17    8    9 1   
    18    8   10 1   
    19    8   41 1   
    20    9   42 1   
    21   10   11 1   
    22   10   16 1   
    23   10   40 1   
    24   11   12 1   
    25   12   13 1   
    26   12   38 1   
    27   12   39 1   
    28   13   14 2   
    29   13   37 1   
    30   14   15 1   
    31   14   36 1   
    32   15   16 1   
    33   15   34 1   
    34   15   35 1   
    35   16   17 1   
    36   16   33 1   
    37   17   18 1   
    38   18   19 1   
    39   18   32 1   
    40   19   20 1   
    41   19   30 1   
    42   19   31 1   
    43   20   21 1   
    44   20   29 1   
    45   21   22 1   
    46   22   23 1   
    47   22   28 1   
    48   23   24 1   
    49   23   26 1   
    50   23   27 1   
    51   24   25 1   
@<TRIPOS>SUBSTRUCTURE
     1 END         1 TEMP              0 ****  ****    0 ROOT
