@<TRIPOS>MOLECULE
END
   48    49     1     0     0
SMALL
bcc


@<TRIPOS>ATOM
      1 OAB        -0.1940    3.2320   -2.9080 oh        1 END     -0.332000
      2 CAP         1.1690    3.3050   -2.7700 c3        1 END      0.033000
      3 CAF         1.5400    3.3450   -1.3230 c2        1 END     -0.202000
      4 CAG         0.6690    2.8750   -0.3810 c1        1 END     -0.113000
      5 CAQ         0.5970    1.4080   -0.0960 c2        1 END      0.033000
      6 OAM        -0.5200    1.1410    0.7710 os        1 END     -0.274000
      7 CAX        -0.0100   -0.1510    1.1740 c3        1 END     -0.039000
      8 CAR        -0.6350   -0.5550    2.4790 c3        1 END      0.038000
      9 OAC         0.3460   -1.0660    3.3250 oh        1 END     -0.325000
     10 CAW        -1.7200   -1.6430    2.2250 c3        1 END      0.012000
     11 OAL        -2.6990   -1.1310    1.4680 os        1 END     -0.264000
     12 CAH        -3.8320   -1.4740    2.2660 c3        1 END     -0.005000
     13 CAD        -2.5640   -2.2760    1.8030 c2        1 END     -0.154000
     14 CAE        -2.0530   -3.3360    2.6180 c1        1 END     -0.132000
     15 CAJ        -0.5490   -3.7980    2.4650 c2        1 END     -0.188000
     16 CAU        -1.0780   -2.8710    1.4870 c3        1 END      0.044000
     17 OAO        -0.0200   -2.4220    0.6300 os        1 END     -0.260000
     18 CAV        -0.3400   -1.1420    0.1540 c3        1 END      0.012000
     19 CAK         0.4680   -0.8500   -1.1190 c3        1 END     -0.166000
     20 CAT         0.4230    0.6490   -1.3950 c3        1 END      0.004000
     21 OAN         1.4570    0.9940   -2.2810 os        1 END     -0.269000
     22 CAS         1.8020    2.0190   -3.1980 c3        1 END      0.002000
     23 CAI         3.3180    2.1830   -3.2310 c3        1 END     -0.025000
     24 OAA         3.7890    1.9540   -4.5480 oh        1 END     -0.323000
     25 HAA         4.6580    2.1530   -4.5910 ho        1 END      0.201000
     26 HAI1        3.7310    1.5360   -2.6180 h1        1 END      0.102000
     27 HAI2        3.5550    3.0950   -2.9530 h1        1 END      0.102000
     28 HAS         1.4790    1.7770   -4.0950 h1        1 END      0.100000
     29 HAT        -0.4440    0.8820   -1.7970 h1        1 END      0.130000
     30 HAK1        1.4010   -1.1340   -0.9910 hc        1 END      0.109000
     31 HAK2        0.0750   -1.3380   -1.8790 hc        1 END      0.109000
     32 HAV        -1.2990   -1.0980   -0.0490 h1        1 END      0.103000
     33 HAU        -1.7670   -3.3250    0.9450 h1        1 END      0.126000
     34 HAJ1       -0.4140   -4.7490    2.2480 ha        1 END      0.094500
     35 HAJ2        0.1560   -3.4980    3.0810 ha        1 END      0.094500
     36 HAE        -2.6510   -3.8070    3.2430 ha        1 END      0.089000
     37 HAD        -2.1910   -2.1260    0.9050 ha        1 END      0.094000
     38 HAH1       -4.0820   -1.1190    3.1480 h1        1 END      0.108500
     39 HAH2       -4.6510   -1.6950    1.7660 h1        1 END      0.108500
     40 HAW        -2.0950   -1.9400    3.0890 h1        1 END      0.110000
     41 HAR        -1.0520    0.2320    2.9000 h1        1 END      0.114000
     42 HAC         0.4250   -0.5400    4.0420 ho        1 END      0.215000
     43 HAX         0.9660   -0.1010    1.2790 h1        1 END      0.105000
     44 HAQ         1.4280    1.1190    0.3430 h4        1 END      0.101000
     45 HAG         0.1260    3.5040    0.1430 ha        1 END      0.135000
     46 HAF         2.3830    3.7680   -1.0440 ha        1 END      0.127000
     47 HAP         1.3740    4.1050   -3.3070 h1        1 END      0.103000
     48 HAB        -0.4780    3.9060   -3.4220 ho        1 END      0.209000
@<TRIPOS>BOND
     1    1    2 1   
     2    1   48 1   
     3    2    3 1   
     4    2   22 1   
     5    2   47 1   
     6    3    4 1   
     7    3   46 1   
     8    4   45 1   
     9    5    6 1   
    10    5   20 1   
    11    5   44 1   
    12    6    7 1   
    13    7    8 1   
    14    7   18 1   
    15    7   43 1   
    16    8    9 1   
    17    8   10 1   
    18    8   41 1   
    19    9   42 1   
    20   10   11 1   
    21   10   16 1   
    22   10   40 1   
    23   11   12 1   
    24   12   13 1   
    25   12   38 1   
    26   12   39 1   
    27   13   14 1   
    28   13   37 1   
    29   14   36 1   
    30   15   16 1   
    31   15   34 1   
    32   15   35 1   
    33   16   17 1   
    34   16   33 1   
    35   17   18 1   
    36   18   19 1   
    37   18   32 1   
    38   19   20 1   
    39   19   30 1   
    40   19   31 1   
    41   20   21 1   
    42   20   29 1   
    43   21   22 1   
    44   22   23 1   
    45   22   28 1   
    46   23   24 1   
    47   23   26 1   
    48   23   27 1   
    49   24   25 1   
@<TRIPOS>SUBSTRUCTURE
     1 END         1 TEMP              0 ****  ****    0 ROOT
