@<TRIPOS>MOLECULE
ENE
   60    64     1     0     0
SMALL
bcc


@<TRIPOS>ATOM
      1 OAB        -5.8440    1.5080    1.8430 oh        1 ENE     -0.605800
      2 CAT        -6.2140    0.9510    0.5830 c3        1 ENE      0.158300
      3 CAG        -5.8700    1.8340   -0.5720 c2        1 ENE     -0.207200
      4 CAF        -4.6620    2.3460   -0.8260 c2        1 ENE     -0.121200
      5 CAM        -3.4650    2.1550    0.0250 c3        1 ENE     -0.065200
      6 CAY        -2.6030    0.9840   -0.4560 c3        1 ENE      0.144100
      7 OAR        -1.3410    1.2080    0.1790 os        1 ENE     -0.418600
      8 CAZ        -0.2230    0.5820   -0.4480 c3        1 ENE      0.122100
      9 CAN         0.9820    1.4290   -0.0340 c3        1 ENE     -0.079400
     10 CBB         2.2580    0.6910   -0.4020 c3        1 ENE      0.111100
     11 OAS         3.3600    1.4550    0.0790 os        1 ENE     -0.407600
     12 CBA         4.6180    0.8730   -0.2880 c3        1 ENE      0.123100
     13 CAL         5.6680    1.8260    0.2780 c3        1 ENE     -0.053200
     14 CAE         7.0140    1.5940   -0.2940 c2        1 ENE     -0.149200
     15 CAD         7.6580    0.4240   -0.2960 c2        1 ENE     -0.202200
     16 CAJ         7.1310   -0.8490    0.2650 c3        1 ENE      0.163600
     17 OAO         5.8680   -1.2270   -0.2710 os        1 ENE     -0.419600
     18 CBC         4.7470   -0.5450    0.2890 c3        1 ENE      0.076100
     19 CAW         3.5420   -1.4390   -0.0850 c3        1 ENE      0.152100
     20 OAC         3.5760   -2.6210    0.6950 oh        1 ENE     -0.585800
     21 CBD         2.2450   -0.6990    0.2550 c3        1 ENE      0.115100
     22 OAQ         1.1610   -1.4460   -0.2910 os        1 ENE     -0.395600
     23 CAV        -0.1110   -0.8730    0.0520 c3        1 ENE      0.144300
     24 CAI        -1.1270   -1.7610   -0.5830 c2        1 ENE     -0.154200
     25 CAH        -2.4410   -1.5400   -0.6120 c2        1 ENE     -0.181200
     26 CAU        -3.1690   -0.3810   -0.0060 c3        1 ENE      0.154300
     27 OAP        -4.5210   -0.4930   -0.4700 os        1 ENE     -0.423600
     28 CAX        -5.5350   -0.4360    0.5300 c3        1 ENE      0.107100
     29 CAK        -6.5630   -1.5040    0.1210 c3        1 ENE      0.129400
     30 OAA        -5.9650   -2.7780    0.0310 oh        1 ENE     -0.597800
     31 HAA        -5.2270   -2.7010   -0.5890 ho        1 ENE      0.411000
     32 HAK1       -7.3480   -1.6020    0.9160 h1        1 ENE      0.053700
     33 HAK2       -7.0340   -1.2270   -0.8590 h1        1 ENE      0.053700
     34 HAX        -5.1200   -0.6780    1.5480 h1        1 ENE      0.081700
     35 HAU        -3.1100   -0.4420    1.1180 h1        1 ENE      0.075700
     36 HAH        -3.1060   -2.2700   -1.1090 ha        1 ENE      0.138000
     37 HAI        -0.7040   -2.6720   -1.0440 ha        1 ENE      0.152000
     38 HAV        -0.2280   -0.8840    1.1740 h1        1 ENE      0.068700
     39 HBD         2.1330   -0.6150    1.3700 h1        1 ENE      0.072700
     40 HAW         3.5740   -1.6940   -1.1790 h1        1 ENE      0.065700
     41 HAC         4.3750   -3.0950    0.4280 ho        1 ENE      0.414000
     42 HBC         4.8380   -0.4970    1.4090 h1        1 ENE      0.064700
     43 HAJ1        7.7940   -1.7120   -0.0250 h1        1 ENE      0.056200
     44 HAJ2        7.0760   -0.7830    1.3870 h1        1 ENE      0.056200
     45 HAD         8.6710    0.3510   -0.7240 ha        1 ENE      0.129000
     46 HAE         7.4960    2.4880   -0.7240 ha        1 ENE      0.127000
     47 HAL1        5.3330    2.8780    0.0680 hc        1 ENE      0.065700
     48 HAL2        5.7070    1.7100    1.3960 hc        1 ENE      0.065700
     49 HBA         4.6930    0.8260   -1.4110 h1        1 ENE      0.060700
     50 HBB         2.3370    0.5780   -1.5200 h1        1 ENE      0.054700
     51 HAN1        0.9440    2.4200   -0.5500 hc        1 ENE      0.071700
     52 HAN2        0.9520    1.6210    1.0700 hc        1 ENE      0.071700
     53 HAZ        -0.3330    0.5880   -1.5670 h1        1 ENE      0.056700
     54 HAY        -2.4990    1.0010   -1.5740 h1        1 ENE      0.057700
     55 HAM1       -2.8350    3.0860    0.0040 hc        1 ENE      0.071200
     56 HAM2       -3.7550    1.9710    1.0950 hc        1 ENE      0.071200
     57 HAF        -4.5040    2.9660   -1.7250 ha        1 ENE      0.122000
     58 HAG        -6.7080    2.0240   -1.2620 ha        1 ENE      0.127000
     59 HAT        -7.3350    0.7990    0.6010 h1        1 ENE      0.041700
     60 HAB        -6.0840    2.4410    1.8230 ho        1 ENE      0.408000
@<TRIPOS>BOND
     1    1    2 1   
     2    1   60 1   
     3    2    3 1   
     4    2   28 1   
     5    2   59 1   
     6    3    4 2   
     7    3   58 1   
     8    4    5 1   
     9    4   57 1   
    10    5    6 1   
    11    5   55 1   
    12    5   56 1   
    13    6    7 1   
    14    6   26 1   
    15    6   54 1   
    16    7    8 1   
    17    8    9 1   
    18    8   23 1   
    19    8   53 1   
    20    9   10 1   
    21    9   51 1   
    22    9   52 1   
    23   10   11 1   
    24   10   21 1   
    25   10   50 1   
    26   11   12 1   
    27   12   13 1   
    28   12   18 1   
    29   12   49 1   
    30   13   14 1   
    31   13   47 1   
    32   13   48 1   
    33   14   15 2   
    34   14   46 1   
    35   15   16 1   
    36   15   45 1   
    37   16   17 1   
    38   16   43 1   
    39   16   44 1   
    40   17   18 1   
    41   18   19 1   
    42   18   42 1   
    43   19   20 1   
    44   19   21 1   
    45   19   40 1   
    46   20   41 1   
    47   21   22 1   
    48   21   39 1   
    49   22   23 1   
    50   23   24 1   
    51   23   38 1   
    52   24   25 2   
    53   24   37 1   
    54   25   26 1   
    55   25   36 1   
    56   26   27 1   
    57   26   35 1   
    58   27   28 1   
    59   28   29 1   
    60   28   34 1   
    61   29   30 1   
    62   29   32 1   
    63   29   33 1   
    64   30   31 1   
@<TRIPOS>SUBSTRUCTURE
     1 ENE         1 TEMP              0 ****  ****    0 ROOT
