@<TRIPOS>MOLECULE
ENE
   60    64     1     0     0
SMALL
bcc


@<TRIPOS>ATOM
      1 OAB         0.1270    0.5850   -0.0670 oh        1 ENE     -0.605800
      2 CAT         1.5030    0.2160    0.0070 c3        1 ENE      0.158300
      3 CAG         2.0120    0.1300    1.4080 c2        1 ENE     -0.207200
      4 CAF         1.4660   -0.5910    2.3910 c2        1 ENE     -0.121200
      5 CAM         0.2310   -1.3990    2.2640 c3        1 ENE     -0.065200
      6 CAY         0.5370   -2.8630    1.9320 c3        1 ENE      0.144100
      7 OAR        -0.6770   -3.5460    2.2600 os        1 ENE     -0.418600
      8 CAZ        -0.5400   -4.9420    2.5210 c3        1 ENE      0.122100
      9 CAN        -1.7280   -5.2890    3.4200 c3        1 ENE     -0.079400
     10 CBB        -1.8480   -6.8010    3.5230 c3        1 ENE      0.111100
     11 OAS        -3.0140   -7.0960    4.2860 os        1 ENE     -0.407600
     12 CBA        -3.1710   -8.5050    4.5010 c3        1 ENE      0.123100
     13 CAL        -4.4370   -8.6300    5.3460 c3        1 ENE     -0.053200
     14 CAE        -4.5740   -9.9660    5.9690 c2        1 ENE     -0.149200
     15 CAD        -4.5510  -11.1280    5.3120 c2        1 ENE     -0.202200
     16 CAJ        -4.3720  -11.2820    3.8430 c3        1 ENE      0.163600
     17 OAO        -3.1940  -10.6580    3.3450 os        1 ENE     -0.419600
     18 CBC        -3.2910   -9.2470    3.1610 c3        1 ENE      0.076100
     19 CAW        -2.1230   -8.9150    2.2040 c3        1 ENE      0.152100
     20 OAC        -2.4280   -9.3940    0.9070 oh        1 ENE     -0.585800
     21 CBD        -1.9690   -7.3940    2.1100 c3        1 ENE      0.115100
     22 OAQ        -0.7640   -7.1200    1.4010 os        1 ENE     -0.395600
     23 CAV        -0.5770   -5.7130    1.1850 c3        1 ENE      0.144300
     24 CAI         0.7090   -5.5960    0.4380 c2        1 ENE     -0.154200
     25 CAH         1.3230   -4.4550    0.1250 c2        1 ENE     -0.181200
     26 CAU         0.8530   -3.0690    0.4340 c3        1 ENE      0.154300
     27 OAP         1.9410   -2.2060    0.0730 os        1 ENE     -0.423600
     28 CAX         1.6160   -1.1100   -0.7790 c3        1 ENE      0.107100
     29 CAK         2.7780   -1.0230   -1.7820 c3        1 ENE      0.129400
     30 OAA         2.9290   -2.2330   -2.4920 oh        1 ENE     -0.597800
     31 HAA         3.0430   -2.9340   -1.8360 ho        1 ENE      0.411000
     32 HAK1        3.7290   -0.7680   -1.2450 h1        1 ENE      0.053700
     33 HAK2        2.5520   -0.2500   -2.5620 h1        1 ENE      0.053700
     34 HAX         0.6510   -1.2920   -1.3290 h1        1 ENE      0.081700
     35 HAU        -0.0740   -2.8400   -0.1640 h1        1 ENE      0.075700
     36 HAH         2.2740   -4.4850   -0.4380 ha        1 ENE      0.138000
     37 HAI         1.1400   -6.5660    0.1300 ha        1 ENE      0.152000
     38 HAV        -1.4300   -5.3200    0.5600 h1        1 ENE      0.068700
     39 HBD        -2.8470   -6.9530    1.5640 h1        1 ENE      0.072700
     40 HAW        -1.1720   -9.3840    2.5780 h1        1 ENE      0.065700
     41 HAC        -2.4710  -10.3570    0.9800 ho        1 ENE      0.414000
     42 HBC        -4.2640   -8.9840    2.6610 h1        1 ENE      0.064700
     43 HAJ1       -5.2790  -10.8950    3.3010 h1        1 ENE      0.056200
     44 HAJ2       -4.2140  -12.3650    3.5770 h1        1 ENE      0.056200
     45 HAD        -4.6860  -12.0770    5.8580 ha        1 ENE      0.129000
     46 HAE        -4.7270   -9.9560    7.0620 ha        1 ENE      0.127000
     47 HAL1       -5.3340   -8.4190    4.7020 hc        1 ENE      0.065700
     48 HAL2       -4.4070   -7.8340    6.1380 hc        1 ENE      0.065700
     49 HBA        -2.2800   -8.8980    5.0650 h1        1 ENE      0.060700
     50 HBB        -0.9420   -7.2320    4.0360 h1        1 ENE      0.054700
     51 HAN1       -1.5780   -4.8420    4.4350 hc        1 ENE      0.071700
     52 HAN2       -2.6690   -4.8550    2.9950 hc        1 ENE      0.071700
     53 HAZ         0.4250   -5.1590    3.0540 h1        1 ENE      0.056700
     54 HAY         1.3910   -3.2410    2.5550 h1        1 ENE      0.057700
     55 HAM1       -0.3400   -1.3710    3.2320 hc        1 ENE      0.071200
     56 HAM2       -0.4420   -0.9850    1.4660 hc        1 ENE      0.071200
     57 HAF         1.9380   -0.6110    3.3890 ha        1 ENE      0.122000
     58 HAG         2.9370    0.7010    1.5890 ha        1 ENE      0.127000
     59 HAT         2.0920    1.0090   -0.5440 h1        1 ENE      0.041700
     60 HAB        -0.0120    1.2930    0.5720 ho        1 ENE      0.408000
@<TRIPOS>BOND
     1    1    2 1   
     2    1   60 1   
     3    2    3 1   
     4    2   28 1   
     5    2   59 1   
     6    3    4 2   
     7    3   58 1   
     8    4    5 1   
     9    4   57 1   
    10    5    6 1   
    11    5   55 1   
    12    5   56 1   
    13    6    7 1   
    14    6   26 1   
    15    6   54 1   
    16    7    8 1   
    17    8    9 1   
    18    8   23 1   
    19    8   53 1   
    20    9   10 1   
    21    9   51 1   
    22    9   52 1   
    23   10   11 1   
    24   10   21 1   
    25   10   50 1   
    26   11   12 1   
    27   12   13 1   
    28   12   18 1   
    29   12   49 1   
    30   13   14 1   
    31   13   47 1   
    32   13   48 1   
    33   14   15 2   
    34   14   46 1   
    35   15   16 1   
    36   15   45 1   
    37   16   17 1   
    38   16   43 1   
    39   16   44 1   
    40   17   18 1   
    41   18   19 1   
    42   18   42 1   
    43   19   20 1   
    44   19   21 1   
    45   19   40 1   
    46   20   41 1   
    47   21   22 1   
    48   21   39 1   
    49   22   23 1   
    50   23   24 1   
    51   23   38 1   
    52   24   25 2   
    53   24   37 1   
    54   25   26 1   
    55   25   36 1   
    56   26   27 1   
    57   26   35 1   
    58   27   28 1   
    59   28   29 1   
    60   28   34 1   
    61   29   30 1   
    62   29   32 1   
    63   29   33 1   
    64   30   31 1   
@<TRIPOS>SUBSTRUCTURE
     1 ENE         1 TEMP              0 ****  ****    0 ROOT
