@<TRIPOS>MOLECULE
ENE
   60    61     1     0     0
SMALL
bcc


@<TRIPOS>ATOM
      1 OAB        -1.0820    5.7410   -2.6470 oh        1 ENE     -0.331000
      2 CAT         0.2990    5.6830   -2.6360 c3        1 ENE      0.036000
      3 CAG         0.8040    5.6690   -1.1900 c2        1 ENE     -0.203000
      4 CAF         0.0210    4.8860   -0.0930 c1        1 ENE     -0.119000
      5 CAM        -0.9640    3.7980   -0.4890 c2        1 ENE     -0.144000
      6 CAY        -0.1350    2.5150   -0.6280 c3        1 ENE      0.040000
      7 OAR        -0.9800    1.3930   -0.3860 os        1 ENE     -0.276000
      8 CAZ        -0.2250    0.2620   -0.0320 c3        1 ENE      0.012000
      9 CAN        -0.8550   -0.3600    1.2070 c3        1 ENE     -0.160000
     10 CBB        -0.2150   -1.5310    1.6200 c3        1 ENE      0.002000
     11 OAS        -0.8900   -2.1000    2.8690 os        1 ENE     -0.265000
     12 CBA        -0.2130   -3.3510    3.3750 c3        1 ENE      0.018000
     13 CAL        -1.0410   -3.9200    4.5270 c3        1 ENE     -0.128000
     14 CAE        -2.0160   -4.9470    3.8840 c2        1 ENE     -0.139000
     15 CAD        -1.4740   -6.0780    3.0370 c1        1 ENE     -0.211000
     16 CAJ        -0.0380   -6.5350    3.2130 c2        1 ENE      0.008000
     17 OAO         0.7660   -5.4400    2.8260 os        1 ENE     -0.256000
     18 CBC        -0.0410   -4.3640    2.3150 c3        1 ENE     -0.029000
     19 CAW         0.6360   -3.7850    1.0470 c3        1 ENE      0.034000
     20 OAC         0.6050   -4.7480    0.0380 oh        1 ENE     -0.292000
     21 CBD        -0.0580   -2.5370    0.5580 c3        1 ENE     -0.035000
     22 OAQ         0.5970   -2.0110   -0.6720 os        1 ENE     -0.251000
     23 CAV        -0.1050   -0.7470   -1.2930 c3        1 ENE      0.030000
     24 CAI         0.6650   -0.2010   -2.3180 c2        1 ENE     -0.156000
     25 CAH         1.3410    1.1410   -2.1290 c1        1 ENE     -0.174000
     26 CAU         0.4870    2.4270   -1.9980 c2        1 ENE      0.039000
     27 OAP         1.3180    3.5650   -2.2500 os        1 ENE     -0.276000
     28 CAX         0.7560    4.3910   -3.2500 c3        1 ENE      0.038000
     29 CAK         1.7990    4.6770   -4.3130 c3        1 ENE     -0.024000
     30 OAA         1.1760    5.2820   -5.4410 oh        1 ENE     -0.329000
     31 HAA         1.7780    5.3310   -6.1370 ho        1 ENE      0.204000
     32 HAK1        2.4760    5.2810   -3.9500 h1        1 ENE      0.077500
     33 HAK2        2.2200    3.8450   -4.5840 h1        1 ENE      0.077500
     34 HAX         0.0020    3.9410   -3.6530 h1        1 ENE      0.120000
     35 HAU        -0.2320    2.4020   -2.6730 h4        1 ENE      0.121000
     36 HAH         2.2980    1.2070   -2.2010 ha        1 ENE      0.139000
     37 HAI         0.7450   -0.6710   -3.1690 ha        1 ENE      0.149000
     38 HAV        -1.0100   -0.9850   -1.6300 h1        1 ENE      0.104000
     39 HBD        -0.9520   -2.8030    0.3010 h1        1 ENE      0.090000
     40 HAW         1.5710   -3.5700    1.2530 h1        1 ENE      0.146000
     41 HAC        -0.1160   -5.2630    0.1420 ho        1 ENE      0.192000
     42 HBC        -0.9310   -4.7210    2.0670 h1        1 ENE      0.100000
     43 HAJ1        0.3130   -7.3660    2.8200 h4        1 ENE      0.097000
     44 HAJ2        0.0460   -6.7390    4.1660 h4        1 ENE      0.097000
     45 HAD        -2.0700   -6.5560    2.4220 ha        1 ENE      0.126000
     46 HAE        -2.9780   -4.8640    4.0290 ha        1 ENE      0.122000
     47 HAL1       -1.5040   -3.3590    5.1690 hc        1 ENE      0.107000
     48 HAL2       -0.3980   -4.3520    5.1040 hc        1 ENE      0.107000
     49 HBA         0.6610   -3.1110    3.7140 h1        1 ENE      0.093000
     50 HBB         0.6920   -1.2710    1.8870 h1        1 ENE      0.095000
     51 HAN1       -0.8210    0.2890    1.9330 hc        1 ENE      0.110000
     52 HAN2       -1.7740   -0.5620    1.0170 hc        1 ENE      0.110000
     53 HAZ         0.6890    0.5650    0.2090 h1        1 ENE      0.099000
     54 HAY         0.5930    2.5250    0.0550 h1        1 ENE      0.098000
     55 HAM1       -1.5830    4.0240   -1.2090 ha        1 ENE      0.108000
     56 HAM2       -1.5990    3.6610    0.2550 ha        1 ENE      0.108000
     57 HAF         0.1650    5.0980    0.8630 ha        1 ENE      0.119000
     58 HAG         1.5960    6.1870   -0.9460 ha        1 ENE      0.124000
     59 HAT         0.5250    6.5010   -3.1550 h1        1 ENE      0.098000
     60 HAB        -1.3420    6.5590   -2.8560 ho        1 ENE      0.205000
@<TRIPOS>BOND
     1    1    2 1   
     2    1   60 1   
     3    2    3 1   
     4    2   28 1   
     5    2   59 1   
     6    3    4 1   
     7    3   58 1   
     8    4   57 1   
     9    5    6 1   
    10    5   55 1   
    11    5   56 1   
    12    6    7 1   
    13    6   26 1   
    14    6   54 1   
    15    7    8 1   
    16    8    9 1   
    17    8   23 1   
    18    8   53 1   
    19    9   10 1   
    20    9   51 1   
    21    9   52 1   
    22   10   11 1   
    23   10   21 1   
    24   10   50 1   
    25   11   12 1   
    26   12   13 1   
    27   12   18 1   
    28   12   49 1   
    29   13   14 1   
    30   13   47 1   
    31   13   48 1   
    32   14   15 1   
    33   14   46 1   
    34   15   45 1   
    35   16   17 1   
    36   16   43 1   
    37   16   44 1   
    38   17   18 1   
    39   18   19 1   
    40   18   42 1   
    41   19   20 1   
    42   19   21 1   
    43   19   40 1   
    44   20   41 1   
    45   21   22 1   
    46   21   39 1   
    47   22   23 1   
    48   23   24 1   
    49   23   38 1   
    50   24   25 1   
    51   24   37 1   
    52   25   36 1   
    53   26   27 1   
    54   26   35 1   
    55   27   28 1   
    56   28   29 1   
    57   28   34 1   
    58   29   30 1   
    59   29   32 1   
    60   29   33 1   
    61   30   31 1   
@<TRIPOS>SUBSTRUCTURE
     1 ENE         1 TEMP              0 ****  ****    0 ROOT
