@<TRIPOS>MOLECULE
ENE
   60    64     1     0     0
SMALL
bcc


@<TRIPOS>ATOM
      1 OAB         0.1280    0.5790   -0.0750 oh        1 ENE     -0.605800
      2 CAT         1.5040    0.2130   -0.0000 c3        1 ENE      0.158300
      3 CAG         2.0130    0.1300    1.4020 c2        1 ENE     -0.207200
      4 CAF         1.4680   -0.5900    2.3860 c2        1 ENE     -0.121200
      5 CAM         0.2340   -1.4000    2.2600 c3        1 ENE     -0.065200
      6 CAY         0.5420   -2.8640    1.9290 c3        1 ENE      0.144100
      7 OAR        -0.6710   -3.5470    2.2580 os        1 ENE     -0.418600
      8 CAZ        -0.5330   -4.9430    2.5210 c3        1 ENE      0.122100
      9 CAN        -1.7200   -5.2900    3.4210 c3        1 ENE     -0.079400
     10 CBB        -1.8380   -6.8020    3.5250 c3        1 ENE      0.111100
     11 OAS        -3.0040   -7.0980    4.2890 os        1 ENE     -0.407600
     12 CBA        -3.1600   -8.5060    4.5050 c3        1 ENE      0.123100
     13 CAL        -4.4250   -8.6320    5.3520 c3        1 ENE     -0.053200
     14 CAE        -4.5600   -9.9680    5.9770 c2        1 ENE     -0.149200
     15 CAD        -4.5370  -11.1300    5.3210 c2        1 ENE     -0.202200
     16 CAJ        -4.3590  -11.2850    3.8520 c3        1 ENE      0.163600
     17 OAO        -3.1810  -10.6610    3.3520 os        1 ENE     -0.419600
     18 CBC        -3.2800   -9.2490    3.1670 c3        1 ENE      0.076100
     19 CAW        -2.1130   -8.9180    2.2080 c3        1 ENE      0.152100
     20 OAC        -2.4190   -9.3990    0.9120 oh        1 ENE     -0.585800
     21 CBD        -1.9600   -7.3970    2.1130 c3        1 ENE      0.115100
     22 OAQ        -0.7560   -7.1230    1.4020 os        1 ENE     -0.395600
     23 CAV        -0.5700   -5.7150    1.1850 c3        1 ENE      0.144300
     24 CAI         0.7150   -5.5970    0.4370 c2        1 ENE     -0.154200
     25 CAH         1.3280   -4.4570    0.1230 c2        1 ENE     -0.181200
     26 CAU         0.8580   -3.0710    0.4310 c3        1 ENE      0.154300
     27 OAP         1.9450   -2.2080    0.0700 os        1 ENE     -0.423600
     28 CAX         1.6210   -1.1130   -0.7840 c3        1 ENE      0.107100
     29 CAK         2.7840   -1.0260   -1.7850 c3        1 ENE      0.129400
     30 OAA         2.9400   -2.2360   -2.4930 oh        1 ENE     -0.597800
     31 HAA         3.0530   -2.9360   -1.8350 ho        1 ENE      0.411000
     32 HAK1        2.5590   -0.2540   -2.5670 h1        1 ENE      0.053700
     33 HAK2        3.7350   -0.7680   -1.2460 h1        1 ENE      0.053700
     34 HAX         0.6570   -1.2970   -1.3360 h1        1 ENE      0.081700
     35 HAU        -0.0690   -2.8420   -0.1670 h1        1 ENE      0.075700
     36 HAH         2.2790   -4.4870   -0.4410 ha        1 ENE      0.138000
     37 HAI         1.1470   -6.5670    0.1290 ha        1 ENE      0.152000
     38 HAV        -1.4240   -5.3240    0.5600 h1        1 ENE      0.068700
     39 HBD        -2.8390   -6.9570    1.5670 h1        1 ENE      0.072700
     40 HAW        -1.1610   -9.3850    2.5820 h1        1 ENE      0.065700
     41 HAC        -2.4600  -10.3610    0.9860 ho        1 ENE      0.414000
     42 HBC        -4.2540   -8.9880    2.6670 h1        1 ENE      0.064700
     43 HAJ1       -5.2660  -10.8990    3.3100 h1        1 ENE      0.056200
     44 HAJ2       -4.1990  -12.3680    3.5860 h1        1 ENE      0.056200
     45 HAD        -4.6710  -12.0780    5.8670 ha        1 ENE      0.129000
     46 HAE        -4.7120   -9.9560    7.0700 ha        1 ENE      0.127000
     47 HAL1       -5.3220   -8.4220    4.7080 hc        1 ENE      0.065700
     48 HAL2       -4.3960   -7.8350    6.1430 hc        1 ENE      0.065700
     49 HBA        -2.2680   -8.8980    5.0690 h1        1 ENE      0.060700
     50 HBB        -0.9320   -7.2320    4.0380 h1        1 ENE      0.054700
     51 HAN1       -2.6620   -4.8570    2.9950 hc        1 ENE      0.071700
     52 HAN2       -1.5700   -4.8420    4.4350 hc        1 ENE      0.071700
     53 HAZ         0.4330   -5.1590    3.0530 h1        1 ENE      0.056700
     54 HAY         1.3960   -3.2400    2.5530 h1        1 ENE      0.057700
     55 HAM1       -0.3370   -1.3710    3.2280 hc        1 ENE      0.071200
     56 HAM2       -0.4400   -0.9870    1.4610 hc        1 ENE      0.071200
     57 HAF         1.9400   -0.6070    3.3830 ha        1 ENE      0.122000
     58 HAG         2.9370    0.7030    1.5820 ha        1 ENE      0.127000
     59 HAT         2.0920    1.0070   -0.5520 h1        1 ENE      0.041700
     60 HAB        -0.0130    1.2880    0.5630 ho        1 ENE      0.408000
@<TRIPOS>BOND
     1    1    2 1   
     2    1   60 1   
     3    2    3 1   
     4    2   28 1   
     5    2   59 1   
     6    3    4 2   
     7    3   58 1   
     8    4    5 1   
     9    4   57 1   
    10    5    6 1   
    11    5   55 1   
    12    5   56 1   
    13    6    7 1   
    14    6   26 1   
    15    6   54 1   
    16    7    8 1   
    17    8    9 1   
    18    8   23 1   
    19    8   53 1   
    20    9   10 1   
    21    9   51 1   
    22    9   52 1   
    23   10   11 1   
    24   10   21 1   
    25   10   50 1   
    26   11   12 1   
    27   12   13 1   
    28   12   18 1   
    29   12   49 1   
    30   13   14 1   
    31   13   47 1   
    32   13   48 1   
    33   14   15 2   
    34   14   46 1   
    35   15   16 1   
    36   15   45 1   
    37   16   17 1   
    38   16   43 1   
    39   16   44 1   
    40   17   18 1   
    41   18   19 1   
    42   18   42 1   
    43   19   20 1   
    44   19   21 1   
    45   19   40 1   
    46   20   41 1   
    47   21   22 1   
    48   21   39 1   
    49   22   23 1   
    50   23   24 1   
    51   23   38 1   
    52   24   25 2   
    53   24   37 1   
    54   25   26 1   
    55   25   36 1   
    56   26   27 1   
    57   26   35 1   
    58   27   28 1   
    59   28   29 1   
    60   28   34 1   
    61   29   30 1   
    62   29   32 1   
    63   29   33 1   
    64   30   31 1   
@<TRIPOS>SUBSTRUCTURE
     1 ENE         1 TEMP              0 ****  ****    0 ROOT
