@<TRIPOS>MOLECULE
ENH
   24    26     1     0     0
SMALL
bcc


@<TRIPOS>ATOM
      1 CL1        -1.8950    1.5820   -0.8530 cl        1 ENH      0.013600
      2 CL2        -0.2460    1.7150    1.9920 cl        1 ENH      0.013600
      3 CL3         2.6120    1.0000    1.6380 cl        1 ENH     -0.050400
      4 CL          0.4340    1.1860   -3.1780 cl        1 ENH     -0.050400
      5 CL8         2.1910    2.9270   -0.7320 cl        1 ENH     -0.082400
      6 CL9         3.1140    0.2200   -1.2320 cl        1 ENH     -0.082400
      7 C11        -0.1520    1.5820   -0.8530 c2        1 ENH     -0.042800
      8 C12         0.6210    1.5820    0.4850 c2        1 ENH     -0.042800
      9 C5          1.4000    0.8930    0.3900 c3        1 ENH      0.091600
     10 C           1.0790   -0.2650    0.0870 c3        1 ENH     -0.151700
     11 C9          0.4200   -0.2460   -1.0930 c3        1 ENH     -0.151700
     12 C10         0.3810    0.8880   -1.4610 c3        1 ENH      0.091600
     13 C8          1.8030    1.2280   -0.6790 c3        1 ENH      0.126800
     14 N          -1.2590   -1.2300    0.6150 n         1 ENH     -0.508400
     15 C6         -1.1530   -0.8230   -0.8240 c         1 ENH      0.709500
     16 O          -2.0370   -0.8970   -1.6540 o         1 ENH     -0.555500
     17 C7          0.0090   -0.8990    1.2770 c         1 ENH      0.709500
     18 O1          0.2740   -1.0890    2.4480 o         1 ENH     -0.555500
     19 CN         -2.3930   -1.8280    1.2340 c3        1 ENH      0.083300
     20 H1          1.8750   -0.8260    0.0180 hc        1 ENH      0.127700
     21 H91         0.8810   -0.8020   -1.7500 hc        1 ENH      0.127700
     22 H11        -2.9120   -1.1420    1.6940 h1        1 ENH      0.060367
     23 H12        -2.0970   -2.4990    1.8770 h1        1 ENH      0.060367
     24 H13        -2.9480   -2.2540    0.5520 h1        1 ENH      0.060367
@<TRIPOS>BOND
     1    1    7 1   
     2    2    8 1   
     3    3    9 1   
     4    4   12 1   
     5    5   13 1   
     6    6   13 1   
     7    7    8 2   
     8    7   12 1   
     9    8    9 1   
    10    9   10 1   
    11    9   13 1   
    12   10   11 1   
    13   10   17 1   
    14   10   20 1   
    15   11   12 1   
    16   11   15 1   
    17   11   21 1   
    18   12   13 1   
    19   14   15 1   
    20   14   17 1   
    21   14   19 1   
    22   15   16 2   
    23   17   18 2   
    24   19   22 1   
    25   19   23 1   
    26   19   24 1   
@<TRIPOS>SUBSTRUCTURE
     1 ENH         1 TEMP              0 ****  ****    0 ROOT
