@<TRIPOS>MOLECULE
ENH
   24    26     1     0     0
SMALL
bcc


@<TRIPOS>ATOM
      1 CL1         0.0470    0.3540   -0.1520 cl        1 ENH      0.012600
      2 CL2         2.0030    0.3600    2.6700 cl        1 ENH      0.012600
      3 CL3         5.1310    0.5470    1.7710 cl        1 ENH     -0.050400
      4 CL          1.9860    0.5380   -2.7660 cl        1 ENH     -0.050400
      5 CL8         3.5420    2.5730   -0.4900 cl        1 ENH     -0.082400
      6 CL9         5.3010    0.6980   -1.7060 cl        1 ENH     -0.082400
      7 C11         1.6940    0.2130   -0.0350 c2        1 ENH     -0.042800
      8 C12         2.4710    0.2150    1.0870 c2        1 ENH     -0.042800
      9 C5          3.9300    0.0600    0.6490 c3        1 ENH      0.091600
     10 C           4.0770   -1.3820    0.0990 c3        1 ENH     -0.151700
     11 C9          3.1850   -1.3850   -1.1870 c3        1 ENH     -0.151700
     12 C10         2.6160    0.0570   -1.2470 c3        1 ENH      0.091600
     13 C8          3.8750    0.8790   -0.7180 c3        1 ENH      0.126800
     14 N           2.3930   -3.0690    0.3180 n         1 ENH     -0.508400
     15 C6          2.1520   -2.4830   -0.9430 c         1 ENH      0.708500
     16 O           1.2660   -2.8440   -1.7200 o         1 ENH     -0.555500
     17 C7          3.4870   -2.4790    0.9840 c         1 ENH      0.708500
     18 O1          3.9050   -2.8370    2.0870 o         1 ENH     -0.555500
     19 CN          1.6300   -4.1570    0.8490 c3        1 ENH      0.083300
     20 H1          5.1480   -1.6200   -0.1180 hc        1 ENH      0.127700
     21 H91         3.7650   -1.6240   -2.1130 hc        1 ENH      0.127700
     22 H11         1.6280   -4.0970    1.9700 h1        1 ENH      0.060033
     23 H12         0.5790   -4.0990    0.4580 h1        1 ENH      0.060033
     24 H13         2.0820   -5.1370    0.5370 h1        1 ENH      0.060033
@<TRIPOS>BOND
     1    1    7 1   
     2    2    8 1   
     3    3    9 1   
     4    4   12 1   
     5    5   13 1   
     6    6   13 1   
     7    7    8 2   
     8    7   12 1   
     9    8    9 1   
    10    9   10 1   
    11    9   13 1   
    12   10   11 1   
    13   10   17 1   
    14   10   20 1   
    15   11   12 1   
    16   11   15 1   
    17   11   21 1   
    18   12   13 1   
    19   14   15 1   
    20   14   17 1   
    21   14   19 1   
    22   15   16 2   
    23   17   18 2   
    24   19   22 1   
    25   19   23 1   
    26   19   24 1   
@<TRIPOS>SUBSTRUCTURE
     1 ENH         1 TEMP              0 ****  ****    0 ROOT
