@<TRIPOS>MOLECULE
ENH
   24    26     1     0     0
SMALL
bcc


@<TRIPOS>ATOM
      1 CL1         0.0400    0.3420   -0.1540 cl        1 ENH      0.012600
      2 CL2         1.9890    0.3470    2.6730 cl        1 ENH      0.012600
      3 CL3         5.1180    0.5520    1.7830 cl        1 ENH     -0.050400
      4 CL          1.9840    0.5430   -2.7620 cl        1 ENH     -0.050400
      5 CL8         3.5250    2.5780   -0.4750 cl        1 ENH     -0.082400
      6 CL9         5.2960    0.7160   -1.6930 cl        1 ENH     -0.082400
      7 C11         1.6870    0.2080   -0.0330 c2        1 ENH     -0.042800
      8 C12         2.4620    0.2100    1.0910 c2        1 ENH     -0.042800
      9 C5          3.9220    0.0640    0.6570 c3        1 ENH      0.091600
     10 C           4.0770   -1.3760    0.1020 c3        1 ENH     -0.151700
     11 C9          3.1880   -1.3790   -1.1860 c3        1 ENH     -0.151700
     12 C10         2.6120    0.0600   -1.2430 c3        1 ENH      0.091600
     13 C8          3.8660    0.8860   -0.7080 c3        1 ENH      0.126800
     14 N           2.4010   -3.0720    0.3100 n         1 ENH     -0.508400
     15 C6          2.1600   -2.4830   -0.9490 c         1 ENH      0.708500
     16 O           1.2780   -2.8460   -1.7290 o         1 ENH     -0.555500
     17 C7          3.4910   -2.4790    0.9810 c         1 ENH      0.708500
     18 O1          3.9070   -2.8380    2.0840 o         1 ENH     -0.555500
     19 CN          1.6420   -4.1660    0.8360 c3        1 ENH      0.083300
     20 H1          5.1500   -1.6080   -0.1140 hc        1 ENH      0.127700
     21 H91         3.7720   -1.6120   -2.1120 hc        1 ENH      0.127700
     22 H11         1.6330   -4.1060    1.9570 h1        1 ENH      0.060033
     23 H12         2.1020   -5.1420    0.5250 h1        1 ENH      0.060033
     24 H13         0.5930   -4.1140    0.4390 h1        1 ENH      0.060033
@<TRIPOS>BOND
     1    1    7 1   
     2    2    8 1   
     3    3    9 1   
     4    4   12 1   
     5    5   13 1   
     6    6   13 1   
     7    7    8 2   
     8    7   12 1   
     9    8    9 1   
    10    9   10 1   
    11    9   13 1   
    12   10   11 1   
    13   10   17 1   
    14   10   20 1   
    15   11   12 1   
    16   11   15 1   
    17   11   21 1   
    18   12   13 1   
    19   14   15 1   
    20   14   17 1   
    21   14   19 1   
    22   15   16 2   
    23   17   18 2   
    24   19   22 1   
    25   19   23 1   
    26   19   24 1   
@<TRIPOS>SUBSTRUCTURE
     1 ENH         1 TEMP              0 ****  ****    0 ROOT
