@<TRIPOS>MOLECULE
ENH
   24    26     1     0     0
SMALL
bcc


@<TRIPOS>ATOM
      1 Cl1         0.0240    0.3170   -0.1360 cl        1 ENH      0.012600
      2 Cl2         1.9840    0.3280    2.6830 cl        1 ENH      0.012600
      3 Cl3         5.1080    0.5650    1.7820 cl        1 ENH     -0.050400
      4 Cl          1.9570    0.5470   -2.7510 cl        1 ENH     -0.050400
      5 Cl8         3.4870    2.5860   -0.4610 cl        1 ENH     -0.082400
      6 Cl9         5.2710    0.7460   -1.6940 cl        1 ENH     -0.082400
      7 C11         1.6730    0.1970   -0.0220 c2        1 ENH     -0.042800
      8 C12         2.4520    0.2020    1.0990 c2        1 ENH     -0.042800
      9 C5          3.9120    0.0710    0.6580 c3        1 ENH      0.091600
     10 C           4.0780   -1.3650    0.0970 c3        1 ENH     -0.151700
     11 C9          3.1850   -1.3700   -1.1880 c3        1 ENH     -0.151700
     12 C10         2.5950    0.0630   -1.2360 c3        1 ENH      0.091600
     13 C8          3.8440    0.8990   -0.7020 c3        1 ENH      0.126800
     14 N           2.4180   -3.0780    0.3040 n         1 ENH     -0.508400
     15 C6          2.1670   -2.4850   -0.9510 c         1 ENH      0.708500
     16 O           1.2860   -2.8530   -1.7300 o         1 ENH     -0.555500
     17 C7          3.5060   -2.4770    0.9740 c         1 ENH      0.708500
     18 O1          3.9290   -2.8370    2.0740 o         1 ENH     -0.555500
     19 CN          1.6710   -4.1800    0.8280 c3        1 ENH      0.083300
     20 H1          5.1520   -1.5860   -0.1240 hc        1 ENH      0.127700
     21 H91         3.7670   -1.5940   -2.1170 hc        1 ENH      0.127700
     22 H11         1.6690   -4.1280    1.9500 h1        1 ENH      0.060033
     23 H12         0.6200   -4.1350    0.4380 h1        1 ENH      0.060033
     24 H13         2.1380   -5.1510    0.5090 h1        1 ENH      0.060033
@<TRIPOS>BOND
     1    1    7 1   
     2    2    8 1   
     3    3    9 1   
     4    4   12 1   
     5    5   13 1   
     6    6   13 1   
     7    7    8 2   
     8    7   12 1   
     9    8    9 1   
    10    9   10 1   
    11    9   13 1   
    12   10   11 1   
    13   10   17 1   
    14   10   20 1   
    15   11   12 1   
    16   11   15 1   
    17   11   21 1   
    18   12   13 1   
    19   14   15 1   
    20   14   17 1   
    21   14   19 1   
    22   15   16 2   
    23   17   18 2   
    24   19   22 1   
    25   19   23 1   
    26   19   24 1   
@<TRIPOS>SUBSTRUCTURE
     1 ENH         1 TEMP              0 ****  ****    0 ROOT
