@<TRIPOS>MOLECULE
ENH
   24    26     1     0     0
SMALL
bcc


@<TRIPOS>ATOM
      1 CL1        -1.7260    2.1810    0.9210 cl        1 ENH      0.013600
      2 CL2         1.7070    2.2080    0.8510 cl        1 ENH      0.013600
      3 CL3         2.7260   -0.0910   -1.2230 cl        1 ENH     -0.050400
      4 CL         -2.7930   -0.1340   -1.1110 cl        1 ENH     -0.050400
      5 CL8        -0.0760    1.1580   -2.7500 cl        1 ENH     -0.082400
      6 CL9        -0.0510   -1.6820   -2.6020 cl        1 ENH     -0.082400
      7 C11        -0.6970    1.0900    0.2160 c2        1 ENH     -0.042800
      8 C12         0.6670    1.1010    0.1880 c2        1 ENH     -0.042800
      9 C5          1.1320   -0.1290   -0.5950 c3        1 ENH      0.091600
     10 C           0.7880   -1.3650    0.2770 c3        1 ENH     -0.151700
     11 C9         -0.7770   -1.3770    0.3080 c3        1 ENH     -0.151700
     12 C10        -1.1750   -0.1470   -0.5480 c3        1 ENH      0.091600
     13 C8         -0.0430   -0.2070   -1.6700 c3        1 ENH      0.126800
     14 N           0.0500   -1.2290    2.5500 n         1 ENH     -0.508400
     15 C6         -1.1370   -1.2820    1.7900 c         1 ENH      0.709500
     16 O          -2.2710   -1.2990    2.2720 o         1 ENH     -0.555500
     17 C7          1.2070   -1.2640    1.7420 c         1 ENH      0.709500
     18 O1          2.3600   -1.2640    2.1780 o         1 ENH     -0.555500
     19 CN          0.0790   -1.1260    3.9770 c3        1 ENH      0.083300
     20 H1          1.2180   -2.2980   -0.1660 hc        1 ENH      0.127700
     21 H91        -1.2100   -2.3170   -0.1170 hc        1 ENH      0.127700
     22 H11         1.0110   -1.6170    4.3650 h1        1 ENH      0.060367
     23 H12         0.0770   -0.0460    4.2880 h1        1 ENH      0.060367
     24 H13        -0.8290   -1.6310    4.4030 h1        1 ENH      0.060367
@<TRIPOS>BOND
     1    1    7 1   
     2    2    8 1   
     3    3    9 1   
     4    4   12 1   
     5    5   13 1   
     6    6   13 1   
     7    7    8 2   
     8    7   12 1   
     9    8    9 1   
    10    9   10 1   
    11    9   13 1   
    12   10   11 1   
    13   10   17 1   
    14   10   20 1   
    15   11   12 1   
    16   11   15 1   
    17   11   21 1   
    18   12   13 1   
    19   14   15 1   
    20   14   17 1   
    21   14   19 1   
    22   15   16 2   
    23   17   18 2   
    24   19   22 1   
    25   19   23 1   
    26   19   24 1   
@<TRIPOS>SUBSTRUCTURE
     1 ENH         1 TEMP              0 ****  ****    0 ROOT
