@<TRIPOS>MOLECULE
ENL
   21    21     1     0     0
SMALL
bcc


@<TRIPOS>ATOM
      1 O2         -1.6950    0.5420   -2.1560 o         1 ENL     -0.602000
      2 C8         -0.4360    0.5420   -2.1560 c1        1 ENL      0.355000
      3 O5          0.1940    0.5420   -3.2470 os        1 ENL     -0.597000
      4 C4          0.3800    0.5420   -0.7440 c3        1 ENL     -0.138000
      5 C6         -0.3430    1.2560    0.2140 c3        1 ENL      0.016000
      6 C5          0.1850    1.2790    1.4530 c3        1 ENL     -0.193000
      7 O1         -1.3540    0.0550    0.5340 os        1 ENL     -0.263000
      8 C3          0.5310   -0.7880   -0.2830 c3        1 ENL     -0.138000
      9 C7         -0.1660   -1.8170   -1.3460 c2        1 ENL      0.355000
     10 O4         -1.3960   -2.0710   -1.2630 o         1 ENL     -0.599500
     11 O3          0.5290   -2.3560   -2.2470 o         1 ENL     -0.599500
     12 C2         -0.1000   -0.8960    0.9510 c3        1 ENL      0.016000
     13 C1          0.3370   -0.0740    1.9080 c3        1 ENL     -0.193000
     14 H4          1.2580    0.9500   -0.8680 hc        1 ENL      0.053000
     15 H6         -0.7810    2.0740   -0.0890 h1        1 ENL      0.133000
     16 H5         -0.4100    1.7630    2.0560 hc        1 ENL      0.052000
     17 H5A         1.0570    1.7170    1.4310 hc        1 ENL      0.052000
     18 H3          1.4790   -1.0000   -0.1900 hc        1 ENL      0.053000
     19 H2         -0.3590   -1.7940    1.2310 h1        1 ENL      0.133000
     20 H1         -0.1880   -0.2080    2.7200 hc        1 ENL      0.052000
     21 H1A         1.2780   -0.2560    2.0910 hc        1 ENL      0.052000
@<TRIPOS>BOND
     1    1    2 1   
     2    2    4 1   
     3    4    5 1   
     4    4    8 1   
     5    4   14 1   
     6    5    6 1   
     7    5    7 1   
     8    5   15 1   
     9    6   13 1   
    10    6   16 1   
    11    6   17 1   
    12    7   12 1   
    13    8    9 1   
    14    8   12 1   
    15    8   18 1   
    16    9   10 1   
    17    9   11 1   
    18   12   13 1   
    19   12   19 1   
    20   13   20 1   
    21   13   21 1   
@<TRIPOS>SUBSTRUCTURE
     1 ENL         1 TEMP              0 ****  ****    0 ROOT
