@<TRIPOS>MOLECULE
ENL
   21    22     1     0     0
SMALL
bcc


@<TRIPOS>ATOM
      1 O2         -1.0470    2.1720    1.1130 o         1 ENL     -0.864800
      2 C8         -1.0960    1.6480   -0.0400 c         1 ENL      0.935600
      3 O5         -1.9960    1.9550   -0.8780 o         1 ENL     -0.864800
      4 C4          0.0780    0.7820   -0.5320 c3        1 ENL     -0.148700
      5 C6          1.3630    1.0930    0.2850 c3        1 ENL      0.127100
      6 C5          2.5880    0.7860   -0.6270 c3        1 ENL     -0.114400
      7 O1          1.4470   -0.0080    1.2280 os        1 ENL     -0.406600
      8 C3          0.0830   -0.7700   -0.5490 c3        1 ENL     -0.148700
      9 C7         -1.0860   -1.6540   -0.0750 c         1 ENL      0.935600
     10 O4         -1.0330   -2.2020    1.0670 o         1 ENL     -0.864800
     11 O3         -1.9830   -1.9490   -0.9190 o         1 ENL     -0.864800
     12 C2          1.3700   -1.0900    0.2620 c3        1 ENL      0.127100
     13 C1          2.5930   -0.7560   -0.6430 c3        1 ENL     -0.114400
     14 H4          0.2340    1.1150   -1.5970 hc        1 ENL      0.013700
     15 H6          1.3600    2.0460    0.8430 h1        1 ENL      0.093700
     16 H5          2.4620    1.2150   -1.6450 hc        1 ENL      0.012700
     17 H5A         3.5270    1.1870   -0.1820 hc        1 ENL      0.012700
     18 H3          0.2410   -1.0800   -1.6200 hc        1 ENL      0.013700
     19 H2          1.3730   -2.0550    0.8000 h1        1 ENL      0.093700
     20 H1          2.4700   -1.1640   -1.6710 hc        1 ENL      0.012700
     21 H1A         3.5350   -1.1610   -0.2060 hc        1 ENL      0.012700
@<TRIPOS>BOND
     1    1    2 1   
     2    2    3 1   
     3    2    4 1   
     4    4    5 1   
     5    4    8 1   
     6    4   14 1   
     7    5    6 1   
     8    5    7 1   
     9    5   15 1   
    10    6   13 1   
    11    6   16 1   
    12    6   17 1   
    13    7   12 1   
    14    8    9 1   
    15    8   12 1   
    16    8   18 1   
    17    9   10 1   
    18    9   11 1   
    19   12   13 1   
    20   12   19 1   
    21   13   20 1   
    22   13   21 1   
@<TRIPOS>SUBSTRUCTURE
     1 ENL         1 TEMP              0 ****  ****    0 ROOT
