@<TRIPOS>MOLECULE
ENL
   21    22     1     0     0
SMALL
bcc


@<TRIPOS>ATOM
      1 O2         -0.0040    0.7280   -0.1230 o         1 ENL     -0.864300
      2 C8          1.1980    0.3260   -0.1070 c         1 ENL      0.935600
      3 O5          1.9370    0.3830   -1.1350 o         1 ENL     -0.864300
      4 C4          1.8600   -0.0380    1.2340 c3        1 ENL     -0.148700
      5 C6          1.0890    0.6140    2.4160 c3        1 ENL      0.127100
      6 C5          2.1030    0.8290    3.5790 c3        1 ENL     -0.114400
      7 O1          0.2930   -0.4760    2.9520 os        1 ENL     -0.406600
      8 C3          2.0640   -1.4870    1.7520 c3        1 ENL     -0.148700
      9 C7          1.6320   -2.7560    0.9960 c         1 ENL      0.935600
     10 O4          0.5680   -3.3560    1.3350 o         1 ENL     -0.864300
     11 O3          2.4530   -3.2610    0.1720 o         1 ENL     -0.864300
     12 C2          1.3760   -1.4230    3.1450 c3        1 ENL      0.127100
     13 C1          2.3060   -0.6090    4.0940 c3        1 ENL     -0.114400
     14 H4          2.8840    0.4270    1.1670 hc        1 ENL      0.013700
     15 H6          0.4200    1.4530    2.1510 h1        1 ENL      0.093700
     16 H5          3.0530    1.2840    3.2200 hc        1 ENL      0.012700
     17 H5A         1.6690    1.4840    4.3700 hc        1 ENL      0.012700
     18 H3          3.1720   -1.6220    1.9000 hc        1 ENL      0.013700
     19 H2          0.9600   -2.3750    3.5210 h1        1 ENL      0.093700
     20 H1          1.9780   -0.7080    5.1540 hc        1 ENL      0.012700
     21 H1A         3.3660   -0.9370    4.0150 hc        1 ENL      0.012700
@<TRIPOS>BOND
     1    1    2 1   
     2    2    3 1   
     3    2    4 1   
     4    4    5 1   
     5    4    8 1   
     6    4   14 1   
     7    5    6 1   
     8    5    7 1   
     9    5   15 1   
    10    6   13 1   
    11    6   16 1   
    12    6   17 1   
    13    7   12 1   
    14    8    9 1   
    15    8   12 1   
    16    8   18 1   
    17    9   10 1   
    18    9   11 1   
    19   12   13 1   
    20   12   19 1   
    21   13   20 1   
    22   13   21 1   
@<TRIPOS>SUBSTRUCTURE
     1 ENL         1 TEMP              0 ****  ****    0 ROOT
