@<TRIPOS>MOLECULE
ENL
   21    22     1     0     0
SMALL
bcc


@<TRIPOS>ATOM
      1 O2         -0.0100    0.7240   -0.1210 o         1 ENL     -0.864800
      2 C8          1.1950    0.3280   -0.1060 c         1 ENL      0.935600
      3 O5          1.9340    0.3920   -1.1330 o         1 ENL     -0.864800
      4 C4          1.8590   -0.0360    1.2350 c3        1 ENL     -0.148700
      5 C6          1.0870    0.6120    2.4180 c3        1 ENL      0.127100
      6 C5          2.1000    0.8280    3.5810 c3        1 ENL     -0.114400
      7 O1          0.2930   -0.4800    2.9520 os        1 ENL     -0.406600
      8 C3          2.0670   -1.4850    1.7510 c3        1 ENL     -0.148700
      9 C7          1.6370   -2.7540    0.9920 c         1 ENL      0.935600
     10 O4          0.5760   -3.3590    1.3340 o         1 ENL     -0.864800
     11 O3          2.4560   -3.2540    0.1650 o         1 ENL     -0.864800
     12 C2          1.3790   -1.4250    3.1440 c3        1 ENL      0.127100
     13 C1          2.3070   -0.6110    4.0930 c3        1 ENL     -0.114400
     14 H4          2.8810    0.4310    1.1680 hc        1 ENL      0.013700
     15 H6          0.4160    1.4500    2.1550 h1        1 ENL      0.093700
     16 H5          1.6660    1.4800    4.3730 hc        1 ENL      0.012700
     17 H5A         3.0490    1.2860    3.2220 hc        1 ENL      0.012700
     18 H3          3.1750   -1.6180    1.8980 hc        1 ENL      0.013700
     19 H2          0.9650   -2.3790    3.5180 h1        1 ENL      0.093700
     20 H1          3.3680   -0.9360    4.0130 hc        1 ENL      0.012700
     21 H1A         1.9800   -0.7120    5.1540 hc        1 ENL      0.012700
@<TRIPOS>BOND
     1    1    2 1   
     2    2    3 1   
     3    2    4 1   
     4    4    5 1   
     5    4    8 1   
     6    4   14 1   
     7    5    6 1   
     8    5    7 1   
     9    5   15 1   
    10    6   13 1   
    11    6   16 1   
    12    6   17 1   
    13    7   12 1   
    14    8    9 1   
    15    8   12 1   
    16    8   18 1   
    17    9   10 1   
    18    9   11 1   
    19   12   13 1   
    20   12   19 1   
    21   13   20 1   
    22   13   21 1   
@<TRIPOS>SUBSTRUCTURE
     1 ENL         1 TEMP              0 ****  ****    0 ROOT
