@<TRIPOS>MOLECULE
ENM
   68    69     1     0     0
SMALL
bcc


@<TRIPOS>ATOM
      1 C23         2.2470    2.0620    3.7500 c1        1 ENM     -0.114500
      2 C24         3.4520    1.6050    4.2760 c1        1 ENM      0.119100
      3 F2          3.4510    0.6960    5.2660 f         1 ENM     -0.102100
      4 C25         4.6570    2.0920    3.7810 c1        1 ENM     -0.135000
      5 C26         4.6590    3.0360    2.7590 c1        1 ENM      0.119100
      6 F1          5.8210    3.5340    2.3080 f         1 ENM     -0.102100
      7 C27         3.4540    3.4930    2.2320 c1        1 ENM     -0.135000
      8 C22         2.2480    3.0060    2.7270 c1        1 ENM     -0.035100
      9 C21         0.9150    3.5940    2.2220 c3        1 ENM      0.134500
     10 O03         0.3760    2.7450    1.1880 os        1 ENM     -0.421600
     11 C20        -0.4000    3.4460    0.2080 c3        1 ENM      0.124400
     12 C19        -1.2390    2.4180   -0.6300 c3        1 ENM     -0.073400
     13 C12        -1.1700    0.8380   -0.7380 c3        1 ENM     -0.044000
     14 C13         0.5310    0.2930   -0.5270 c3        1 ENM     -0.086400
     15 C14         0.9420    0.9130   -0.8180 c3        1 ENM     -0.125400
     16 C10         0.1440   -0.7920    0.0260 c3        1 ENM     -0.105700
     17 C05        -0.1790   -1.6160   -0.8970 c3        1 ENM     -0.043000
     18 C18        -1.3120   -1.0610   -1.6870 c3        1 ENM     -0.093100
     19 C06         1.1240   -1.8590   -1.8910 c3        1 ENM     -0.069400
     20 C01         0.7420   -2.7420   -3.0130 c3        1 ENM     -0.181400
     21 C02         0.4240   -3.1460   -1.5970 c         1 ENM      0.570100
     22 O02         1.1330   -2.7590   -0.6820 o         1 ENM     -0.535100
     23 C03        -0.5850   -4.1370   -1.3500 c3        1 ENM     -0.178400
     24 C04        -0.6120   -2.9890   -0.2490 c3        1 ENM     -0.049700
     25 C07        -1.8960   -2.8700    0.2600 c3        1 ENM     -0.070400
     26 C08        -1.9080   -1.8650    1.3350 c3        1 ENM     -0.076400
     27 C09        -1.0810   -0.4430    0.8790 c3        1 ENM     -0.042700
     28 C11        -1.8690    0.3240    0.1720 c3        1 ENM     -0.062700
     29 C15        -3.1220   -0.6270   -0.5430 c3        1 ENM     -0.082400
     30 C16        -2.9280   -0.5180   -1.9520 c3        1 ENM     -0.116400
     31 C17        -1.7120    0.3810   -2.1470 c3        1 ENM      0.148100
     32 O01        -0.7330   -0.3070   -2.8140 oh        1 ENM     -0.596800
     33 H23         1.3980    1.7180    4.0990 ha        1 ENM      0.109500
     34 H25         5.5070    1.7700    4.1520 ha        1 ENM      0.102500
     35 H27         3.4550    4.1590    1.5110 ha        1 ENM      0.102500
     36 H211        0.2760    3.6470    2.9700 h1        1 ENM      0.063200
     37 H212        1.0710    4.4950    1.8590 h1        1 ENM      0.063200
     38 H201       -1.0090    4.0750    0.6600 h1        1 ENM      0.036700
     39 H202        0.2010    3.9440   -0.3910 h1        1 ENM      0.036700
     40 H191       -0.3710    2.3210   -1.0720 hc        1 ENM      0.059200
     41 H192       -1.5390    2.1790    0.2690 hc        1 ENM      0.059200
     42 H131        0.7050   -0.5150   -1.0480 hc        1 ENM      0.066700
     43 H132        0.7390    0.1500    0.4280 hc        1 ENM      0.066700
     44 H141        1.5870    0.6280   -1.5100 hc        1 ENM      0.079700
     45 H142        1.4130    1.4040   -0.1040 hc        1 ENM      0.079700
     46 H10         0.8280   -1.2130    0.6060 hc        1 ENM      0.037700
     47 H181       -1.3430   -0.1040   -1.5750 hc        1 ENM      0.037367
     48 H182       -1.1840   -1.2780   -2.6440 hc        1 ENM      0.037367
     49 H183       -2.1510   -1.4540   -1.3730 hc        1 ENM      0.037367
     50 H061        1.4300   -0.9940   -2.2460 hc        1 ENM      0.048200
     51 H062        1.8540   -2.2790   -1.3780 hc        1 ENM      0.048200
     52 H011        0.0230   -2.4570   -3.6160 hc        1 ENM      0.069700
     53 H012        1.4290   -3.2320   -3.5240 hc        1 ENM      0.069700
     54 H031       -1.3380   -4.1350   -1.9810 hc        1 ENM      0.070700
     55 H032       -0.3570   -5.0700   -1.1240 hc        1 ENM      0.070700
     56 H04         0.0110   -3.2190    0.4820 hc        1 ENM      0.056700
     57 H071       -2.5030   -2.5920   -0.4530 hc        1 ENM      0.043200
     58 H072       -2.1890   -3.7420    0.6210 hc        1 ENM      0.043200
     59 H081       -1.4750   -2.2450    2.1360 hc        1 ENM      0.044700
     60 H082       -2.8430   -1.6370    1.5520 hc        1 ENM      0.044700
     61 H09        -0.7900    0.0410    1.6870 hc        1 ENM      0.034700
     62 H11        -2.2590    1.0290    0.7420 hc        1 ENM      0.061700
     63 H151       -3.0410   -1.5590   -0.2620 hc        1 ENM      0.048200
     64 H152       -4.0100   -0.2690   -0.2910 hc        1 ENM      0.048200
     65 H161       -2.7580   -1.4080   -2.3410 hc        1 ENM      0.052700
     66 H162       -3.7230   -0.1090   -2.3740 hc        1 ENM      0.052700
     67 H17        -1.9720    1.1770   -2.6730 h1        1 ENM      0.074700
     68 HO01       -0.6420    0.0290   -3.6440 ho        1 ENM      0.404000
@<TRIPOS>BOND
     1    1    8 3   
     2    1   33 1   
     3    2    3 1   
     4    2    4 3   
     5    4   34 1   
     6    5    6 1   
     7    5    7 3   
     8    7   35 1   
     9    8    9 1   
    10    9   10 1   
    11    9   36 1   
    12    9   37 1   
    13   10   11 1   
    14   11   12 1   
    15   11   38 1   
    16   11   39 1   
    17   12   13 1   
    18   12   40 1   
    19   12   41 1   
    20   13   14 1   
    21   13   28 1   
    22   13   31 1   
    23   14   15 1   
    24   14   42 1   
    25   14   43 1   
    26   15   16 1   
    27   15   44 1   
    28   15   45 1   
    29   16   17 1   
    30   16   27 1   
    31   16   46 1   
    32   17   18 1   
    33   17   19 1   
    34   17   24 1   
    35   18   47 1   
    36   18   48 1   
    37   18   49 1   
    38   19   20 1   
    39   19   50 1   
    40   19   51 1   
    41   20   21 1   
    42   20   52 1   
    43   20   53 1   
    44   21   22 2   
    45   21   23 1   
    46   23   24 1   
    47   23   54 1   
    48   23   55 1   
    49   24   25 1   
    50   24   56 1   
    51   25   26 1   
    52   25   57 1   
    53   25   58 1   
    54   26   27 1   
    55   26   59 1   
    56   26   60 1   
    57   27   28 1   
    58   27   61 1   
    59   28   29 1   
    60   28   62 1   
    61   29   30 1   
    62   29   63 1   
    63   29   64 1   
    64   30   31 1   
    65   30   65 1   
    66   30   66 1   
    67   31   32 1   
    68   31   67 1   
    69   32   68 1   
@<TRIPOS>SUBSTRUCTURE
     1 ENM         1 TEMP              0 ****  ****    0 ROOT
