@<TRIPOS>MOLECULE
ENM
   68    72     1     0     0
SMALL
bcc


@<TRIPOS>ATOM
      1 C23         0.0610   -0.8130    0.3150 ca        1 ENM     -0.171000
      2 C24         1.4050   -0.7120   -0.0920 ca        1 ENM      0.150400
      3 F2          1.9990   -1.7630   -0.7070 f         1 ENM     -0.136400
      4 C25         2.1400    0.4630    0.1280 ca        1 ENM     -0.209000
      5 C26         1.5060    1.5420    0.7680 ca        1 ENM      0.150400
      6 F1          2.2000    2.6850    0.9890 f         1 ENM     -0.136400
      7 C27         0.1660    1.4500    1.1790 ca        1 ENM     -0.171000
      8 C22        -0.5470    0.2700    0.9480 ca        1 ENM     -0.033300
      9 C21        -1.9740    0.2180    1.3900 c3        1 ENM      0.172700
     10 O03        -2.4660   -1.1100    1.2300 os        1 ENM     -0.429600
     11 C20        -3.8250   -1.2280    1.6640 c3        1 ENM      0.131400
     12 C19        -4.2560   -2.6370    1.2910 c3        1 ENM     -0.061400
     13 C12        -5.7430   -2.9040    1.5110 c3        1 ENM     -0.039000
     14 C13        -6.2210   -2.4220    2.8700 c3        1 ENM     -0.066400
     15 C14        -5.5380   -3.2110    3.9770 c3        1 ENM     -0.077400
     16 C10        -5.7550   -4.7160    3.8590 c3        1 ENM     -0.048700
     17 C05        -5.0590   -5.5150    4.9820 c3        1 ENM     -0.039000
     18 C18        -3.5530   -5.3090    4.9600 c3        1 ENM     -0.087100
     19 C06        -5.6070   -5.0620    6.3410 c3        1 ENM     -0.068400
     20 C01        -5.1300   -5.9150    7.4970 c3        1 ENM     -0.182400
     21 C02        -5.3090   -7.3860    7.2550 c         1 ENM      0.571100
     22 O02        -5.7360   -8.1460    8.1300 o         1 ENM     -0.534100
     23 C03        -4.9020   -7.8830    5.8970 c3        1 ENM     -0.179400
     24 C04        -5.4480   -6.9950    4.7950 c3        1 ENM     -0.050700
     25 C07        -5.0340   -7.5230    3.4320 c3        1 ENM     -0.073400
     26 C08        -5.6820   -6.7130    2.3300 c3        1 ENM     -0.074400
     27 C09        -5.3470   -5.2360    2.4690 c3        1 ENM     -0.048700
     28 C11        -6.0880   -4.4170    1.4330 c3        1 ENM     -0.066700
     29 C15        -5.9380   -4.7560   -0.0440 c3        1 ENM     -0.070400
     30 C16        -6.4190   -3.4980   -0.7710 c3        1 ENM     -0.119400
     31 C17        -6.5630   -2.3910    0.2970 c3        1 ENM      0.141100
     32 O01        -6.0770   -1.1410   -0.1510 oh        1 ENM     -0.596800
     33 H23        -0.5010   -1.7420    0.1360 ha        1 ENM      0.162500
     34 H25         3.1880    0.5390   -0.1920 ha        1 ENM      0.164000
     35 H27        -0.3090    2.3060    1.6800 ha        1 ENM      0.162500
     36 H211       -2.0550    0.5200    2.4700 h1        1 ENM      0.042700
     37 H212       -2.5910    0.9230    0.7660 h1        1 ENM      0.042700
     38 H201       -4.4580   -0.4530    1.1560 h1        1 ENM      0.040700
     39 H202       -3.8600   -1.0690    2.7760 h1        1 ENM      0.040700
     40 H191       -3.6360   -3.3540    1.8880 hc        1 ENM      0.056200
     41 H192       -4.0150   -2.8060    0.2070 hc        1 ENM      0.056200
     42 H131       -7.3320   -2.5550    2.9440 hc        1 ENM      0.045200
     43 H132       -6.0100   -1.3290    2.9960 hc        1 ENM      0.045200
     44 H141       -4.4390   -2.9850    3.9630 hc        1 ENM      0.045200
     45 H142       -5.9450   -2.8570    4.9600 hc        1 ENM      0.045200
     46 H10        -6.8640   -4.9000    3.9700 hc        1 ENM      0.045700
     47 H181       -3.0560   -5.9490    5.7280 hc        1 ENM      0.037700
     48 H182       -3.1220   -5.5660    3.9630 hc        1 ENM      0.037700
     49 H183       -3.3050   -4.2430    5.1870 hc        1 ENM      0.037700
     50 H061       -5.2900   -4.0040    6.5370 hc        1 ENM      0.047700
     51 H062       -6.7280   -5.0790    6.3060 hc        1 ENM      0.047700
     52 H011       -4.0360   -5.7350    7.6820 hc        1 ENM      0.070200
     53 H012       -5.6800   -5.6190    8.4300 hc        1 ENM      0.070200
     54 H031       -3.7800   -7.9200    5.8560 hc        1 ENM      0.070700
     55 H032       -5.2750   -8.9320    5.7520 hc        1 ENM      0.070700
     56 H04        -6.5760   -7.0440    4.8510 hc        1 ENM      0.052700
     57 H071       -3.9180   -7.4890    3.3300 hc        1 ENM      0.044700
     58 H072       -5.3460   -8.5970    3.3400 hc        1 ENM      0.044700
     59 H081       -6.7940   -6.8540    2.3620 hc        1 ENM      0.043200
     60 H082       -5.3260   -7.0790    1.3310 hc        1 ENM      0.043200
     61 H09        -4.2380   -5.1190    2.3320 hc        1 ENM      0.059700
     62 H11        -7.1890   -4.5140    1.6750 hc        1 ENM      0.046700
     63 H151       -4.8710   -4.9780   -0.2950 hc        1 ENM      0.047700
     64 H152       -6.5480   -5.6490   -0.3200 hc        1 ENM      0.047700
     65 H161       -7.4010   -3.6780   -1.2720 hc        1 ENM      0.049700
     66 H162       -5.6820   -3.1850   -1.5510 hc        1 ENM      0.049700
     67 H17        -7.6420   -2.2750    0.5960 h1        1 ENM      0.035700
     68 HO01       -6.5250   -0.9560   -0.9860 ho        1 ENM      0.402000
@<TRIPOS>BOND
     1    1    2 ar  
     2    1    8 ar  
     3    1   33 1   
     4    2    3 1   
     5    2    4 ar  
     6    4    5 ar  
     7    4   34 1   
     8    5    6 1   
     9    5    7 ar  
    10    7    8 ar  
    11    7   35 1   
    12    8    9 1   
    13    9   10 1   
    14    9   36 1   
    15    9   37 1   
    16   10   11 1   
    17   11   12 1   
    18   11   38 1   
    19   11   39 1   
    20   12   13 1   
    21   12   40 1   
    22   12   41 1   
    23   13   14 1   
    24   13   28 1   
    25   13   31 1   
    26   14   15 1   
    27   14   42 1   
    28   14   43 1   
    29   15   16 1   
    30   15   44 1   
    31   15   45 1   
    32   16   17 1   
    33   16   27 1   
    34   16   46 1   
    35   17   18 1   
    36   17   19 1   
    37   17   24 1   
    38   18   47 1   
    39   18   48 1   
    40   18   49 1   
    41   19   20 1   
    42   19   50 1   
    43   19   51 1   
    44   20   21 1   
    45   20   52 1   
    46   20   53 1   
    47   21   22 2   
    48   21   23 1   
    49   23   24 1   
    50   23   54 1   
    51   23   55 1   
    52   24   25 1   
    53   24   56 1   
    54   25   26 1   
    55   25   57 1   
    56   25   58 1   
    57   26   27 1   
    58   26   59 1   
    59   26   60 1   
    60   27   28 1   
    61   27   61 1   
    62   28   29 1   
    63   28   62 1   
    64   29   30 1   
    65   29   63 1   
    66   29   64 1   
    67   30   31 1   
    68   30   65 1   
    69   30   66 1   
    70   31   32 1   
    71   31   67 1   
    72   32   68 1   
@<TRIPOS>SUBSTRUCTURE
     1 ENM         1 TEMP              0 ****  ****    0 ROOT
