@<TRIPOS>MOLECULE
ENM
   68    72     1     0     0
SMALL
bcc


@<TRIPOS>ATOM
      1 C23         0.0670   -0.8160    0.3330 ca        1 ENM     -0.171000
      2 C24         1.4140   -0.7110   -0.0610 ca        1 ENM      0.150400
      3 F2          2.0270   -1.7700   -0.6430 f         1 ENM     -0.136400
      4 C25         2.1340    0.4780    0.1380 ca        1 ENM     -0.209000
      5 C26         1.4810    1.5650    0.7430 ca        1 ENM      0.150400
      6 F1          2.1590    2.7210    0.9450 f         1 ENM     -0.136400
      7 C27         0.1380    1.4690    1.1420 ca        1 ENM     -0.171000
      8 C22        -0.5600    0.2750    0.9320 ca        1 ENM     -0.033300
      9 C21        -1.9920    0.2180    1.3590 c3        1 ENM      0.172700
     10 O03        -2.4710   -1.1160    1.2130 os        1 ENM     -0.429600
     11 C20        -3.8340   -1.2380    1.6380 c3        1 ENM      0.131400
     12 C19        -4.2510   -2.6550    1.2790 c3        1 ENM     -0.061400
     13 C12        -5.7370   -2.9300    1.4900 c3        1 ENM     -0.039000
     14 C13        -6.2290   -2.4360    2.8390 c3        1 ENM     -0.066400
     15 C14        -5.5500   -3.2070    3.9620 c3        1 ENM     -0.077400
     16 C10        -5.7540   -4.7140    3.8610 c3        1 ENM     -0.048700
     17 C05        -5.0610   -5.4940    4.9980 c3        1 ENM     -0.039000
     18 C18        -3.5570   -5.2760    4.9850 c3        1 ENM     -0.087100
     19 C06        -5.6230   -5.0290    6.3480 c3        1 ENM     -0.068400
     20 C01        -5.1490   -5.8640    7.5170 c3        1 ENM     -0.182400
     21 C02        -5.3150   -7.3390    7.2920 c         1 ENM      0.571100
     22 O02        -5.7430   -8.0920    8.1730 o         1 ENM     -0.534100
     23 C03        -4.8930   -7.8500    5.9440 c3        1 ENM     -0.179400
     24 C04        -5.4370   -6.9790    4.8260 c3        1 ENM     -0.050700
     25 C07        -5.0080   -7.5210    3.4730 c3        1 ENM     -0.073400
     26 C08        -5.6530   -6.7290    2.3560 c3        1 ENM     -0.074400
     27 C09        -5.3320   -5.2480    2.4800 c3        1 ENM     -0.048700
     28 C11        -6.0700   -4.4470    1.4280 c3        1 ENM     -0.066700
     29 C15        -5.9050   -4.8030   -0.0430 c3        1 ENM     -0.070400
     30 C16        -6.3910   -3.5580   -0.7890 c3        1 ENM     -0.119400
     31 C17        -6.5510   -2.4390    0.2640 c3        1 ENM      0.141100
     32 O01        -6.0710   -1.1910   -0.1960 oh        1 ENM     -0.596800
     33 H23        -0.4840   -1.7560    0.1700 ha        1 ENM      0.162500
     34 H25         3.1850    0.5570   -0.1720 ha        1 ENM      0.164000
     35 H27        -0.3530    2.3310    1.6150 ha        1 ENM      0.162500
     36 H211       -2.0860    0.5360    2.4340 h1        1 ENM      0.042700
     37 H212       -2.6070    0.9100    0.7190 h1        1 ENM      0.042700
     38 H201       -4.4680   -0.4750    1.1150 h1        1 ENM      0.040700
     39 H202       -3.8790   -1.0660    2.7470 h1        1 ENM      0.040700
     40 H191       -3.6300   -3.3600    1.8890 hc        1 ENM      0.056200
     41 H192       -4.0000   -2.8360    0.1990 hc        1 ENM      0.056200
     42 H131       -7.3410   -2.5770    2.9060 hc        1 ENM      0.045200
     43 H132       -6.0280   -1.3400    2.9540 hc        1 ENM      0.045200
     44 H141       -4.4530   -2.9720    3.9530 hc        1 ENM      0.045200
     45 H142       -5.9680   -2.8430    4.9370 hc        1 ENM      0.045200
     46 H10        -6.8620   -4.9060    3.9650 hc        1 ENM      0.045700
     47 H181       -3.0610   -5.9030    5.7650 hc        1 ENM      0.037700
     48 H182       -3.1160   -5.5430    3.9950 hc        1 ENM      0.037700
     49 H183       -3.3180   -4.2060    5.2020 hc        1 ENM      0.037700
     50 H061       -6.7440   -5.0540    6.3030 hc        1 ENM      0.047700
     51 H062       -5.3160   -3.9660    6.5330 hc        1 ENM      0.047700
     52 H011       -4.0580   -5.6730    7.7090 hc        1 ENM      0.070200
     53 H012       -5.7090   -5.5610    8.4420 hc        1 ENM      0.070200
     54 H031       -3.7710   -7.8780    5.9120 hc        1 ENM      0.070700
     55 H032       -5.2570   -8.9030    5.8090 hc        1 ENM      0.070700
     56 H04        -6.5650   -7.0360    4.8740 hc        1 ENM      0.052700
     57 H071       -5.3110   -8.5980    3.3920 hc        1 ENM      0.044700
     58 H072       -3.8920   -7.4790    3.3800 hc        1 ENM      0.044700
     59 H081       -6.7650   -6.8780    2.3820 hc        1 ENM      0.043200
     60 H082       -5.2870   -7.1040    1.3650 hc        1 ENM      0.043200
     61 H09        -4.2220   -5.1240    2.3500 hc        1 ENM      0.059700
     62 H11        -7.1730   -4.5500    1.6620 hc        1 ENM      0.046700
     63 H151       -4.8350   -5.0200   -0.2830 hc        1 ENM      0.047700
     64 H152       -6.5070   -5.7050   -0.3130 hc        1 ENM      0.047700
     65 H161       -7.3670   -3.7520   -1.2960 hc        1 ENM      0.049700
     66 H162       -5.6500   -3.2490   -1.5670 hc        1 ENM      0.049700
     67 H17        -7.6340   -2.3280    0.5530 h1        1 ENM      0.035700
     68 HO01       -6.5140   -1.0200   -1.0360 ho        1 ENM      0.402000
@<TRIPOS>BOND
     1    1    2 ar  
     2    1    8 ar  
     3    1   33 1   
     4    2    3 1   
     5    2    4 ar  
     6    4    5 ar  
     7    4   34 1   
     8    5    6 1   
     9    5    7 ar  
    10    7    8 ar  
    11    7   35 1   
    12    8    9 1   
    13    9   10 1   
    14    9   36 1   
    15    9   37 1   
    16   10   11 1   
    17   11   12 1   
    18   11   38 1   
    19   11   39 1   
    20   12   13 1   
    21   12   40 1   
    22   12   41 1   
    23   13   14 1   
    24   13   28 1   
    25   13   31 1   
    26   14   15 1   
    27   14   42 1   
    28   14   43 1   
    29   15   16 1   
    30   15   44 1   
    31   15   45 1   
    32   16   17 1   
    33   16   27 1   
    34   16   46 1   
    35   17   18 1   
    36   17   19 1   
    37   17   24 1   
    38   18   47 1   
    39   18   48 1   
    40   18   49 1   
    41   19   20 1   
    42   19   50 1   
    43   19   51 1   
    44   20   21 1   
    45   20   52 1   
    46   20   53 1   
    47   21   22 2   
    48   21   23 1   
    49   23   24 1   
    50   23   54 1   
    51   23   55 1   
    52   24   25 1   
    53   24   56 1   
    54   25   26 1   
    55   25   57 1   
    56   25   58 1   
    57   26   27 1   
    58   26   59 1   
    59   26   60 1   
    60   27   28 1   
    61   27   61 1   
    62   28   29 1   
    63   28   62 1   
    64   29   30 1   
    65   29   63 1   
    66   29   64 1   
    67   30   31 1   
    68   30   65 1   
    69   30   66 1   
    70   31   32 1   
    71   31   67 1   
    72   32   68 1   
@<TRIPOS>SUBSTRUCTURE
     1 ENM         1 TEMP              0 ****  ****    0 ROOT
