@<TRIPOS>MOLECULE
ENM
   68    72     1     0     0
SMALL
bcc


@<TRIPOS>ATOM
      1 C23         4.7670    0.2330    0.8560 ca        1 ENM     -0.171000
      2 C24         5.8640    0.7720    1.5560 ca        1 ENM      0.150400
      3 F2          5.8210    0.8520    2.9070 f         1 ENM     -0.136400
      4 C25         7.0030    1.2270    0.8730 ca        1 ENM     -0.209000
      5 C26         7.0270    1.1350   -0.5290 ca        1 ENM      0.150400
      6 F1          8.1180    1.5700   -1.2050 f         1 ENM     -0.136400
      7 C27         5.9370    0.6010   -1.2360 ca        1 ENM     -0.171000
      8 C22         4.8130    0.1530   -0.5350 ca        1 ENM     -0.033300
      9 C21         3.6800   -0.4200   -1.3240 c3        1 ENM      0.172700
     10 O03         2.5790   -0.6640   -0.4540 os        1 ENM     -0.429600
     11 C20         1.4500   -1.1870   -1.1620 c3        1 ENM      0.131400
     12 C19         0.4250   -1.5430   -0.0970 c3        1 ENM     -0.061400
     13 C12        -0.7920   -2.2870   -0.6400 c3        1 ENM     -0.039000
     14 C13        -1.3600   -1.6330   -1.8870 c3        1 ENM     -0.066400
     15 C14        -1.8940   -0.2470   -1.5580 c3        1 ENM     -0.077400
     16 C10        -2.9500   -0.2600   -0.4590 c3        1 ENM     -0.048700
     17 C05        -3.4880    1.1480   -0.1240 c3        1 ENM     -0.039000
     18 C18        -2.3810    2.0630    0.3730 c3        1 ENM     -0.087100
     19 C06        -4.1190    1.7620   -1.3800 c3        1 ENM     -0.068400
     20 C01        -4.8470    3.0620   -1.1150 c3        1 ENM     -0.182400
     21 C02        -5.8050    2.9750    0.0380 c         1 ENM      0.571100
     22 O02        -6.9340    3.4730   -0.0100 o         1 ENM     -0.534100
     23 C03        -5.2930    2.2800    1.2670 c3        1 ENM     -0.179400
     24 C04        -4.6090    0.9700    0.9180 c3        1 ENM     -0.050700
     25 C07        -4.1110    0.2790    2.1770 c3        1 ENM     -0.073400
     26 C08        -3.5440   -1.0840    1.8440 c3        1 ENM     -0.074400
     27 C09        -2.4390   -0.9760    0.8040 c3        1 ENM     -0.048700
     28 C11        -1.9530   -2.3500    0.3920 c3        1 ENM     -0.066700
     29 C15        -1.4540   -3.3220    1.4530 c3        1 ENM     -0.070400
     30 C16        -0.6500   -4.3600    0.6650 c3        1 ENM     -0.119400
     31 C17        -0.4790   -3.8020   -0.7660 c3        1 ENM      0.141100
     32 O01         0.8240   -4.0100   -1.2750 oh        1 ENM     -0.596800
     33 H23         3.8800   -0.1190    1.4060 ha        1 ENM      0.162500
     34 H25         7.8570    1.6460    1.4220 ha        1 ENM      0.164000
     35 H27         5.9770    0.5400   -2.3330 ha        1 ENM      0.162500
     36 H211        3.3700    0.3000   -2.1310 h1        1 ENM      0.042700
     37 H212        4.0010   -1.3880   -1.8020 h1        1 ENM      0.042700
     38 H201        1.0620   -0.3920   -1.8550 h1        1 ENM      0.040700
     39 H202        1.7550   -2.0860   -1.7590 h1        1 ENM      0.040700
     40 H191        0.9250   -2.1840    0.6770 hc        1 ENM      0.056200
     41 H192        0.1110   -0.5930    0.4070 hc        1 ENM      0.056200
     42 H131       -0.5760   -1.5600   -2.6840 hc        1 ENM      0.045200
     43 H132       -2.1890   -2.2680   -2.2980 hc        1 ENM      0.045200
     44 H141       -1.0380    0.4110   -1.2540 hc        1 ENM      0.045200
     45 H142       -2.3400    0.1860   -2.4920 hc        1 ENM      0.045200
     46 H10        -3.8260   -0.8580   -0.8470 hc        1 ENM      0.045700
     47 H181       -1.6330    2.2410   -0.4380 hc        1 ENM      0.037700
     48 H182       -2.7960    3.0530    0.6810 hc        1 ENM      0.037700
     49 H183       -1.8520    1.6210    1.2500 hc        1 ENM      0.037700
     50 H061       -3.3180    1.9600   -2.1400 hc        1 ENM      0.047700
     51 H062       -4.8340    1.0210   -1.8270 hc        1 ENM      0.047700
     52 H011       -4.1070    3.8740   -0.8770 hc        1 ENM      0.070200
     53 H012       -5.4010    3.3740   -2.0400 hc        1 ENM      0.070200
     54 H031       -4.5800    2.9690    1.7930 hc        1 ENM      0.070700
     55 H032       -6.1450    2.0810    1.9710 hc        1 ENM      0.070700
     56 H04        -5.3880    0.2990    0.4480 hc        1 ENM      0.052700
     57 H071       -3.3310    0.9100    2.6770 hc        1 ENM      0.044700
     58 H072       -4.9620    0.1640    2.8980 hc        1 ENM      0.044700
     59 H081       -3.1310   -1.5600    2.7720 hc        1 ENM      0.043200
     60 H082       -4.3610   -1.7490    1.4600 hc        1 ENM      0.043200
     61 H09        -1.5950   -0.3890    1.2570 hc        1 ENM      0.059700
     62 H11        -2.8230   -2.8570   -0.1250 hc        1 ENM      0.046700
     63 H151       -0.8070   -2.7990    2.2000 hc        1 ENM      0.047700
     64 H152       -2.3040   -3.7930    2.0030 hc        1 ENM      0.047700
     65 H161        0.3510   -4.5240    1.1340 hc        1 ENM      0.049700
     66 H162       -1.1840   -5.3400    0.6350 hc        1 ENM      0.049700
     67 H17        -1.2220   -4.2820   -1.4620 h1        1 ENM      0.035700
     68 HO01        1.0050   -4.9530   -1.1860 ho        1 ENM      0.402000
@<TRIPOS>BOND
     1    1    2 ar  
     2    1    8 ar  
     3    1   33 1   
     4    2    3 1   
     5    2    4 ar  
     6    4    5 ar  
     7    4   34 1   
     8    5    6 1   
     9    5    7 ar  
    10    7    8 ar  
    11    7   35 1   
    12    8    9 1   
    13    9   10 1   
    14    9   36 1   
    15    9   37 1   
    16   10   11 1   
    17   11   12 1   
    18   11   38 1   
    19   11   39 1   
    20   12   13 1   
    21   12   40 1   
    22   12   41 1   
    23   13   14 1   
    24   13   28 1   
    25   13   31 1   
    26   14   15 1   
    27   14   42 1   
    28   14   43 1   
    29   15   16 1   
    30   15   44 1   
    31   15   45 1   
    32   16   17 1   
    33   16   27 1   
    34   16   46 1   
    35   17   18 1   
    36   17   19 1   
    37   17   24 1   
    38   18   47 1   
    39   18   48 1   
    40   18   49 1   
    41   19   20 1   
    42   19   50 1   
    43   19   51 1   
    44   20   21 1   
    45   20   52 1   
    46   20   53 1   
    47   21   22 2   
    48   21   23 1   
    49   23   24 1   
    50   23   54 1   
    51   23   55 1   
    52   24   25 1   
    53   24   56 1   
    54   25   26 1   
    55   25   57 1   
    56   25   58 1   
    57   26   27 1   
    58   26   59 1   
    59   26   60 1   
    60   27   28 1   
    61   27   61 1   
    62   28   29 1   
    63   28   62 1   
    64   29   30 1   
    65   29   63 1   
    66   29   64 1   
    67   30   31 1   
    68   30   65 1   
    69   30   66 1   
    70   31   32 1   
    71   31   67 1   
    72   32   68 1   
@<TRIPOS>SUBSTRUCTURE
     1 ENM         1 TEMP              0 ****  ****    0 ROOT
