@<TRIPOS>MOLECULE
ENO
   20    18     1     0     0
SMALL
bcc


@<TRIPOS>ATOM
      1 O4         -0.3510    0.6250   -1.5280 o         1 ENO     -0.394000
      2 C9          1.4310    0.7180   -3.7800 c2        1 ENO     -0.202000
      3 C8         -4.0980    1.7320   -3.0720 c1        1 ENO      0.074000
      4 C7         -2.8440    1.3360   -2.9020 c2        1 ENO     -0.286000
      5 C6          2.8830   -2.4330   -4.2710 c1        1 ENO     -0.248000
      6 C5          2.4180   -1.4720   -3.7290 c1        1 ENO     -0.101000
      7 C4          1.8690   -0.3410   -3.0810 c2        1 ENO     -0.002000
      8 C3          1.8380   -0.3980   -1.5910 c3        1 ENO     -0.200000
      9 C2          0.6190    0.1680   -0.9090 c2        1 ENO      0.199000
     10 C1          0.7190    0.1280    0.6300 c2        1 ENO      0.327000
     11 O2          0.1940   -0.8560    1.2080 o         1 ENO     -0.536500
     12 O1          1.3540    1.0700    1.1710 o         1 ENO     -0.536500
     13 H9          1.4630    0.7580   -4.8750 ha        1 ENO      0.121500
     14 H8          0.9970    1.5940   -3.2780 ha        1 ENO      0.121500
     15 H6         -2.4770    1.1960   -1.8570 h4        1 ENO      0.212000
     16 H5          3.2920   -3.2870   -4.7440 ha        1 ENO      0.212000
     17 HO3        -1.1150    0.7910   -3.4850 ho        1 ENO      0.250000
     18 H31         1.9350   -1.4610   -1.2380 hc        1 ENO      0.124500
     19 H32         2.7230    0.1690   -1.1850 hc        1 ENO      0.124500
     20 O3         -1.9420    1.0820   -3.9100 oh        1 ENO     -0.260000
@<TRIPOS>BOND
     1    1    9 1   
     2    2    7 1   
     3    2   13 1   
     4    2   14 1   
     5    3    4 1   
     6    4   15 1   
     7    4   20 1   
     8    5    6 1   
     9    5   16 1   
    10    6    7 1   
    11    7    8 1   
    12    8    9 1   
    13    8   18 1   
    14    8   19 1   
    15    9   10 1   
    16   10   11 1   
    17   10   12 1   
    18   17   20 1   
@<TRIPOS>SUBSTRUCTURE
     1 ENO         1 TEMP              0 ****  ****    0 ROOT
