@<TRIPOS>MOLECULE
ENO
   20    20     1     0     0
SMALL
bcc


@<TRIPOS>ATOM
      1 O4          1.2250    1.0150    1.4440 o         1 ENO     -0.588100
      2 C9         -0.8060   -1.2720   -1.3540 ca        1 ENO     -0.092000
      3 C8         -0.5810   -1.2570   -2.7280 ca        1 ENO     -0.190500
      4 C7         -0.0430   -0.1030   -3.3150 ca        1 ENO      0.093100
      5 C6          0.2700    1.0180   -2.5360 ca        1 ENO     -0.190500
      6 C5          0.0360    0.9840   -1.1640 ca        1 ENO     -0.092000
      7 C4         -0.5080   -0.1570   -0.5580 ca        1 ENO     -0.072300
      8 C3         -0.8010   -0.1890    0.8960 c3        1 ENO     -0.163100
      9 C2          0.2240    0.4060    1.8330 c         1 ENO      0.471100
     10 C1         -0.1450    0.1820    3.3120 c         1 ENO      0.855600
     11 O2          0.2340   -0.8960    3.8400 o         1 ENO     -0.810800
     12 O1         -0.8380    1.0770    3.8630 o         1 ENO     -0.810800
     13 H9         -1.2210   -2.1770   -0.8860 ha        1 ENO      0.146000
     14 H8         -0.8140   -2.1290   -3.3530 ha        1 ENO      0.126500
     15 H6          0.7030    1.9130   -3.0020 ha        1 ENO      0.126500
     16 H5          0.3050    1.8480   -0.5340 ha        1 ENO      0.146000
     17 HO3         0.5740    0.7000   -4.9320 ho        1 ENO      0.407000
     18 H31        -0.9630   -1.2490    1.2360 hc        1 ENO      0.077200
     19 H32        -1.7600    0.3720    1.0870 hc        1 ENO      0.077200
     20 O3          0.1540   -0.1350   -4.6830 oh        1 ENO     -0.516100
@<TRIPOS>BOND
     1    1    9 2   
     2    2    3 ar  
     3    2    7 ar  
     4    2   13 1   
     5    3    4 ar  
     6    3   14 1   
     7    4    5 ar  
     8    4   20 1   
     9    5    6 ar  
    10    5   15 1   
    11    6    7 ar  
    12    6   16 1   
    13    7    8 1   
    14    8    9 1   
    15    8   18 1   
    16    8   19 1   
    17    9   10 1   
    18   10   11 1   
    19   10   12 1   
    20   17   20 1   
@<TRIPOS>SUBSTRUCTURE
     1 ENO         1 TEMP              0 ****  ****    0 ROOT
