@<TRIPOS>MOLECULE
ENO
   20    17     1     0     0
SMALL
bcc


@<TRIPOS>ATOM
      1 O4          2.4280    0.2000    0.3280 o         1 ENO     -0.588100
      2 C9         -0.8400    0.9200   -0.5100 c1        1 ENO     -0.051500
      3 C8         -1.5260    0.5540   -1.6630 c1        1 ENO     -0.108500
      4 C7         -1.6530   -0.8050   -2.0020 c1        1 ENO      0.076600
      5 C6         -1.0990   -1.7710   -1.1920 c1        1 ENO     -0.087500
      6 C5         -0.4280   -1.4130   -0.0660 c1        1 ENO     -0.087500
      7 C4         -0.2970   -0.0260    0.2810 c1        1 ENO     -0.038100
      8 O3         -2.2950   -1.1700   -3.1710 oh        1 ENO     -0.499600
      9 C3          0.3930    0.3870    1.6080 c3        1 ENO     -0.197300
     10 C2          1.8900    0.6580    1.3460 c         1 ENO      0.471100
     11 C1          2.7200    1.3490    2.3830 c         1 ENO      0.855600
     12 O2          3.3270    0.6740    3.2520 o         1 ENO     -0.810800
     13 O1          2.8520    2.6110    2.3530 o         1 ENO     -0.810800
     14 H9         -0.7560    1.7900   -0.2930 ha        1 ENO      0.072500
     15 H8         -1.9330    1.2620   -2.2570 ha        1 ENO      0.075500
     16 H6         -1.1860   -2.7040   -1.4240 ha        1 ENO      0.083500
     17 H5         -0.1230   -2.1240    0.5780 ha        1 ENO      0.083500
     18 HO3        -1.7650   -1.2180   -3.7580 ho        1 ENO      0.407000
     19 H31        -0.0120    1.1610    1.9380 hc        1 ENO      0.077200
     20 H32         0.3030   -0.3330    2.2660 hc        1 ENO      0.077200
@<TRIPOS>BOND
     1    1   10 2   
     2    2    7 3   
     3    2   14 1   
     4    3    4 3   
     5    3   15 1   
     6    4    8 1   
     7    5    6 3   
     8    5   16 1   
     9    6   17 1   
    10    7    9 1   
    11    8   18 1   
    12    9   10 1   
    13    9   19 1   
    14    9   20 1   
    15   10   11 1   
    16   11   12 1   
    17   11   13 1   
@<TRIPOS>SUBSTRUCTURE
     1 ENO         1 TEMP              0 ****  ****    0 ROOT
