@<TRIPOS>MOLECULE
ENS
   65    68     1     0     0
SMALL
bcc


@<TRIPOS>ATOM
      1 C1          0.4060    3.8800   -0.8950 cg        1 ENS      0.232500
      2 C2          4.5490   -0.4770    1.9820 ca        1 ENS     -0.156000
      3 C3          4.3410   -1.8460    2.0660 ca        1 ENS     -0.065000
      4 C4          3.8000    0.3320    1.1150 ca        1 ENS     -0.111000
      5 C5          2.8380   -3.7670    1.1170 cc        1 ENS     -0.062800
      6 C6          1.8000   -3.7170    0.1850 cd        1 ENS     -0.086100
      7 C7          3.3450   -2.4210    1.2800 ca        1 ENS     -0.085800
      8 C8          2.5560   -1.5960    0.3920 ca        1 ENS     -0.038200
      9 C9          2.7980   -0.2020    0.2950 ca        1 ENS      0.066600
     10 C10        -1.1850   -0.0010    0.4370 c         1 ENS      0.677500
     11 C11         1.3560    2.8570   -1.1090 ce        1 ENS     -0.282900
     12 C12         1.3570    1.7030   -0.2960 c2        1 ENS      0.474000
     13 C13         2.3120    3.0660   -2.1820 c         1 ENS      0.679300
     14 C14        -4.4670   -0.5350    0.0220 c         1 ENS      0.638100
     15 C15        -1.4960    1.8750    3.0800 c3        1 ENS     -0.084400
     16 C16        -2.8200    1.8200    2.3550 c3        1 ENS     -0.116400
     17 C17        -7.2770   -2.5490   -1.3250 c3        1 ENS     -0.090400
     18 C18        -6.5810   -2.1100   -2.6110 c3        1 ENS     -0.090400
     19 C19        -0.6090    0.6850    2.8070 c3        1 ENS     -0.083400
     20 C20        -2.6780    1.9530    0.8420 c3        1 ENS      0.092000
     21 C21        -6.5820   -1.8040   -0.1750 c3        1 ENS      0.088500
     22 C22        -5.4350   -1.1740   -2.1900 c3        1 ENS      0.088500
     23 C23        -0.0750    0.5320    1.3780 c3        1 ENS      0.152500
     24 C24         3.1280    4.5550   -3.8490 c3        1 ENS      0.129700
     25 N26        -0.3690    4.7360   -0.7450 n1        1 ENS     -0.404800
     26 N27         1.6510   -2.4120   -0.2900 na        1 ENS     -0.158400
     27 N28        -2.3020    0.7560    0.1200 n         1 ENS     -0.433800
     28 N29        -5.5060   -1.0150   -0.7520 n         1 ENS     -0.470800
     29 N30         2.0840    0.5690   -0.6620 nh        1 ENS     -0.623400
     30 N31         0.5970    1.7060    0.8780 nh        1 ENS     -0.741000
     31 O32        -1.0080   -1.1190   -0.0950 o         1 ENS     -0.670500
     32 O33         3.1890    2.3000   -2.6130 o         1 ENS     -0.598000
     33 O34        -4.5160   -0.6320    1.2640 o         1 ENS     -0.609100
     34 O35         2.2100    4.2930   -2.7860 os        1 ENS     -0.422900
     35 CL36        3.4010   -5.1290    1.9010 cl        1 ENS     -0.059400
     36 H2          5.3270   -0.0040    2.6010 ha        1 ENS      0.138000
     37 H3          4.9460   -2.4730    2.7380 ha        1 ENS      0.147000
     38 H4          4.0160    1.4120    1.0810 ha        1 ENS      0.143000
     39 H6          1.1660   -4.5240   -0.1900 h4        1 ENS      0.181000
     40 H15        -0.9660    2.8340    2.8390 hc        1 ENS      0.047700
     41 H15A       -1.7030    1.8990    4.1860 hc        1 ENS      0.047700
     42 H16        -3.3650    0.8700    2.6090 hc        1 ENS      0.074700
     43 H16A       -3.4570    2.6760    2.7070 hc        1 ENS      0.074700
     44 H17        -8.3640   -2.2940   -1.3510 hc        1 ENS      0.054700
     45 H17A       -7.1860   -3.6540   -1.1800 hc        1 ENS      0.054700
     46 H18        -6.1770   -2.9890   -3.1700 hc        1 ENS      0.054700
     47 H18A       -7.2910   -1.5710   -3.2850 hc        1 ENS      0.054700
     48 H19         0.2770    0.7360    3.4980 hc        1 ENS      0.068700
     49 H19A       -1.1710   -0.2600    3.0440 hc        1 ENS      0.068700
     50 H20        -3.6740    2.2980    0.4360 h1        1 ENS      0.055200
     51 H20A       -1.9310    2.7630    0.6000 h1        1 ENS      0.055200
     52 H21        -7.2970   -1.1120    0.3480 h1        1 ENS      0.050200
     53 H21A       -6.1730   -2.5180    0.5920 h1        1 ENS      0.050200
     54 H22        -4.4420   -1.6060   -2.4990 h1        1 ENS      0.050200
     55 H22A       -5.5410   -0.1670   -2.6800 h1        1 ENS      0.050200
     56 H23         0.6810   -0.3180    1.4250 h1        1 ENS      0.110700
     57 H24         2.8560    5.5890   -4.1770 h1        1 ENS      0.050700
     58 H24A        4.1760    4.5060   -3.4690 h1        1 ENS      0.050700
     59 H24B        2.9830    3.8120   -4.6700 h1        1 ENS      0.050700
     60 H25        -2.8220   -0.6090   -1.3850 h1        1 ENS      0.088200
     61 H25A       -3.7510    0.9720   -1.3710 h1        1 ENS      0.088200
     62 HN27        0.8420   -2.0720   -0.7580 hn        1 ENS      0.331700
     63 HN31        0.1120    2.5640    1.0550 hn        1 ENS      0.439800
     64 H29         2.5860    0.6580   -1.5340 hn        1 ENS      0.474800
     65 C25        -3.3150    0.1610   -0.7190 c3        1 ENS      0.017000
@<TRIPOS>BOND
     1    1   11 1   
     2    1   25 3   
     3    2    3 ar  
     4    2    4 ar  
     5    2   36 1   
     6    3    7 ar  
     7    3   37 1   
     8    4    9 ar  
     9    4   38 1   
    10    5    6 2   
    11    5    7 1   
    12    5   35 1   
    13    6   26 1   
    14    6   39 1   
    15    7    8 ar  
    16    8    9 ar  
    17    8   26 1   
    18    9   29 1   
    19   10   23 1   
    20   10   27 1   
    21   10   31 2   
    22   11   12 2   
    23   11   13 1   
    24   12   29 1   
    25   12   30 1   
    26   13   32 2   
    27   13   34 1   
    28   14   28 1   
    29   14   33 2   
    30   14   65 1   
    31   15   16 1   
    32   15   19 1   
    33   15   40 1   
    34   15   41 1   
    35   16   20 1   
    36   16   42 1   
    37   16   43 1   
    38   17   18 1   
    39   17   21 1   
    40   17   44 1   
    41   17   45 1   
    42   18   22 1   
    43   18   46 1   
    44   18   47 1   
    45   19   23 1   
    46   19   48 1   
    47   19   49 1   
    48   20   27 1   
    49   20   50 1   
    50   20   51 1   
    51   21   28 1   
    52   21   52 1   
    53   21   53 1   
    54   22   28 1   
    55   22   54 1   
    56   22   55 1   
    57   23   30 1   
    58   23   56 1   
    59   24   34 1   
    60   24   57 1   
    61   24   58 1   
    62   24   59 1   
    63   26   62 1   
    64   27   65 1   
    65   29   64 1   
    66   30   63 1   
    67   60   65 1   
    68   61   65 1   
@<TRIPOS>SUBSTRUCTURE
     1 ENS         1 TEMP              0 ****  ****    0 ROOT
