@<TRIPOS>MOLECULE
ENS
   65    57     1     0     0
SMALL
bcc


@<TRIPOS>ATOM
      1 C1          3.5860   -0.1810    2.2890 c1        1 ENS     -0.065000
      2 C2          3.2140    2.5380   -2.3220 c1        1 ENS     -0.143000
      3 C3          4.5310    2.8940   -2.0450 c1        1 ENS     -0.063000
      4 C4          2.5750    1.5530   -1.5520 c1        1 ENS     -0.143000
      5 C5          6.5210    2.4190   -0.4950 c1        1 ENS     -0.155000
      6 C6          6.6800    1.5350    0.5740 c1        1 ENS     -0.062000
      7 C7          5.2230    2.2650   -0.9900 c1        1 ENS     -0.075000
      8 C8          4.5890    1.2920   -0.2310 c1        1 ENS      0.033000
      9 C9          3.2550    0.9340   -0.5140 c1        1 ENS     -0.048000
     10 C10        -1.3200    0.7030    0.6490 c1        1 ENS      0.294000
     11 C11         2.3170   -0.8850    1.8240 c1        1 ENS     -0.096000
     12 C12         1.5550   -0.3430    0.7700 c1        1 ENS      0.194000
     13 C13         1.8670   -2.1930    2.5070 c2        1 ENS      0.371000
     14 C14        -3.6240    0.4550   -1.5660 c1        1 ENS      0.306000
     15 C15        -2.5390    0.4280    3.1630 c3        1 ENS     -0.161000
     16 C16        -2.4800    1.9860    2.3870 c3        1 ENS     -0.195000
     17 C17        -3.7920   -1.3630   -4.7560 c3        1 ENS     -0.169000
     18 C18        -4.0270   -2.4830   -3.7360 c3        1 ENS     -0.169000
     19 C19        -1.2340   -0.7400    2.4660 c3        1 ENS     -0.177000
     20 C20        -2.8610    1.8760    0.9770 c3        1 ENS     -0.060000
     21 C21        -4.2030   -0.2460   -4.1450 c3        1 ENS     -0.029000
     22 C22        -4.3400   -1.7540   -2.3700 c3        1 ENS     -0.029000
     23 C23        -1.0710   -0.5450    0.8820 c2        1 ENS     -0.056000
     24 C24         3.1110   -3.7400    3.8710 c3        1 ENS     -0.064000
     25 C25        -3.4950    0.0180   -0.0710 c2        1 ENS     -0.073000
     26 N26         4.5450    0.3520    2.6440 n1        1 ENS     -0.043000
     27 N27         5.4900    0.8410    0.7360 n1        1 ENS     -0.189000
     28 N28        -2.5970    0.8800    0.5930 n3        1 ENS     -0.304000
     29 N29        -4.0320   -0.5090   -2.5700 n3        1 ENS     -0.317000
     30 N30         1.9730    0.8670    0.1360 n2        1 ENS     -0.261000
     31 N31         0.3490   -1.0130    0.3300 n3        1 ENS     -0.296000
     32 O32        -0.5750    1.5770    1.0500 o         1 ENS     -0.294000
     33 O33         0.7530   -2.2890    2.9430 o         1 ENS     -0.362000
     34 O34        -3.3660    1.6090   -1.8930 o         1 ENS     -0.375000
     35 O35         2.7530   -3.3250    2.5430 os        1 ENS     -0.259000
     36 CL36        7.9210    3.3580   -0.9370 cl        1 ENS      0.027000
     37 H2          2.7340    2.9730   -3.0530 ha        1 ENS      0.143500
     38 H3          4.9890    3.6020   -2.5980 ha        1 ENS      0.146000
     39 H4          1.6660    1.3090   -1.7430 ha        1 ENS      0.143500
     40 H6          7.5170    1.3820    1.0800 DU        1 ENS      0.226000
     41 H15        -3.4220    0.0370    3.0250 hc        1 ENS      0.097000
     42 H15A       -2.3920    0.5390    4.0900 hc        1 ENS      0.097000
     43 H16        -1.5430    2.3530    2.4510 hc        1 ENS      0.095000
     44 H16A       -3.1160    2.6160    2.8570 hc        1 ENS      0.095000
     45 H17        -4.3260   -1.5240   -5.5710 hc        1 ENS      0.092750
     46 H17A       -2.8510   -1.3010   -4.9770 hc        1 ENS      0.092750
     47 H18        -4.8030   -3.0430   -4.0120 hc        1 ENS      0.092750
     48 H18A       -3.2050   -3.0490   -3.6460 hc        1 ENS      0.092750
     49 H19        -0.3480   -0.5540    2.9140 hc        1 ENS      0.098000
     50 H19A       -1.5120   -1.7080    2.6590 hc        1 ENS      0.098000
     51 H20        -3.8640    2.0190    0.8830 h1        1 ENS      0.114500
     52 H20A       -2.4020    2.5360    0.4750 h1        1 ENS      0.114500
     53 H21        -3.6430    0.5190   -4.4230 h1        1 ENS      0.094000
     54 H21A       -5.1820   -0.0620   -4.3660 h1        1 ENS      0.094000
     55 H22        -5.2760   -1.8370   -2.1510 h1        1 ENS      0.094000
     56 H22A       -3.7790   -2.1340   -1.6380 h1        1 ENS      0.094000
     57 H23        -1.6730   -1.1300    0.3880 h4        1 ENS      0.155000
     58 H24         3.9750   -3.4140    4.0820 h1        1 ENS      0.093667
     59 H24A        3.1100   -4.7330    3.9170 h1        1 ENS      0.093667
     60 H24B        2.4480   -3.3730    4.5260 h1        1 ENS      0.093667
     61 H25        -3.1630   -0.8840   -0.0270 h4        1 ENS      0.108000
     62 H25A       -4.3860    0.0660    0.3680 h4        1 ENS      0.108000
     63 HN27        5.3180    0.1770    1.3890 DU        1 ENS      0.226000
     64 HN31        0.4060   -1.7250   -0.2090 hn        1 ENS      0.213000
     65 H29         1.4680    1.5700    0.1690 hn        1 ENS      0.200000
@<TRIPOS>BOND
     1    1   26 1   
     2    2    4 1   
     3    2   37 1   
     4    3    7 1   
     5    3   38 1   
     6    4   39 1   
     7    5    6 1   
     8    5    7 1   
     9    6   27 1   
    10    8    9 1   
    11    9   30 1   
    12   10   28 1   
    13   10   32 1   
    14   11   12 1   
    15   11   13 1   
    16   12   31 1   
    17   13   33 1   
    18   13   35 1   
    19   14   29 1   
    20   14   34 1   
    21   15   16 1   
    22   15   19 1   
    23   15   41 1   
    24   15   42 1   
    25   16   20 1   
    26   16   43 1   
    27   16   44 1   
    28   17   18 1   
    29   17   21 1   
    30   17   45 1   
    31   17   46 1   
    32   18   22 1   
    33   18   47 1   
    34   18   48 1   
    35   19   23 1   
    36   19   49 1   
    37   19   50 1   
    38   20   28 1   
    39   20   51 1   
    40   20   52 1   
    41   21   29 1   
    42   21   53 1   
    43   21   54 1   
    44   22   29 1   
    45   22   55 1   
    46   22   56 1   
    47   23   31 1   
    48   23   57 1   
    49   24   35 1   
    50   24   58 1   
    51   24   59 1   
    52   24   60 1   
    53   25   28 1   
    54   25   61 1   
    55   25   62 1   
    56   30   65 1   
    57   31   64 1   
@<TRIPOS>SUBSTRUCTURE
     1 ENS         1 TEMP              0 ****  ****    0 ROOT
