@<TRIPOS>MOLECULE
ENS
   67    69     1     0     0
SMALL
bcc


@<TRIPOS>ATOM
      1 C1         -4.4070   -1.8600    2.4040 cg        1 ENS      0.086500
      2 C2          0.9530    0.2360    0.6660 ca        1 ENS     -0.144000
      3 C3          1.5500    1.4260    1.0980 ca        1 ENS      0.011000
      4 C4          0.1350   -0.5120    1.5040 ca        1 ENS     -0.070000
      5 C5          1.7920    3.0000    3.1620 cc        1 ENS     -0.039800
      6 C6          1.2480    2.8950    4.4390 cd        1 ENS     -0.061100
      7 C7          1.3230    1.8590    2.3950 ca        1 ENS     -0.080800
      8 C8          0.4730    1.0940    3.2990 ca        1 ENS     -0.018200
      9 C9         -0.1320   -0.0900    2.8250 ca        1 ENS     -0.142400
     10 C10        -1.6270    1.0050    7.2420 c         1 ENS      0.728900
     11 C11        -3.0240   -1.9400    2.7230 ce        1 ENS      0.125100
     12 C12        -2.3820   -0.9090    3.3540 c2        1 ENS      0.113000
     13 C13        -2.3500   -3.2210    2.3370 c         1 ENS      0.634300
     14 C14        -0.5510    3.5410    8.1290 c         1 ENS      0.638100
     15 C15        -4.1150    3.0860    4.2650 c3        1 ENS     -0.099200
     16 C16        -3.0880    3.1940    5.3820 c3        1 ENS     -0.124400
     17 C17         1.5640    6.1520    9.7020 c3        1 ENS     -0.090400
     18 C18         0.2880    6.2510   10.5340 c3        1 ENS     -0.090400
     19 C19        -3.5100    2.6190    2.9940 c2        1 ENS     -0.028200
     20 C20        -3.5300    2.4290    6.6360 c3        1 ENS      0.071000
     21 C21         1.3090    5.0930    8.6210 c3        1 ENS      0.082500
     22 C22        -0.7110    5.2490    9.9350 c3        1 ENS      0.082500
     23 C23        -3.0630    1.3770    2.7360 c2        1 ENS     -0.162000
     24 C24        -2.6000   -5.3690    1.3430 c3        1 ENS      0.123700
     25 N26        -5.5340   -1.8550    2.1100 n1        1 ENS     -0.145800
     26 N27         0.4210    1.7600    4.5160 na        1 ENS     -0.191400
     27 N28        -2.4620    2.0550    7.5390 n         1 ENS     -0.421800
     28 N29        -0.0460    4.5910    8.8210 n         1 ENS     -0.426800
     29 N30        -0.9430   -0.9390    3.6960 n4        1 ENS     -0.508200
     30 N31        -3.1350    0.3050    3.7330 n4        1 ENS     -0.544600
     31 O33        -1.1570   -3.4790    2.5310 o         1 ENS     -0.524000
     32 O34         0.0970    2.9660    7.2120 o         1 ENS     -0.707100
     33 O35        -3.1710   -4.0990    1.7400 os        1 ENS     -0.369900
     34 CL36        2.7970    4.1930    2.5990 cl        1 ENS      0.015600
     35 H2          1.1470   -0.1260   -0.3590 ha        1 ENS      0.180000
     36 H3          2.2030    2.0060    0.4210 ha        1 ENS      0.188000
     37 H4         -0.2850   -1.4630    1.1340 ha        1 ENS      0.154000
     38 H6          1.3690    3.5340    5.3240 h4        1 ENS      0.223000
     39 H15        -4.9600    2.4020    4.5570 hc        1 ENS      0.090700
     40 H15A       -4.5840    4.0970    4.0970 hc        1 ENS      0.090700
     41 H16        -2.9470    4.2770    5.6480 hc        1 ENS      0.075200
     42 H16A       -2.0870    2.8250    5.0340 hc        1 ENS      0.075200
     43 H17         2.4330    5.8520   10.3380 hc        1 ENS      0.075950
     44 H17A        1.8090    7.1350    9.2280 hc        1 ENS      0.075950
     45 H18        -0.1360    7.2850   10.4970 hc        1 ENS      0.075950
     46 H18A        0.4880    6.0010   11.6050 hc        1 ENS      0.075950
     47 H19        -3.4290    3.3700    2.1790 ha        1 ENS      0.204000
     48 H19A       -2.6140    1.0710    1.7720 hx        1 ENS      0.212000
     49 H20        -4.0520    1.4740    6.3360 h1        1 ENS      0.070200
     50 H20A       -4.2750    3.0540    7.2070 h1        1 ENS      0.070200
     51 H21         2.0400    4.2410    8.6950 h1        1 ENS      0.058950
     52 H21A        1.3880    5.5310    7.5890 h1        1 ENS      0.058950
     53 H22        -1.0250    4.4870   10.7010 h1        1 ENS      0.058950
     54 H22A       -1.6330    5.7770    9.5630 h1        1 ENS      0.058950
     55 H23        -0.8410    0.7650    7.9980 h5        1 ENS      0.099200
     56 H24        -3.4820   -5.8910    0.8890 h1        1 ENS      0.090033
     57 H24A       -1.7860   -5.1930    0.6020 h1        1 ENS      0.090033
     58 H24B       -2.2150   -5.9000    2.2460 h1        1 ENS      0.090033
     59 H25        -1.9260    2.5670    9.5090 h1        1 ENS      0.104700
     60 H25A       -2.6820    3.9100    8.5240 h1        1 ENS      0.104700
     61 HN27        0.0710    1.4120    5.3770 hn        1 ENS      0.321700
     62 HN31       -2.7970    0.6770    4.6580 hn        1 ENS      0.492300
     63 H29        -0.6010   -1.9230    3.5840 hn        1 ENS      0.510300
     64 C25        -1.9690    3.0390    8.4840 c3        1 ENS     -0.002000
     65 H302       -0.8140   -0.6710    4.6910 hn        1 ENS      0.510300
     66 H312       -4.1260    0.0380    3.8600 hn        1 ENS      0.492300
     67 O32        -1.7530    0.3170    6.1890 o         1 ENS     -0.799100
@<TRIPOS>BOND
     1    1   11 1   
     2    1   25 3   
     3    2    3 ar  
     4    2    4 ar  
     5    2   35 1   
     6    3    7 ar  
     7    3   36 1   
     8    4    9 ar  
     9    4   37 1   
    10    5    6 2   
    11    5    7 1   
    12    5   34 1   
    13    6   26 1   
    14    6   38 1   
    15    7    8 ar  
    16    8    9 ar  
    17    8   26 1   
    18    9   29 1   
    19   10   27 1   
    20   10   55 1   
    21   10   67 2   
    22   11   12 2   
    23   11   13 1   
    24   12   29 1   
    25   12   30 1   
    26   13   31 2   
    27   13   33 1   
    28   14   28 1   
    29   14   32 2   
    30   14   64 1   
    31   15   16 1   
    32   15   19 1   
    33   15   39 1   
    34   15   40 1   
    35   16   20 1   
    36   16   41 1   
    37   16   42 1   
    38   17   18 1   
    39   17   21 1   
    40   17   43 1   
    41   17   44 1   
    42   18   22 1   
    43   18   45 1   
    44   18   46 1   
    45   19   23 2   
    46   19   47 1   
    47   20   27 1   
    48   20   49 1   
    49   20   50 1   
    50   21   28 1   
    51   21   51 1   
    52   21   52 1   
    53   22   28 1   
    54   22   53 1   
    55   22   54 1   
    56   23   30 1   
    57   23   48 1   
    58   24   33 1   
    59   24   56 1   
    60   24   57 1   
    61   24   58 1   
    62   26   61 1   
    63   27   64 1   
    64   29   63 1   
    65   29   65 1   
    66   30   62 1   
    67   30   66 1   
    68   59   64 1   
    69   60   64 1   
@<TRIPOS>SUBSTRUCTURE
     1 ENS         1 TEMP              0 ****  ****    0 ROOT
