@<TRIPOS>MOLECULE
ENT
   48    49     1     0     0
SMALL
bcc


@<TRIPOS>ATOM
      1 O6         41.3450   17.0030   12.0730 o         1 ENT     -0.730200
      2 S1         42.3730   16.4860   12.9020 s6        1 ENT      1.530700
      3 O4         43.5980   16.2990   12.2270 o         1 ENT     -0.730200
      4 O5         42.5190   17.1590   14.1380 o         1 ENT     -0.730200
      5 N1         41.7770   14.8940   13.2750 nh        1 ENT     -0.716500
      6 C5         42.1100   14.0400   14.2940 ca        1 ENT      0.262600
      7 C4         41.5230   12.7460   14.3990 ca        1 ENT     -0.238000
      8 C1         41.8550   11.8940   15.4390 ca        1 ENT     -0.079000
      9 C2         43.0500   14.4110   15.2980 ca        1 ENT     -0.200000
     10 C6         43.3750   13.5370   16.3280 ca        1 ENT     -0.066300
     11 C8         44.3790   14.0060   17.3400 c3        1 ENT      0.134300
     12 N2         44.5810   13.1300   18.4830 n         1 ENT     -0.443800
     13 C9         43.6300   12.0820   18.7730 c3        1 ENT      0.048700
     14 C10        42.4020   12.5850   19.5780 c         1 ENT      0.648100
     15 O3         42.0910   11.9960   20.6360 o         1 ENT     -0.640100
     16 N3         41.6950   13.6570   19.0990 n         1 ENT     -0.552900
     17 C16        40.5090   14.1430   19.7290 c3        1 ENT      0.079300
     18 C7         43.1260   11.3470   17.5210 c3        1 ENT     -0.028100
     19 C3         42.7770   12.2720   16.4180 ca        1 ENT     -0.186300
     20 C11        45.8320   13.1580   19.0810 c         1 ENT      0.753100
     21 O1         46.7430   13.9650   18.8240 o         1 ENT     -0.598000
     22 O2         46.0220   12.1940   20.0490 os        1 ENT     -0.445900
     23 C12        47.1910   12.2730   20.9020 c3        1 ENT      0.188800
     24 C15        48.4600   12.0410   20.0990 c3        1 ENT     -0.113433
     25 C14        47.2340   13.5950   21.6500 c3        1 ENT     -0.113433
     26 C13        46.9660   11.1190   21.8810 c3        1 ENT     -0.113433
     27 HN1        41.0840   14.5330   12.6620 hn        1 ENT      0.410800
     28 H4         40.7940   12.4170   13.6440 ha        1 ENT      0.121000
     29 H1         41.3820   10.9020   15.4990 ha        1 ENT      0.112000
     30 H2         43.5110   15.4150   15.2620 ha        1 ENT      0.179000
     31 H81        44.0530   15.0140   17.7380 h1        1 ENT      0.074200
     32 H82        45.3710   14.1590   16.8170 h1        1 ENT      0.074200
     33 H9         44.1180   11.3150   19.4510 h1        1 ENT      0.104700
     34 HN3        41.9140   14.0180   18.1970 hn        1 ENT      0.336500
     35 H161       40.4340   13.7420   20.7750 h1        1 ENT      0.039033
     36 H162       40.5390   15.2650   19.7640 h1        1 ENT      0.039033
     37 H163       39.5950   13.8280   19.1550 h1        1 ENT      0.039033
     38 H71        42.2390   10.7250   17.8140 hc        1 ENT      0.053200
     39 H72        43.9310   10.6430   17.1740 hc        1 ENT      0.053200
     40 H151       48.6590   12.9100   19.4240 hc        1 ENT      0.049589
     41 H152       49.3220   11.9160   20.7960 hc        1 ENT      0.049589
     42 H153       48.3560   11.1210   19.4770 hc        1 ENT      0.049589
     43 H141       46.2530   13.7840   22.1480 hc        1 ENT      0.049589
     44 H142       48.0350   13.5570   22.4240 hc        1 ENT      0.049589
     45 H143       47.4470   14.4350   20.9450 hc        1 ENT      0.049589
     46 H131       46.9180   10.1510   21.3290 hc        1 ENT      0.049589
     47 H132       47.8110   11.0890   22.6080 hc        1 ENT      0.049589
     48 H133       46.0070   11.2650   22.4310 hc        1 ENT      0.049589
@<TRIPOS>BOND
     1    1    2 1   
     2    2    3 1   
     3    2    4 1   
     4    2    5 1   
     5    5    6 1   
     6    5   27 1   
     7    6    7 ar  
     8    6    9 ar  
     9    7    8 ar  
    10    7   28 1   
    11    8   19 ar  
    12    8   29 1   
    13    9   10 ar  
    14    9   30 1   
    15   10   11 1   
    16   10   19 ar  
    17   11   12 1   
    18   11   31 1   
    19   11   32 1   
    20   12   13 1   
    21   12   20 1   
    22   13   14 1   
    23   13   18 1   
    24   13   33 1   
    25   14   15 2   
    26   14   16 1   
    27   16   17 1   
    28   16   34 1   
    29   17   35 1   
    30   17   36 1   
    31   17   37 1   
    32   18   19 1   
    33   18   38 1   
    34   18   39 1   
    35   20   21 2   
    36   20   22 1   
    37   22   23 1   
    38   23   24 1   
    39   23   25 1   
    40   23   26 1   
    41   24   40 1   
    42   24   41 1   
    43   24   42 1   
    44   25   43 1   
    45   25   44 1   
    46   25   45 1   
    47   26   46 1   
    48   26   47 1   
    49   26   48 1   
@<TRIPOS>SUBSTRUCTURE
     1 ENT         1 TEMP              0 ****  ****    0 ROOT
