@<TRIPOS>MOLECULE
ENT
   50    50     1     0     0
SMALL
bcc


@<TRIPOS>ATOM
      1 O6          0.4360   -1.0410   -0.5050 o         1 ENT     -0.573733
      2 S1          1.7740   -0.8420   -0.4950 s4        1 ENT      1.810000
      3 O4          2.4830   -0.9590    0.6500 o         1 ENT     -0.573733
      4 O5          2.4190   -0.6040   -1.6680 o         1 ENT     -0.693533
      5 N1          1.2980    1.6870   -0.3030 nh        1 ENT     -0.860200
      6 C5          2.4570    2.5010   -0.4020 ca        1 ENT      0.093600
      7 C4          2.8190    3.3970    0.6250 ca        1 ENT     -0.142000
      8 C1          4.0070    4.1180    0.5460 ca        1 ENT     -0.083000
      9 C2          3.3100    2.3530   -1.5200 ca        1 ENT     -0.126000
     10 C6          4.4990    3.0710   -1.5770 ca        1 ENT     -0.088300
     11 C8          5.4580    2.8500   -2.7030 c3        1 ENT      0.129300
     12 N2          6.1910    4.0540   -3.0900 n         1 ENT     -0.480800
     13 C9          6.4880    5.0600   -2.1030 c3        1 ENT      0.068700
     14 C10         5.7880    6.4090   -2.3890 c         1 ENT      0.526100
     15 O3          5.6040    7.3100   -1.5890 o         1 ENT     -0.416100
     16 N3          5.3690    6.6740   -3.8200 n4        1 ENT     -0.670800
     17 C16         4.8320    8.0320   -4.0420 c3        1 ENT      0.080100
     18 C7          6.1550    4.6620   -0.6500 c3        1 ENT     -0.040100
     19 C3          4.8540    3.9590   -0.5500 ca        1 ENT     -0.126300
     20 C11         7.0610    3.9060   -4.1890 c         1 ENT      0.728100
     21 O1          7.1680    2.8980   -4.8910 o         1 ENT     -0.502000
     22 O2          7.7150    5.0740   -4.4950 os        1 ENT     -0.516900
     23 C12         8.7590    5.0640   -5.5290 c3        1 ENT      0.190800
     24 C15         9.8390    4.0590   -5.1780 c3        1 ENT     -0.120433
     25 C14         8.1410    4.7870   -6.8860 c3        1 ENT     -0.120433
     26 C13         9.2990    6.4900   -5.4560 c3        1 ENT     -0.120433
     27 HN1         0.7190    1.7710   -1.1200 hn        1 ENT      0.404300
     28 H4          2.1730    3.5220    1.5100 ha        1 ENT      0.155000
     29 H1          4.2810    4.8070    1.3610 ha        1 ENT      0.152000
     30 H2          3.0580    1.6320   -2.3210 ha        1 ENT      0.182000
     31 H81         4.9180    2.4850   -3.6260 h1        1 ENT      0.091200
     32 H82         6.1910    2.0420   -2.3980 h1        1 ENT      0.091200
     33 H9          7.5930    5.3400   -2.1470 h1        1 ENT      0.119700
     34 HN3         4.6580    5.9770   -4.0740 hn        1 ENT      0.474800
     35 H161        3.9350    8.1950   -3.3850 hx        1 ENT      0.109033
     36 H162        5.6150    8.7930   -3.7760 hx        1 ENT      0.109033
     37 H163        4.5420    8.1420   -5.1210 hx        1 ENT      0.109033
     38 H71         6.9730    3.9740   -0.2920 hc        1 ENT      0.096700
     39 H72         6.1760    5.5800   -0.0030 hc        1 ENT      0.096700
     40 H151       10.1930    4.2160   -4.1310 hc        1 ENT      0.061922
     41 H152        9.4560    3.0140   -5.2810 hc        1 ENT      0.061922
     42 H153       10.7030    4.1920   -5.8740 hc        1 ENT      0.061922
     43 H141        8.9130    4.9410   -7.6790 hc        1 ENT      0.061922
     44 H142        7.2880    5.4820   -7.0750 hc        1 ENT      0.061922
     45 H143        7.7720    3.7340   -6.9460 hc        1 ENT      0.061922
     46 H131        8.4840    7.2260   -5.6500 hc        1 ENT      0.061922
     47 H132       10.0920    6.6130   -6.2320 hc        1 ENT      0.061922
     48 H133        9.7390    6.6910   -4.4510 hc        1 ENT      0.061922
     49 H12         0.7650    1.8890    0.5230 hn        1 ENT      0.404300
     50 H32         6.1960    6.5190   -4.4220 hn        1 ENT      0.474800
@<TRIPOS>BOND
     1    1    2 1   
     2    2    3 1   
     3    2    4 2   
     4    5    6 1   
     5    5   27 1   
     6    5   49 1   
     7    6    7 ar  
     8    6    9 ar  
     9    7    8 ar  
    10    7   28 1   
    11    8   19 ar  
    12    8   29 1   
    13    9   10 ar  
    14    9   30 1   
    15   10   11 1   
    16   10   19 ar  
    17   11   12 1   
    18   11   31 1   
    19   11   32 1   
    20   12   13 1   
    21   12   20 1   
    22   13   14 1   
    23   13   18 1   
    24   13   33 1   
    25   14   15 2   
    26   14   16 1   
    27   16   17 1   
    28   16   34 1   
    29   16   50 1   
    30   17   35 1   
    31   17   36 1   
    32   17   37 1   
    33   18   19 1   
    34   18   38 1   
    35   18   39 1   
    36   20   21 2   
    37   20   22 1   
    38   22   23 1   
    39   23   24 1   
    40   23   25 1   
    41   23   26 1   
    42   24   40 1   
    43   24   41 1   
    44   24   42 1   
    45   25   43 1   
    46   25   44 1   
    47   25   45 1   
    48   26   46 1   
    49   26   47 1   
    50   26   48 1   
@<TRIPOS>SUBSTRUCTURE
     1 ENT         1 TEMP              0 ****  ****    0 ROOT
