@<TRIPOS>MOLECULE
ENT
   49    50     1     0     0
SMALL
bcc


@<TRIPOS>ATOM
      1 O6         -0.3110    3.5430   -1.6010 o         1 ENT     -0.739533
      2 S1          0.8510    3.5770   -0.8140 s6        1 ENT      1.552700
      3 O4          1.8310    4.5250   -1.3130 o         1 ENT     -0.739533
      4 O5          0.6870    3.7090    0.5710 o         1 ENT     -0.739533
      5 N1          1.6260    2.0580   -1.1060 nh        1 ENT     -0.752500
      6 C5          2.9970    2.0090   -0.9320 ca        1 ENT      0.218600
      7 C4          3.5580    2.3660    0.3260 ca        1 ENT     -0.164000
      8 C1          4.8820    2.7690    0.4150 ca        1 ENT     -0.090000
      9 C2          3.8760    1.8130   -2.0300 ca        1 ENT     -0.187000
     10 C6          5.1860    2.2660   -1.9350 ca        1 ENT     -0.107300
     11 C8          6.0720    2.3530   -3.1410 c3        1 ENT      0.127300
     12 N2          6.5970    3.7110   -3.3020 n         1 ENT     -0.468800
     13 C9          6.8410    4.4800   -2.1060 c3        1 ENT      0.053700
     14 C10         5.7450    5.5440   -1.8480 c         1 ENT      0.530100
     15 O3          5.9980    6.6560   -1.3990 o         1 ENT     -0.454100
     16 N3          4.3130    5.2130   -2.1000 n4        1 ENT     -0.646800
     17 C16         3.6060    6.2500   -2.8850 c3        1 ENT      0.091100
     18 C7          6.9220    3.6100   -0.8250 c3        1 ENT     -0.038100
     19 C3          5.6670    2.8240   -0.7380 ca        1 ENT     -0.189300
     20 C11         7.3350    3.9580   -4.4690 c         1 ENT      0.746100
     21 O1          7.3610    3.2120   -5.4580 o         1 ENT     -0.554000
     22 O2          7.9960    5.1580   -4.4520 os        1 ENT     -0.454900
     23 C12         8.7400    5.5800   -5.6340 c3        1 ENT      0.187800
     24 C15         9.8660    4.6050   -5.9300 c3        1 ENT     -0.116433
     25 C14         7.8080    5.7440   -6.8210 c3        1 ENT     -0.116433
     26 C13         9.3010    6.9330   -5.2000 c3        1 ENT     -0.116433
     27 HN1         1.2290    1.3680   -1.6920 hn        1 ENT      0.431800
     28 H4          2.9040    2.4030    1.2160 ha        1 ENT      0.184000
     29 H1          5.2950    3.0950    1.3820 ha        1 ENT      0.143000
     30 H2          3.5020    1.3840   -2.9710 ha        1 ENT      0.147000
     31 H81         5.5110    2.0930   -4.0850 h1        1 ENT      0.078200
     32 H82         6.9260    1.6220   -3.0340 h1        1 ENT      0.078200
     33 H9          7.7990    5.0790   -2.2100 h1        1 ENT      0.126700
     34 HN3         3.7900    5.1050   -1.1960 hn        1 ENT      0.497800
     35 H161        3.9770    6.2420   -3.9410 hx        1 ENT      0.105700
     36 H162        3.7880    7.2550   -2.4200 hx        1 ENT      0.105700
     37 H163        2.5010    6.0080   -2.8450 hx        1 ENT      0.105700
     38 H71         7.0610    4.2760    0.0640 hc        1 ENT      0.081200
     39 H72         7.8190    2.9400   -0.9010 hc        1 ENT      0.081200
     40 H151        9.4580    3.6310   -6.2950 hc        1 ENT      0.056144
     41 H152       10.5290    5.0370   -6.7170 hc        1 ENT      0.056144
     42 H153       10.4690    4.4220   -5.0090 hc        1 ENT      0.056144
     43 H141        7.4290    4.7500   -7.1640 hc        1 ENT      0.056144
     44 H142        8.3620    6.2280   -7.6600 hc        1 ENT      0.056144
     45 H143        6.9390    6.3860   -6.5420 hc        1 ENT      0.056144
     46 H131        8.4700    7.6330   -4.9460 hc        1 ENT      0.056144
     47 H132        9.9000    7.3600   -6.0380 hc        1 ENT      0.056144
     48 H133        9.9550    6.8110   -4.3040 hc        1 ENT      0.056144
     49 H32         4.2150    4.3040   -2.5750 hn        1 ENT      0.497800
@<TRIPOS>BOND
     1    1    2 1   
     2    2    3 1   
     3    2    4 1   
     4    2    5 1   
     5    5    6 1   
     6    5   27 1   
     7    6    7 ar  
     8    6    9 ar  
     9    7    8 ar  
    10    7   28 1   
    11    8   19 ar  
    12    8   29 1   
    13    9   10 ar  
    14    9   30 1   
    15   10   11 1   
    16   10   19 ar  
    17   11   12 1   
    18   11   31 1   
    19   11   32 1   
    20   12   13 1   
    21   12   20 1   
    22   13   14 1   
    23   13   18 1   
    24   13   33 1   
    25   14   15 2   
    26   14   16 1   
    27   16   17 1   
    28   16   34 1   
    29   16   49 1   
    30   17   35 1   
    31   17   36 1   
    32   17   37 1   
    33   18   19 1   
    34   18   38 1   
    35   18   39 1   
    36   20   21 2   
    37   20   22 1   
    38   22   23 1   
    39   23   24 1   
    40   23   25 1   
    41   23   26 1   
    42   24   40 1   
    43   24   41 1   
    44   24   42 1   
    45   25   43 1   
    46   25   44 1   
    47   25   45 1   
    48   26   46 1   
    49   26   47 1   
    50   26   48 1   
@<TRIPOS>SUBSTRUCTURE
     1 ENT         1 TEMP              0 ****  ****    0 ROOT
