@<TRIPOS>MOLECULE
ENT
   48    46     1     0     0
SMALL
bcc


@<TRIPOS>ATOM
      1 O6         -4.7660   -1.9580    4.0330 o         1 ENT     -1.054333
      2 S1         -5.8670   -1.1300    3.4170 s4        1 ENT      2.835000
      3 O4         -7.0030   -2.0150    2.9040 o         1 ENT     -1.054333
      4 O5         -6.5910   -0.2930    4.4700 o         1 ENT     -1.054333
      5 N1         -5.2490   -0.1530    2.1740 n2        1 ENT     -0.769000
      6 C5         -3.8030    0.0350    2.0360 c2        1 ENT      0.182000
      7 C4         -3.0500    0.5770    3.1210 c1        1 ENT     -0.197000
      8 C1         -1.6960    0.8610    2.9560 c1        1 ENT     -0.081000
      9 C2         -3.1740   -0.2150    0.7850 c2        1 ENT     -0.234000
     10 C6         -1.8340    0.0660    0.6200 c1        1 ENT     -0.047000
     11 C8         -1.0810   -0.1880   -0.7600 c2        1 ENT     -0.012000
     12 N2          0.2720   -0.0180   -0.7680 n         1 ENT     -0.251000
     13 C9          0.8290    1.0740   -0.0190 c3        1 ENT      0.007000
     14 C10         0.5060    2.4540   -0.7420 c2        1 ENT      0.299000
     15 O3         -0.1950    2.4690   -1.7330 o         1 ENT     -0.346000
     16 N3          1.1880    3.6450   -0.3390 n         1 ENT     -0.382000
     17 C16         0.8490    4.8810   -0.9290 c3        1 ENT     -0.080000
     18 C7          0.3860    1.0860    1.4270 c3        1 ENT     -0.114000
     19 C3         -1.0710    0.6140    1.7170 c2        1 ENT     -0.180000
     20 C11         1.1570   -1.0630   -1.3310 c2        1 ENT      0.397000
     21 O1          0.6770   -2.0340   -1.8710 o         1 ENT     -0.400000
     22 O2          2.5630   -0.9750   -1.1500 os        1 ENT     -0.296000
     23 C12         3.3090   -2.0190   -1.8440 c3        1 ENT      0.116000
     24 C15         2.4250   -3.2920   -1.9530 c3        1 ENT     -0.230667
     25 C14         3.6720   -1.5470   -3.2160 c3        1 ENT     -0.230667
     26 C13         4.5850   -2.3430   -1.0720 c3        1 ENT     -0.230667
     27 HN1        -5.8400    0.2040    1.5120 hn        1 ENT      0.206000
     28 H4         -3.5190    0.8370    3.9840 ha        1 ENT      0.174000
     29 H1         -1.1620    1.2400    3.7250 ha        1 ENT      0.112000
     30 H2         -3.7400   -0.4910   -0.0230 ha        1 ENT      0.123000
     31 H81        -1.4850    0.4580   -1.4640 h4        1 ENT      0.128000
     32 H82        -1.2780   -1.1330   -1.0530 h4        1 ENT      0.128000
     33 H9          1.7980    1.0620   -0.0690 h1        1 ENT      0.128000
     34 HN3         1.8960    3.5890    0.1820 hn        1 ENT      0.211000
     35 H161        1.4140    5.6060   -0.5360 h1        1 ENT      0.079333
     36 H162       -0.0650    5.0690   -0.7640 h1        1 ENT      0.079333
     37 H163        1.0050    4.8340   -1.9080 h1        1 ENT      0.079333
     38 H71         0.4600    1.9710    1.7380 hc        1 ENT      0.083000
     39 H72         0.9920    0.4950    1.9270 hc        1 ENT      0.083000
     40 H151        1.9970   -3.4800   -1.0670 hc        1 ENT      0.088667
     41 H152        2.9440   -4.0090   -2.2010 hc        1 ENT      0.088667
     42 H153        1.7340   -3.1480   -2.6230 hc        1 ENT      0.088667
     43 H141        4.0590   -0.7000   -3.1620 hc        1 ENT      0.088667
     44 H142        4.2960   -2.1550   -3.6050 hc        1 ENT      0.088667
     45 H143        2.8480   -1.5020   -3.7850 hc        1 ENT      0.088667
     46 H131        4.3530   -2.6360   -0.1520 hc        1 ENT      0.088667
     47 H132        5.1570   -1.5310   -1.0270 hc        1 ENT      0.088667
     48 H133        5.0980   -3.1000   -1.5600 hc        1 ENT      0.088667
@<TRIPOS>BOND
     1    1    2 1   
     2    2    3 1   
     3    2    4 1   
     4    5    6 1   
     5    5   27 1   
     6    6    7 1   
     7    6    9 1   
     8    7   28 1   
     9    8   19 1   
    10    8   29 1   
    11    9   10 1   
    12    9   30 1   
    13   10   19 1   
    14   11   12 1   
    15   11   31 1   
    16   11   32 1   
    17   12   13 1   
    18   12   20 1   
    19   13   14 1   
    20   13   18 1   
    21   13   33 1   
    22   14   15 1   
    23   14   16 1   
    24   16   17 1   
    25   16   34 1   
    26   17   35 1   
    27   17   36 1   
    28   17   37 1   
    29   18   19 1   
    30   18   38 1   
    31   18   39 1   
    32   20   21 1   
    33   20   22 1   
    34   22   23 1   
    35   23   24 1   
    36   23   25 1   
    37   23   26 1   
    38   24   40 1   
    39   24   41 1   
    40   24   42 1   
    41   25   43 1   
    42   25   44 1   
    43   25   45 1   
    44   26   46 1   
    45   26   47 1   
    46   26   48 1   
@<TRIPOS>SUBSTRUCTURE
     1 ENT         1 TEMP              0 ****  ****    0 ROOT
