@<TRIPOS>MOLECULE
ENT
   49    50     1     0     0
SMALL
bcc


@<TRIPOS>ATOM
      1 O6         -0.3370    3.5720   -1.7070 o         1 ENT     -0.739533
      2 S1          0.8070    3.6380   -0.8980 s6        1 ENT      1.552700
      3 O4          1.7950    4.5700   -1.4080 o         1 ENT     -0.739533
      4 O5          0.6140    3.8180    0.4790 o         1 ENT     -0.739533
      5 N1          1.5920    2.1120   -1.1190 nu        1 ENT     -0.752500
      6 C5          2.9590    2.0730   -0.9140 ca        1 ENT      0.218600
      7 C4          3.4920    2.4760    0.3430 ca        1 ENT     -0.164000
      8 C1          4.8130    2.8860    0.4460 ca        1 ENT     -0.090000
      9 C2          3.8620    1.8420   -1.9850 ca        1 ENT     -0.187000
     10 C6          5.1680    2.3010   -1.8770 ca        1 ENT     -0.107300
     11 C8          6.0800    2.3480   -3.0670 c3        1 ENT      0.127300
     12 N2          6.6060    3.7010   -3.2640 n         1 ENT     -0.468800
     13 C9          6.8210    4.5130   -2.0910 c3        1 ENT      0.053700
     14 C10         5.7180    5.5820   -1.8940 c         1 ENT      0.530100
     15 O3          5.9580    6.7100   -1.4800 o         1 ENT     -0.454100
     16 N3          4.2930    5.2380   -2.1650 ny        1 ENT     -0.646800
     17 C16         3.6000    6.2440   -3.0010 c3        1 ENT      0.091100
     18 C7          6.8770    3.6890   -0.7790 c3        1 ENT     -0.038100
     19 C3          5.6220    2.9020   -0.6910 ca        1 ENT     -0.189300
     20 C11         7.3690    3.9100   -4.4230 c         1 ENT      0.746100
     21 O1          7.4170    3.1300   -5.3830 o         1 ENT     -0.554000
     22 O2          8.0260    5.1110   -4.4330 os        1 ENT     -0.454900
     23 C12         8.7950    5.4930   -5.6140 c3        1 ENT      0.187800
     24 C15         9.9290    4.5120   -5.8500 c3        1 ENT     -0.116433
     25 C14         7.8880    5.6120   -6.8250 c3        1 ENT     -0.116433
     26 C13         9.3430    6.8620   -5.2150 c3        1 ENT     -0.116433
     27 HN1         1.2100    1.4000   -1.6880 hn        1 ENT      0.431800
     28 H4          2.8190    2.5430    1.2160 ha        1 ENT      0.184000
     29 H1          5.2040    3.2470    1.4100 ha        1 ENT      0.143000
     30 H2          3.5090    1.3780   -2.9180 ha        1 ENT      0.147000
     31 H81         5.5410    2.0540   -4.0120 h1        1 ENT      0.078200
     32 H82         6.9330    1.6240   -2.9150 h1        1 ENT      0.078200
     33 H9          7.7800    5.1110   -2.1950 h1        1 ENT      0.126700
     34 HN3         4.2070    4.3130   -2.6100 hn        1 ENT      0.497800
     35 H161        3.7690    7.2660   -2.5690 hx        1 ENT      0.105700
     36 H162        3.9940    6.2000   -4.0480 hx        1 ENT      0.105700
     37 H163        2.4960    6.0010   -2.9780 hx        1 ENT      0.105700
     38 H71         6.9950    4.3870    0.0890 hc        1 ENT      0.081200
     39 H72         7.7770    3.0200   -0.8110 hc        1 ENT      0.081200
     40 H151       10.5120    4.3640   -4.9100 hc        1 ENT      0.056144
     41 H152        9.5310    3.5250   -6.1890 hc        1 ENT      0.056144
     42 H153       10.6080    4.9170   -6.6380 hc        1 ENT      0.056144
     43 H141        7.5200    4.6060   -7.1420 hc        1 ENT      0.056144
     44 H142        8.4600    6.0690   -7.6690 hc        1 ENT      0.056144
     45 H143        7.0120    6.2610   -6.5890 hc        1 ENT      0.056144
     46 H131        9.9770    6.7740   -4.3020 hc        1 ENT      0.056144
     47 H132        9.9590    7.2610   -6.0550 hc        1 ENT      0.056144
     48 H133        8.5050    7.5690   -5.0050 hc        1 ENT      0.056144
     49 H32         3.7500    5.1610   -1.2700 hn        1 ENT      0.497800
@<TRIPOS>BOND
     1    1    2 1   
     2    2    3 1   
     3    2    4 1   
     4    2    5 1   
     5    5    6 1   
     6    5   27 1   
     7    6    7 ar  
     8    6    9 ar  
     9    7    8 ar  
    10    7   28 1   
    11    8   19 ar  
    12    8   29 1   
    13    9   10 ar  
    14    9   30 1   
    15   10   11 1   
    16   10   19 ar  
    17   11   12 1   
    18   11   31 1   
    19   11   32 1   
    20   12   13 1   
    21   12   20 1   
    22   13   14 1   
    23   13   18 1   
    24   13   33 1   
    25   14   15 2   
    26   14   16 1   
    27   16   17 1   
    28   16   34 1   
    29   16   49 1   
    30   17   35 1   
    31   17   36 1   
    32   17   37 1   
    33   18   19 1   
    34   18   38 1   
    35   18   39 1   
    36   20   21 2   
    37   20   22 1   
    38   22   23 1   
    39   23   24 1   
    40   23   25 1   
    41   23   26 1   
    42   24   40 1   
    43   24   41 1   
    44   24   42 1   
    45   25   43 1   
    46   25   44 1   
    47   25   45 1   
    48   26   46 1   
    49   26   47 1   
    50   26   48 1   
@<TRIPOS>SUBSTRUCTURE
     1 ENT         1 TEMP              0 ****  ****    0 ROOT
