@<TRIPOS>MOLECULE
ENV
   49    42     1     0     0
SMALL
bcc


@<TRIPOS>ATOM
      1 C2        289.6640  -52.6360  -96.8910 c2        1 ENV      0.297000
      2 C3        289.9240  -55.0580  -96.6710 c3        1 ENV      0.138000
      3 C4        288.5140  -52.5110  -95.9760 c3        1 ENV     -0.174000
      4 F4        289.9660  -54.9130  -95.3260 f         1 ENV     -0.121000
      5 O5        290.2860  -53.7310  -97.2000 os        1 ENV     -0.149000
      6 C6        287.7640  -51.2720  -96.2430 c2        1 ENV     -0.373000
      7 C7        287.6820  -50.1730  -95.4540 c2        1 ENV      0.088000
      8 N8        288.3130  -49.9650  -94.2480 n         1 ENV     -0.341000
      9 C9        288.2070  -48.7460  -93.5500 c2        1 ENV      0.315000
     10 C10       288.9100  -48.6290  -92.2110 c3        1 ENV     -0.099000
     11 O11       287.5500  -47.8100  -94.0220 o         1 ENV     -0.283000
     12 H3        290.7600  -55.7030  -97.0730 h2        1 ENV      0.174500
     13 H3A       290.0920  -51.7420  -97.4180 h4        1 ENV      0.238000
     14 H4        288.9200  -52.5720  -94.9190 hc        1 ENV      0.166500
     15 H6        288.9010  -55.3330  -97.0480 h2        1 ENV      0.174500
     16 H6A       287.1640  -51.2780  -97.1680 ha        1 ENV      0.165000
     17 H7        287.5410  -45.6570  -95.1650 ha        1 ENV      0.007900
     18 HN8       287.1470  -45.4930  -94.6390 ha        1 ENV      0.007900
     19 C8        290.0400  -49.5120  -92.0630 c1        1 ENV     -0.163000
     20 H10       285.8770  -47.2030  -95.6370 ha        1 ENV      0.007900
     21 N2        290.9560  -50.2170  -91.9360 n1        1 ENV     -0.005000
     22 C91      -369.9720   64.7640  123.0720 c2        1 ENV      0.189000
     23 C101     -370.1490   63.9530  121.8030 c3        1 ENV     -0.058000
     24 C11      -369.0160   63.1810  124.8580 c3        1 ENV     -0.138000
     25 O3       -369.7610   65.9700  123.0920 o         1 ENV     -0.167000
     26 O4       -370.2790   62.5960  122.1920 oh        1 ENV     -0.382000
     27 C12      -366.5990   63.0980  124.3730 c1        1 ENV      0.338000
     28 C13      -367.6930   63.7850  124.6610 c2        1 ENV     -0.465000
     29 C14      -370.1150   63.9350  124.3040 c2        1 ENV      0.253000
     30 O51      -365.6030   62.5260  124.1040 o         1 ENV     -0.052000
     31 H4A       287.8360  -53.4110  -96.0870 hc        1 ENV      0.166500
     32 H7A       287.0470  -49.3120  -95.7850 h4        1 ENV      0.205000
     33 H10A      285.5770  -47.7560  -95.8900 ha        1 ENV      0.007900
     34 H12       288.1500  -48.8340  -91.4020 hc        1 ENV      0.172000
     35 H13       289.2460  -47.5560  -92.0940 hc        1 ENV      0.172000
     36 H14      -371.7500   61.1580  123.6650 ha        1 ENV      0.007900
     37 H15      -369.2450   64.0960  121.1480 h1        1 ENV      0.150000
     38 H16      -370.4970   62.0770  121.4040 ho        1 ENV      0.267000
     39 H17      -371.0700   64.3170  121.2680 h1        1 ENV      0.150000
     40 H18      -369.1150   62.1640  124.3070 hc        1 ENV      0.215000
     41 H19      -369.8220   66.0290  125.4230 ha        1 ENV      0.007900
     42 H20      -370.0730   65.4130  125.6040 ha        1 ENV      0.007900
     43 H21      -367.5890   64.8700  124.8420 ha        1 ENV      0.208000
     44 H22      -369.0100   60.5720  122.7900 ha        1 ENV      0.007900
     45 H23      -371.1520   63.7350  124.6560 ha        1 ENV      0.203000
     46 H24      -369.6110   60.4300  123.0690 ha        1 ENV      0.007900
     47 H25      -369.1950   62.9310  125.9510 hc        1 ENV      0.215000
     48 H82       288.8270  -50.7040  -93.8260 hn        1 ENV      0.231000
     49 H221     -371.4200   61.6170  124.0410 ha        1 ENV      0.007900
@<TRIPOS>BOND
     1    1    3 1   
     2    1    5 1   
     3    1   13 1   
     4    2    4 1   
     5    2    5 1   
     6    2   12 1   
     7    2   15 1   
     8    3    6 1   
     9    3   14 1   
    10    3   31 1   
    11    6    7 1   
    12    6   16 1   
    13    7    8 1   
    14    7   32 1   
    15    8    9 1   
    16    8   48 1   
    17    9   10 1   
    18    9   11 1   
    19   10   19 1   
    20   10   34 1   
    21   10   35 1   
    22   17   18 1   
    23   19   21 1   
    24   20   33 1   
    25   22   23 1   
    26   22   25 1   
    27   22   29 1   
    28   23   26 1   
    29   23   37 1   
    30   23   39 1   
    31   24   28 1   
    32   24   29 1   
    33   24   40 1   
    34   24   47 1   
    35   26   38 1   
    36   27   28 1   
    37   27   30 1   
    38   28   43 1   
    39   29   45 1   
    40   36   49 1   
    41   41   42 1   
    42   44   46 1   
@<TRIPOS>SUBSTRUCTURE
     1 ENV         1 TEMP              0 ****  ****    0 ROOT
