@<TRIPOS>MOLECULE
ENV
   47    45     1     0     0
SMALL
bcc


@<TRIPOS>ATOM
      1 C2          5.2690   -3.2820   -5.0040 c1        1 ENV      0.192000
      2 C3          6.2090   -4.4140   -5.4120 c2        1 ENV     -0.037000
      3 C4          4.9630   -3.0350   -3.5230 c3        1 ENV     -0.208000
      4 F4          6.0300   -4.6980   -6.7160 f         1 ENV     -0.149000
      5 O5          4.7260   -2.6060   -5.8570 o         1 ENV     -0.255000
      6 C6          3.9770   -1.8620   -3.3930 c3        1 ENV     -0.182000
      7 C7          3.5390   -1.7200   -1.9240 c3        1 ENV     -0.029000
      8 N8          2.4780   -0.7270   -1.8300 n         1 ENV     -0.376000
      9 C9          1.8400   -0.4630   -0.5510 c2        1 ENV      0.303000
     10 C10         0.7670    0.6380   -0.4390 c3        1 ENV     -0.218000
     11 O11         2.2210   -1.0430    0.4500 o         1 ENV     -0.369000
     12 H3          6.0150   -5.2130   -4.8730 h4        1 ENV      0.103500
     13 H3A         7.1360   -4.1380   -5.2630 h4        1 ENV      0.103500
     14 H4          4.5620   -3.8460   -3.1300 hc        1 ENV      0.109000
     15 H6          3.1930   -2.0320   -3.9520 hc        1 ENV      0.100500
     16 H6A         4.4100   -1.0420   -3.6830 hc        1 ENV      0.100500
     17 H7          4.3080   -1.4320   -1.3770 h1        1 ENV      0.100500
     18 HN8         2.2150   -0.2800   -2.5650 hn        1 ENV      0.229000
     19 C8         -0.0230    0.4600    0.8850 c3        1 ENV     -0.029000
     20 H10         1.2000    1.5210   -0.4460 hc        1 ENV      0.118000
     21 N2         -1.1910    1.3250    0.8730 n         1 ENV     -0.359000
     22 C91        -1.9990    1.4750    2.0730 c2        1 ENV      0.266000
     23 C101       -3.0870    2.5550    2.1340 c3        1 ENV      0.021000
     24 C11        -4.1900    2.1170    3.0950 c3        1 ENV     -0.113000
     25 O3         -1.8360    0.7250    3.0090 o         1 ENV     -0.376000
     26 O4         -2.5330    3.7420    2.5780 oh        1 ENV     -0.319000
     27 C12        -4.7330    0.7460    2.6620 c3        1 ENV     -0.025000
     28 C13        -5.3240    3.1480    3.0730 c3        1 ENV     -0.215000
     29 C14        -3.6250    2.0160    4.5080 c3        1 ENV     -0.215000
     30 O51        -5.9040    0.4420    3.4130 oh        1 ENV     -0.321000
     31 H4A         5.7920   -2.8190   -3.0500 hc        1 ENV      0.109000
     32 H7A         3.2070   -2.5870   -1.5950 h1        1 ENV      0.100500
     33 H10A        0.1480    0.5710   -1.2010 hc        1 ENV      0.118000
     34 H12         0.5510    0.6970    1.6420 h1        1 ENV      0.108000
     35 H13        -0.3060   -0.4650    0.9700 h1        1 ENV      0.108000
     36 H14        -1.4170    1.7820    0.1070 hn        1 ENV      0.229000
     37 H15        -3.4670    2.6870    1.2390 h1        1 ENV      0.143000
     38 H16        -2.5380    4.3410    1.9110 ho        1 ENV      0.209000
     39 H17        -4.0590    0.0650    2.8220 h1        1 ENV      0.105500
     40 H18        -4.9550    0.7690    1.7020 h1        1 ENV      0.105500
     41 H19        -6.0320    2.8670    3.6840 hc        1 ENV      0.085500
     42 H20        -5.6870    3.2180    2.1590 hc        1 ENV      0.085500
     43 H21        -4.9770    4.0220    3.3550 hc        1 ENV      0.085500
     44 H22        -4.3230    2.2620    5.1600 hc        1 ENV      0.085500
     45 H23        -3.3300    1.0990    4.6760 hc        1 ENV      0.085500
     46 H24        -2.8620    2.6270    4.5990 hc        1 ENV      0.085500
     47 H25        -6.3600   -0.2130    3.0060 ho        1 ENV      0.198000
@<TRIPOS>BOND
     1    1    3 1   
     2    1    5 1   
     3    2    4 1   
     4    2   12 1   
     5    2   13 1   
     6    3    6 1   
     7    3   14 1   
     8    3   31 1   
     9    6    7 1   
    10    6   15 1   
    11    6   16 1   
    12    7    8 1   
    13    7   17 1   
    14    7   32 1   
    15    8    9 1   
    16    8   18 1   
    17    9   10 1   
    18    9   11 1   
    19   10   19 1   
    20   10   20 1   
    21   10   33 1   
    22   19   21 1   
    23   19   34 1   
    24   19   35 1   
    25   21   22 1   
    26   21   36 1   
    27   22   23 1   
    28   22   25 1   
    29   23   24 1   
    30   23   26 1   
    31   23   37 1   
    32   24   27 1   
    33   24   28 1   
    34   24   29 1   
    35   26   38 1   
    36   27   30 1   
    37   27   39 1   
    38   27   40 1   
    39   28   41 1   
    40   28   42 1   
    41   28   43 1   
    42   29   44 1   
    43   29   45 1   
    44   29   46 1   
    45   30   47 1   
@<TRIPOS>SUBSTRUCTURE
     1 ENV         1 TEMP              0 ****  ****    0 ROOT
