@<TRIPOS>MOLECULE
ENV
   49    41     1     0     0
SMALL
bcc


@<TRIPOS>ATOM
      1 C2        100.5880  -19.8950  -25.3990 c2        1 ENV      0.080000
      2 C3        100.4620  -19.3480  -24.0070 c1        1 ENV      0.198000
      3 C4        100.6440  -21.4110  -25.4830 c3        1 ENV     -0.042000
      4 F4        101.4520  -18.7450  -23.4640 f         1 ENV      0.012000
      5 O5        100.3950  -19.2030  -26.4070 o         1 ENV     -0.279000
      6 C6        102.0520  -21.9120  -25.7700 c3        1 ENV     -0.191000
      7 C7        102.8240  -22.1000  -24.4860 c3        1 ENV     -0.223000
      8 N8        100.5990  -21.1370  -28.4100 n3        1 ENV     -0.273000
      9 C9         99.7100  -21.8560  -27.7390 c2        1 ENV      0.273000
     10 C10        98.5970  -22.6620  -28.4020 c3        1 ENV     -0.185000
     11 O11        99.6570  -21.9460  -26.3970 os        1 ENV     -0.184000
     12 H3        100.4840  -21.0120  -22.1620 ha        1 ENV      0.003300
     13 H3A       100.9500  -21.2360  -22.6040 ha        1 ENV      0.003300
     14 H4        102.6020  -21.1890  -26.4280 hc        1 ENV      0.108000
     15 H6        101.9860  -22.8930  -26.3120 hc        1 ENV      0.108000
     16 H6A       102.3400  -22.8670  -23.8340 hc        1 ENV      0.101333
     17 H7        103.8630  -22.4430  -24.7190 hc        1 ENV      0.101333
     18 HN8       100.5620  -21.0980  -29.4110 hn        1 ENV      0.284000
     19 C8         97.1990  -22.4300  -28.0150 c1        1 ENV     -0.022000
     20 H10        98.6380  -22.5170  -29.5210 hc        1 ENV      0.184000
     21 N2         96.7560  -21.7240  -27.0060 n         1 ENV     -0.248000
     22 C91        95.3470  -21.5850  -26.7270 c2        1 ENV      0.270000
     23 C101     -199.3180   39.8480   57.4010 c1        1 ENV      0.247000
     24 C11      -200.5120   39.9590   57.6710 c1        1 ENV     -0.262000
     25 O3         94.4780  -22.0070  -27.4740 o         1 ENV     -0.188000
     26 O4       -198.0650   39.6410   57.2320 oh        1 ENV     -0.046000
     27 C12      -204.6520   42.7000   55.6370 c1        1 ENV      0.290000
     28 C13      -201.8160   40.0900   57.9540 c2        1 ENV      0.297000
     29 C14      -202.4750   39.3990   59.0560 c3        1 ENV     -0.280000
     30 O51      -203.8870   42.0260   56.2250 o         1 ENV     -0.287000
     31 H4A       100.2530  -21.8650  -24.5140 h1        1 ENV      0.190000
     32 H7A       102.8900  -21.1400  -23.9180 hc        1 ENV      0.101333
     33 H10A       98.8020  -23.7560  -28.1890 hc        1 ENV      0.184000
     34 H12         5.1520   -1.0080    2.0540 ha        1 ENV      0.003300
     35 H13         5.7870   -1.1370    1.8590 ha        1 ENV      0.003300
     36 H14      -196.1870   40.6740   55.2810 ha        1 ENV      0.003300
     37 H15        95.1730  -21.0490  -25.7660 h5        1 ENV      0.163000
     38 H16      -197.7220   40.1640   56.4500 ho        1 ENV      0.311000
     39 H17      -195.8110   39.2210   56.9850 ha        1 ENV      0.003300
     40 H18      -195.9380   38.8290   57.5250 ha        1 ENV      0.003300
     41 H19       -21.7010    1.2120   -4.8330 ha        1 ENV      0.003300
     42 H20      -202.4390   40.7650   57.3140 ha        1 ENV      0.212000
     43 H21       -22.0910    1.3640   -4.3010 ha        1 ENV      0.003300
     44 H22      -203.3210   38.7730   58.6500 hc        1 ENV      0.165000
     45 H23      -201.7930   38.7430   59.6530 hc        1 ENV      0.165000
     46 H24        97.3580  -21.2530  -26.3500 hn        1 ENV      0.181000
     47 H25      -202.9440   40.1600   59.7450 hc        1 ENV      0.165000
     48 H82       101.2510  -20.5260  -27.9520 hn        1 ENV      0.284000
     49 H221     -196.7150   41.0190   55.0300 ha        1 ENV      0.003300
@<TRIPOS>BOND
     1    1    2 1   
     2    1    3 1   
     3    1    5 1   
     4    2    4 1   
     5    3    6 1   
     6    3   11 1   
     7    3   31 1   
     8    6    7 1   
     9    6   14 1   
    10    6   15 1   
    11    7   16 1   
    12    7   17 1   
    13    7   32 1   
    14    8    9 1   
    15    8   18 1   
    16    8   48 1   
    17    9   10 1   
    18    9   11 1   
    19   10   19 1   
    20   10   20 1   
    21   10   33 1   
    22   12   13 1   
    23   19   21 1   
    24   21   22 1   
    25   21   46 1   
    26   22   25 1   
    27   22   37 1   
    28   23   24 1   
    29   23   26 1   
    30   24   28 1   
    31   26   38 1   
    32   27   30 1   
    33   28   29 1   
    34   28   42 1   
    35   29   44 1   
    36   29   45 1   
    37   29   47 1   
    38   34   35 1   
    39   36   49 1   
    40   39   40 1   
    41   41   43 1   
@<TRIPOS>SUBSTRUCTURE
     1 ENV         1 TEMP              0 ****  ****    0 ROOT
