@<TRIPOS>MOLECULE
ENV
   47    46     1     0     0
SMALL
bcc


@<TRIPOS>ATOM
      1 C2         -6.3650   -0.5340    1.3070 c         1 ENV      0.531100
      2 C3         -7.8410   -0.5050    0.9430 c3        1 ENV      0.062900
      3 C4         -5.5420    0.4730    0.5580 c3        1 ENV     -0.179400
      4 F4         -8.6170   -1.2990    1.7590 f         1 ENV     -0.221300
      5 O5         -5.9050   -1.3080    2.1470 o         1 ENV     -0.494100
      6 C6         -4.0880    0.0680    0.4670 c3        1 ENV     -0.104400
      7 C7         -3.2750    1.1940   -0.1740 c3        1 ENV      0.086000
      8 N8         -1.8790    0.9030   -0.3340 n         1 ENV     -0.565900
      9 C9         -1.3210    0.5980   -1.5620 c         1 ENV      0.657100
     10 C10         0.1370    0.1790   -1.5810 c3        1 ENV     -0.185400
     11 O11        -1.9760    0.6930   -2.6190 o         1 ENV     -0.608100
     12 H3         -8.2080    0.5570    1.0110 h1        1 ENV      0.064200
     13 H3A        -7.9480   -0.8610   -0.1210 h1        1 ENV      0.064200
     14 H4         -5.9650    0.6140   -0.4720 hc        1 ENV      0.069200
     15 H6         -3.7000   -0.1640    1.4940 hc        1 ENV      0.061700
     16 H6A        -3.9980   -0.8700   -0.1410 hc        1 ENV      0.061700
     17 H7         -3.7120    1.4340   -1.1860 h1        1 ENV      0.061200
     18 HN8        -1.3630    0.6910    0.4870 hn        1 ENV      0.314500
     19 C8          1.0360    1.3710   -1.2360 c3        1 ENV      0.097000
     20 H10         0.3060   -0.6600   -0.8570 hc        1 ENV      0.075200
     21 N2          2.4400    1.0850   -1.2840 n         1 ENV     -0.564900
     22 C91         3.1480    0.6630   -0.1750 c         1 ENV      0.628100
     23 C101        4.6440    0.3620   -0.3830 c3        1 ENV      0.075100
     24 C11         5.2440   -0.5770    0.6830 c3        1 ENV     -0.062000
     25 O3          2.6010    0.6160    0.9440 o         1 ENV     -0.608100
     26 O4          4.8840   -0.1070   -1.7000 oh        1 ENV     -0.598800
     27 C12         6.6770   -0.9150    0.2320 c3        1 ENV      0.133400
     28 C13         5.3100    0.1370    2.0250 c3        1 ENV     -0.095600
     29 C14         4.4390   -1.8570    0.8160 c3        1 ENV     -0.095600
     30 O51         7.2550   -1.7660    1.2090 oh        1 ENV     -0.597800
     31 H4A        -5.6350    1.4550    1.0970 hc        1 ENV      0.069200
     32 H7A        -3.3630    2.1150    0.4740 h1        1 ENV      0.061200
     33 H10A        0.3650   -0.2000   -2.6120 hc        1 ENV      0.075200
     34 H12         0.8250    2.2030   -1.9680 h1        1 ENV      0.069700
     35 H13         0.7840    1.7340   -0.1980 h1        1 ENV      0.069700
     36 H14         2.8700    1.0090   -2.1770 hn        1 ENV      0.323500
     37 H15         5.1840    1.3560   -0.3450 h1        1 ENV      0.098700
     38 H16         4.5950   -1.0280   -1.7400 ho        1 ENV      0.410000
     39 H17         6.6590   -1.4390   -0.7610 h1        1 ENV      0.027700
     40 H18         7.2770    0.0290    0.1390 h1        1 ENV      0.027700
     41 H19         4.2830    0.3500    2.4070 hc        1 ENV      0.050367
     42 H20         5.8460   -0.5130    2.7600 hc        1 ENV      0.050367
     43 H21         5.8680    1.0980    1.9270 hc        1 ENV      0.050367
     44 H22         4.3680   -2.3860   -0.1650 hc        1 ENV      0.050367
     45 H23         4.9440   -2.5370    1.5450 hc        1 ENV      0.050367
     46 H24         3.4090   -1.6310    1.1850 hc        1 ENV      0.050367
     47 H25         8.1650   -1.9180    0.9310 ho        1 ENV      0.403000
@<TRIPOS>BOND
     1    1    2 1   
     2    1    3 1   
     3    1    5 2   
     4    2    4 1   
     5    2   12 1   
     6    2   13 1   
     7    3    6 1   
     8    3   14 1   
     9    3   31 1   
    10    6    7 1   
    11    6   15 1   
    12    6   16 1   
    13    7    8 1   
    14    7   17 1   
    15    7   32 1   
    16    8    9 1   
    17    8   18 1   
    18    9   10 1   
    19    9   11 2   
    20   10   19 1   
    21   10   20 1   
    22   10   33 1   
    23   19   21 1   
    24   19   34 1   
    25   19   35 1   
    26   21   22 1   
    27   21   36 1   
    28   22   23 1   
    29   22   25 2   
    30   23   24 1   
    31   23   26 1   
    32   23   37 1   
    33   24   27 1   
    34   24   28 1   
    35   24   29 1   
    36   26   38 1   
    37   27   30 1   
    38   27   39 1   
    39   27   40 1   
    40   28   41 1   
    41   28   42 1   
    42   28   43 1   
    43   29   44 1   
    44   29   45 1   
    45   29   46 1   
    46   30   47 1   
@<TRIPOS>SUBSTRUCTURE
     1 ENV         1 TEMP              0 ****  ****    0 ROOT
