@<TRIPOS>MOLECULE
ENV
   49    44     1     0     0
SMALL
bcc


@<TRIPOS>ATOM
      1 C2         -1.3890    0.1790    0.2150 c2        1 ENV      0.270000
      2 C3         -0.1410   -1.9390    0.4700 c1        1 ENV      0.012000
      3 C4         -1.0260    0.8040    1.5310 c3        1 ENV     -0.239000
      4 F4          0.8810   -1.9590   -0.3050 f         1 ENV     -0.016000
      5 O5         -2.5180   -0.2880   -0.0130 o         1 ENV     -0.422000
      6 C6         -2.2050    1.0290    2.4530 c3        1 ENV     -0.186000
      7 C7         -2.7280   -0.2850    2.9960 c3        1 ENV     -0.037000
      8 N8         -5.1070   -0.1760    1.3720 n8        1 ENV     -0.253000
      9 C9         -5.1520   -0.1140    2.6890 c2        1 ENV      0.306000
     10 C10        -6.4280   -0.0210    3.5060 c3        1 ENV     -0.278000
     11 O11        -4.0870   -0.1440    3.5040 os        1 ENV     -0.174000
     12 H3         -0.3990   -2.9510    0.8720 ha        1 ENV      0.036000
     13 H3A        -0.6100    0.2280   -0.5770 h4        1 ENV      0.143000
     14 H4         -0.5340    1.7960    1.3260 hc        1 ENV      0.144000
     15 H6         -1.8910    1.6890    3.3070 hc        1 ENV      0.109500
     16 H6A        -3.0150    1.5710    1.8960 hc        1 ENV      0.109500
     17 H7         -2.1930   -0.5910    3.9420 h1        1 ENV      0.153500
     18 HN8        -5.9560   -0.1560    0.8340 hn        1 ENV      0.314000
     19 C8         -7.5960    0.2070    2.6600 c1        1 ENV      0.107000
     20 H10        -7.8010   -2.2640    1.2250 ha        1 ENV      0.004250
     21 N2         -8.9300    0.3060    3.1550 ny        1 ENV     -0.160000
     22 C91        -9.2920    0.1280    4.6280 c2        1 ENV      0.243000
     23 C101      -10.7840    0.0290    4.9460 c3        1 ENV      0.049000
     24 C11       -11.0590    2.5100    4.5130 c3        1 ENV     -0.163000
     25 O3         -8.3550    0.0970    5.4070 o         1 ENV     -0.195000
     26 O4        -11.4340   -0.3650    3.7540 oh        1 ENV     -0.393000
     27 C12       -14.4410   -0.6970    4.1870 c1        1 ENV      0.114000
     28 C13       -11.2770    1.3690    5.4840 c3        1 ENV     -0.210000
     29 C14       -11.7440    3.7670    4.9880 c3        1 ENV     -0.220000
     30 O51       -15.5820   -0.9280    4.1920 o         1 ENV     -0.096000
     31 H4A        -0.2560    0.1510    2.0250 hc        1 ENV      0.144000
     32 H7A        -2.6850   -1.1130    2.2410 h1        1 ENV      0.153500
     33 H10A       -7.6250   -1.8370    1.7260 ha        1 ENV      0.004250
     34 H12        -6.5000   -0.9560    4.1540 hc        1 ENV      0.237000
     35 H13        -6.2970    0.8160    4.2760 hc        1 ENV      0.237000
     36 H14        -9.2880    1.2440    2.8640 hn        1 ENV      0.324500
     37 H15       -12.3770    1.2610    5.6960 hc        1 ENV      0.141000
     38 H16       -12.3990   -0.4050    3.9310 ho        1 ENV      0.304000
     39 H17       -10.8860   -0.7800    5.7330 h1        1 ENV      0.166000
     40 H18        -9.9560    2.7060    4.4090 hc        1 ENV      0.063000
     41 H19        -7.5220    2.8740    5.1890 ha        1 ENV      0.004250
     42 H20        -7.6620    2.3850    4.7370 ha        1 ENV      0.004250
     43 H21       -10.7680    1.5850    6.4610 hc        1 ENV      0.141000
     44 H22       -11.5480    4.6040    4.2750 hc        1 ENV      0.101333
     45 H23       -11.3690    4.0660    5.9970 hc        1 ENV      0.101333
     46 H24       -12.8490    3.6140    5.0540 hc        1 ENV      0.101333
     47 H25       -11.4550    2.2230    3.5020 hc        1 ENV      0.063000
     48 H82        -4.2280   -0.2320    0.8600 hn        1 ENV      0.314000
     49 H221       -9.5050   -0.3810    2.6090 hn        1 ENV      0.324500
@<TRIPOS>BOND
     1    1    3 1   
     2    1    5 1   
     3    1   13 1   
     4    2    4 1   
     5    2   12 1   
     6    3    6 1   
     7    3   14 1   
     8    3   31 1   
     9    6    7 1   
    10    6   15 1   
    11    6   16 1   
    12    7   11 1   
    13    7   17 1   
    14    7   32 1   
    15    8    9 1   
    16    8   18 1   
    17    8   48 1   
    18    9   10 1   
    19    9   11 1   
    20   10   19 1   
    21   10   34 1   
    22   10   35 1   
    23   19   21 1   
    24   20   33 1   
    25   21   22 1   
    26   21   36 1   
    27   21   49 1   
    28   22   23 1   
    29   22   25 1   
    30   23   26 1   
    31   23   28 1   
    32   23   39 1   
    33   24   28 1   
    34   24   29 1   
    35   24   40 1   
    36   24   47 1   
    37   26   38 1   
    38   27   30 1   
    39   28   37 1   
    40   28   43 1   
    41   29   44 1   
    42   29   45 1   
    43   29   46 1   
    44   41   42 1   
@<TRIPOS>SUBSTRUCTURE
     1 ENV         1 TEMP              0 ****  ****    0 ROOT
