@<TRIPOS>MOLECULE
ENW
   47    42     1     0     0
SMALL
bcc


@<TRIPOS>ATOM
      1 C2         39.8440  199.3970  370.7910 c2        1 ENW      0.187000
      2 C3         39.2480  198.0040  370.9350 c1        1 ENW      0.318000
      3 F4         39.9800  197.0120  370.5990 f         1 ENW      0.008000
      4 O4         40.6060  199.7840  371.8710 os        1 ENW     -0.282000
      5 O5         39.5550  200.2660  369.9650 o         1 ENW     -0.360000
      6 C6         40.7320  201.1510  372.1930 c3        1 ENW      0.159000
      7 C7         40.7150  201.2980  373.7060 c3        1 ENW     -0.221000
      8 N8         41.6840  202.1490  369.5990 n3        1 ENW     -0.293000
      9 C9         42.4970  201.9020  370.6200 c2        1 ENW      0.325000
     10 C10        43.9800  202.1440  370.5690 c3        1 ENW     -0.231000
     11 O11        42.1090  201.4320  371.8120 os        1 ENW     -0.197000
     12 H3         39.7010  201.0060  374.0760 hc        1 ENW      0.129667
     13 H3A        41.4800  200.6340  374.1770 hc        1 ENW      0.129667
     14 H6         39.9980  201.8100  371.6620 h2        1 ENW      0.137000
     15 H6A        40.5190  201.6260  376.9500 ha        1 ENW      0.002000
     16 H7         42.0570  202.5030  368.7400 hn        1 ENW      0.293000
     17 H7A        40.5730  201.5760  376.2760 ha        1 ENW      0.002000
     18 HN8        40.6990  201.9420  369.6180 hn        1 ENW      0.293000
     19 C71       -41.3500 -183.5990 -337.5900 c2        1 ENW      0.231000
     20 H10        44.4370  201.5360  369.7470 hc        1 ENW      0.158333
     21 H10A       44.1820  203.2310  370.3860 hc        1 ENW      0.158333
     22 N2        -40.9780 -183.4220 -338.8410 n         1 ENW     -0.224000
     23 C8        -41.9060 -183.2240 -339.9460 c2        1 ENW      0.261000
     24 H101      -39.3600 -183.4310 -336.7090 hc        1 ENW      0.149000
     25 C91       -41.3050 -183.1100 -341.3430 c3        1 ENW     -0.027000
     26 O41       -43.1080 -183.1990 -339.7000 o         1 ENW     -0.216000
     27 O51       -39.9440 -182.7650 -341.2920 oh        1 ENW     -0.321000
     28 C101      -40.8960 -182.9670 -335.2400 c3        1 ENW     -0.165000
     29 C11       -42.0310 -186.0350 -337.7080 c1        1 ENW      0.099000
     30 C12       -40.4060 -183.7500 -336.4470 c3        1 ENW     -0.205000
     31 C13       -40.8640 -181.4800 -335.4730 c3        1 ENW     -0.230000
     32 O6        -42.4230 -187.1310 -337.6870 o         1 ENW     -0.082000
     33 H11        44.4470  201.8470  371.5450 hc        1 ENW      0.158333
     34 H12       -42.4460 -183.5760 -337.3600 h4        1 ENW      0.214000
     35 H13       -41.9290 -182.3820 -341.9270 h1        1 ENW      0.157500
     36 H14       -39.8430 -181.8520 -341.5960 ho        1 ENW      0.244000
     37 H15       -41.9350 -183.2930 -334.9680 hc        1 ENW      0.116500
     38 H16       -41.3660 -184.1350 -341.8130 h1        1 ENW      0.157500
     39 H17       -37.8770 -183.1090 -340.2450 ha        1 ENW      0.002000
     40 H18       -38.1230 -182.7910 -339.6990 ha        1 ENW      0.002000
     41 H19       -40.3680 -184.8490 -336.1890 hc        1 ENW      0.149000
     42 H20       -41.2170 -180.9440 -334.5560 hc        1 ENW      0.091333
     43 H21       -41.5310 -181.1940 -336.3220 hc        1 ENW      0.091333
     44 H22       -39.8270 -181.1310 -335.7000 hc        1 ENW      0.091333
     45 H23       -40.2300 -183.2270 -334.3710 hc        1 ENW      0.116500
     46 H82        40.9270  202.3590  373.9810 hc        1 ENW      0.129667
     47 H221      -39.9980 -183.4140 -339.1020 hn        1 ENW      0.293000
@<TRIPOS>BOND
     1    1    2 1   
     2    1    4 1   
     3    1    5 1   
     4    2    3 1   
     5    4    6 1   
     6    6    7 1   
     7    6   11 1   
     8    6   14 1   
     9    7   12 1   
    10    7   13 1   
    11    7   46 1   
    12    8    9 1   
    13    8   16 1   
    14    8   18 1   
    15    9   10 1   
    16    9   11 1   
    17   10   20 1   
    18   10   21 1   
    19   10   33 1   
    20   15   17 1   
    21   19   22 1   
    22   19   30 1   
    23   19   34 1   
    24   22   23 1   
    25   22   47 1   
    26   23   25 1   
    27   23   26 1   
    28   24   30 1   
    29   25   27 1   
    30   25   35 1   
    31   25   38 1   
    32   27   36 1   
    33   28   30 1   
    34   28   31 1   
    35   28   37 1   
    36   28   45 1   
    37   29   32 1   
    38   30   41 1   
    39   31   42 1   
    40   31   43 1   
    41   31   44 1   
    42   39   40 1   
@<TRIPOS>SUBSTRUCTURE
     1 ENW         1 TEMP              0 ****  ****    0 ROOT
