@<TRIPOS>MOLECULE
ENW
   47    40     1     0     0
SMALL
bcc


@<TRIPOS>ATOM
      1 C2         39.1690   39.7310   45.5910 c2        1 ENW      0.107000
      2 C3         38.8410   39.2600   44.1610 c1        1 ENW      0.314000
      3 F4         37.8160   38.5250   44.0060 f         1 ENW      0.038000
      4 O4         36.4390   40.6710   44.6380 o         1 ENW     -0.336000
      5 O5         39.8100   39.1150   46.4260 o         1 ENW     -0.146000
      6 C6         35.2580   40.8130   44.4280 c1        1 ENW      0.270000
      7 C7         33.9900   40.9650   44.1980 c2        1 ENW     -0.348000
      8 N8         38.9750   41.2030   45.8560 nz        1 ENW     -0.141000
      9 C9        -24.9680  -27.7140  -30.6080 c2        1 ENW      0.197000
     10 C10       -26.2380  -27.7990  -31.0270 c1        1 ENW     -0.124000
     11 O11       -24.0810  -26.8440  -30.8060 o         1 ENW     -0.479000
     12 H3         38.2210   41.3090   43.1990 ha        1 ENW      0.005750
     13 H3A        38.1900   40.9750   42.6070 ha        1 ENW      0.005750
     14 H6         37.9670   41.3980   45.9350 hn        1 ENW      0.268000
     15 H6A        33.6180   41.6350   43.4080 ha        1 ENW      0.210000
     16 H7         39.3500   41.7490   45.0720 hn        1 ENW      0.268000
     17 H7A        33.2240   40.4270   44.7780 ha        1 ENW      0.210000
     18 HN8       -24.7320  -28.6490  -30.0110 h4        1 ENW      0.161000
     19 C71       -21.1200  -25.3800  -32.6390 c2        1 ENW     -0.415000
     20 H10       -23.7280  -24.9680  -29.2650 ha        1 ENW      0.005750
     21 H10A      -21.3890  -26.1680  -33.3700 hx        1 ENW      0.228000
     22 N2        -21.9510  -25.2750  -31.4780 nz        1 ENW     -0.034000
     23 C8        -20.0660  -24.6060  -32.8840 c1        1 ENW      0.326000
     24 H101      -22.9260  -25.1280  -31.7670 hn        1 ENW      0.272000
     25 C91       -19.8690  -21.4630  -29.0230 c3        1 ENW     -0.065000
     26 O41       -19.1220  -23.9620  -33.1740 o         1 ENW     -0.042000
     27 O51       -20.2350  -22.5530  -29.9020 os        1 ENW     -0.210000
     28 C101      -19.2960  -21.9780  -27.7090 c3        1 ENW     -0.134000
     29 C11       -21.3080  -23.2790  -29.7580 c1        1 ENW      0.063000
     30 C12       -17.9070  -22.5430  -27.9150 c3        1 ENW     -0.217000
     31 C13       -19.2750  -20.8510  -26.6970 c3        1 ENW     -0.217000
     32 O6        -22.1600  -23.0960  -28.7870 oh        1 ENW     -0.230000
     33 H11       -27.2870  -27.9280  -31.1650 ha        1 ENW      0.249000
     34 H12       -23.9830  -24.4830  -29.6640 ha        1 ENW      0.005750
     35 H13       -19.0900  -20.9190  -29.6250 h1        1 ENW      0.125000
     36 H14       -21.6560  -24.4600  -30.8040 hn        1 ENW      0.272000
     37 H15       -20.7580  -20.7990  -28.8650 h1        1 ENW      0.125000
     38 H16       -19.9610  -22.8020  -27.3230 hc        1 ENW      0.082000
     39 H17       -17.5340  -23.0010  -26.9670 hc        1 ENW      0.091500
     40 H18       -17.9210  -23.3250  -28.7120 hc        1 ENW      0.091500
     41 H19       -17.1950  -21.7370  -28.2200 hc        1 ENW      0.091500
     42 H20       -18.6550  -20.0000  -27.0670 hc        1 ENW      0.091500
     43 H21       -18.8360  -21.2140  -25.7350 hc        1 ENW      0.091500
     44 H22       -20.3090  -20.4790  -26.4960 hc        1 ENW      0.091500
     45 H23       -21.9530  -22.3860  -28.1460 ho        1 ENW      0.241000
     46 H82        39.4460   41.4840   46.7240 hn        1 ENW      0.268000
     47 H221      -21.9300  -26.1620  -30.9610 hn        1 ENW      0.272000
@<TRIPOS>BOND
     1    1    2 1   
     2    1    5 1   
     3    1    8 1   
     4    2    3 1   
     5    4    6 1   
     6    6    7 1   
     7    7   15 1   
     8    7   17 1   
     9    8   14 1   
    10    8   16 1   
    11    8   46 1   
    12    9   10 1   
    13    9   11 1   
    14    9   18 1   
    15   10   33 1   
    16   12   13 1   
    17   19   21 1   
    18   19   22 1   
    19   19   23 1   
    20   20   34 1   
    21   22   24 1   
    22   22   36 1   
    23   22   47 1   
    24   23   26 1   
    25   25   27 1   
    26   25   28 1   
    27   25   35 1   
    28   25   37 1   
    29   27   29 1   
    30   28   30 1   
    31   28   31 1   
    32   28   38 1   
    33   29   32 1   
    34   30   39 1   
    35   30   40 1   
    36   30   41 1   
    37   31   42 1   
    38   31   43 1   
    39   31   44 1   
    40   32   45 1   
@<TRIPOS>SUBSTRUCTURE
     1 ENW         1 TEMP              0 ****  ****    0 ROOT
