@<TRIPOS>MOLECULE
ENW
   45    44     1     0     0
SMALL
bcc


@<TRIPOS>ATOM
      1 C2          6.1590    0.4570    0.3830 c         1 ENW      0.594100
      2 C3          6.2730    1.3980    1.5650 c3        1 ENW      0.122900
      3 F4          7.3970    2.1870    1.4860 f         1 ENW     -0.212300
      4 O4          4.9870   -0.2470    0.4140 os        1 ENW     -0.455900
      5 O5          6.9480    0.2610   -0.5380 o         1 ENW     -0.503000
      6 C6          4.7810   -1.1940   -0.6490 c3        1 ENW      0.111400
      7 C7          3.4870   -1.9450   -0.3110 c3        1 ENW      0.087000
      8 N8          2.3010   -1.1420   -0.3450 n         1 ENW     -0.568900
      9 C9          1.3460   -1.2650   -1.3360 c         1 ENW      0.659100
     10 C10         0.1850   -0.2870   -1.3260 c3        1 ENW     -0.172400
     11 O11         1.4250   -2.1550   -2.2050 o         1 ENW     -0.600100
     12 H3          5.3570    2.0530    1.5900 h1        1 ENW      0.079700
     13 H3A         6.3150    0.7770    2.5040 h1        1 ENW      0.079700
     14 H6          4.7210   -0.6380   -1.6190 h1        1 ENW      0.066700
     15 H6A         5.6450   -1.9080   -0.6790 h1        1 ENW      0.066700
     16 H7          3.3860   -2.7910   -1.0520 h1        1 ENW      0.078200
     17 H7A         3.5900   -2.3780    0.7260 h1        1 ENW      0.078200
     18 HN8         2.2750   -0.3580    0.2610 hn        1 ENW      0.314500
     19 C71        -0.5870   -0.3550   -0.0090 c3        1 ENW      0.095000
     20 H10         0.5750    0.7490   -1.5040 hc        1 ENW      0.076200
     21 H10A       -0.4830   -0.5580   -2.1880 hc        1 ENW      0.076200
     22 N2         -1.8020    0.4130   -0.0380 n         1 ENW     -0.569900
     23 C8         -2.9160    0.0410    0.6880 c         1 ENW      0.635100
     24 H101       -1.7490    1.3400   -0.3890 hn        1 ENW      0.312500
     25 C91        -4.1410    0.9720    0.6960 c3        1 ENW      0.077100
     26 O41        -2.9310   -1.0260    1.3340 o         1 ENW     -0.602100
     27 O51        -3.8420    2.2520    0.1700 oh        1 ENW     -0.597800
     28 C101       -5.3570    0.3160    0.0090 c3        1 ENW     -0.070000
     29 C11        -6.4670    1.3770   -0.0830 c3        1 ENW      0.135400
     30 C12        -4.9970   -0.1740   -1.3830 c3        1 ENW     -0.094100
     31 C13        -5.8590   -0.8470    0.8510 c3        1 ENW     -0.094100
     32 O6         -7.5890    0.7820   -0.7150 oh        1 ENW     -0.597800
     33 H11        -0.8480   -1.4300    0.2200 h1        1 ENW      0.061200
     34 H12         0.0720    0.0220    0.8280 h1        1 ENW      0.061200
     35 H13        -4.3820    1.1720    1.7820 h1        1 ENW      0.104700
     36 H14        -3.8990    2.2000   -0.7940 ho        1 ENW      0.407000
     37 H15        -6.7400    1.7260    0.9480 h1        1 ENW      0.027700
     38 H16        -6.1200    2.2570   -0.6890 h1        1 ENW      0.027700
     39 H17        -4.2120   -0.9660   -1.3240 hc        1 ENW      0.050200
     40 H18        -5.9070   -0.6010   -1.8720 hc        1 ENW      0.050200
     41 H19        -4.6200    0.6640   -2.0170 hc        1 ENW      0.050200
     42 H20        -6.1050   -0.5010    1.8830 hc        1 ENW      0.050200
     43 H21        -6.7820   -1.2680    0.3840 hc        1 ENW      0.050200
     44 H22        -5.0830   -1.6480    0.9180 hc        1 ENW      0.050200
     45 H23        -8.3010    1.4310   -0.6710 ho        1 ENW      0.404000
@<TRIPOS>BOND
     1    1    2 1   
     2    1    4 1   
     3    1    5 2   
     4    2    3 1   
     5    2   12 1   
     6    2   13 1   
     7    4    6 1   
     8    6    7 1   
     9    6   14 1   
    10    6   15 1   
    11    7    8 1   
    12    7   16 1   
    13    7   17 1   
    14    8    9 1   
    15    8   18 1   
    16    9   10 1   
    17    9   11 2   
    18   10   19 1   
    19   10   20 1   
    20   10   21 1   
    21   19   22 1   
    22   19   33 1   
    23   19   34 1   
    24   22   23 1   
    25   22   24 1   
    26   23   25 1   
    27   23   26 2   
    28   25   27 1   
    29   25   28 1   
    30   25   35 1   
    31   27   36 1   
    32   28   29 1   
    33   28   30 1   
    34   28   31 1   
    35   29   32 1   
    36   29   37 1   
    37   29   38 1   
    38   30   39 1   
    39   30   40 1   
    40   30   41 1   
    41   31   42 1   
    42   31   43 1   
    43   31   44 1   
    44   32   45 1   
@<TRIPOS>SUBSTRUCTURE
     1 ENW         1 TEMP              0 ****  ****    0 ROOT
