@<TRIPOS>MOLECULE
EOA
   22    19     1     0     0
SMALL
bcc


@<TRIPOS>ATOM
      1 C1          0.3020    0.6300    0.5530 c1        1 EOA     -0.051100
      2 C2          1.6860    0.6970    0.5450 c1        1 EOA     -0.069000
      3 C3          2.3860    0.7280    1.7410 c1        1 EOA     -0.069000
      4 C4          1.7010    0.6910    2.9460 c1        1 EOA     -0.069000
      5 C5          0.3170    0.6250    2.9540 c1        1 EOA     -0.069000
      6 C6         -0.3830    0.5940    1.7580 c1        1 EOA     -0.069500
      7 C7         -0.4640    0.6710   -0.7500 c3        1 EOA     -0.100300
      8 C8         -0.6070   -0.7330   -1.2970 c3        1 EOA      0.095000
      9 N1         -1.6050   -0.7480   -2.3110 n         1 EOA     -0.583900
     10 C9         -1.7100   -1.8600   -3.1850 c         1 EOA      0.653900
     11 O1         -2.7590   -2.0840   -3.7610 o         1 EOA     -0.604100
     12 H2          2.1690    0.7220   -0.3030 ha        1 EOA      0.075250
     13 H3          3.3610    0.7750    1.7350 ha        1 EOA      0.075250
     14 H4          2.1940    0.7130    3.7880 ha        1 EOA      0.075250
     15 H5         -0.1660    0.5990    3.8020 ha        1 EOA      0.075250
     16 H6         -1.3580    0.5460    1.7640 ha        1 EOA      0.073500
     17 H71        -1.3520    1.0530   -0.5950 hc        1 EOA      0.055200
     18 H72         0.0200    1.2240   -1.3960 hc        1 EOA      0.055200
     19 H81         0.2480   -1.0250   -1.6750 h1        1 EOA      0.053700
     20 H82        -0.8680   -1.3400   -0.5730 h1        1 EOA      0.053700
     21 HN1        -2.1730   -0.0410   -2.4020 hn        1 EOA      0.312500
     22 H9         -0.9360   -2.4380   -3.3370 h5        1 EOA      0.031200
@<TRIPOS>BOND
     1    1    6 3   
     2    1    7 1   
     3    2    3 3   
     4    2   12 1   
     5    3   13 1   
     6    4    5 3   
     7    4   14 1   
     8    5   15 1   
     9    6   16 1   
    10    7    8 1   
    11    7   17 1   
    12    7   18 1   
    13    8    9 1   
    14    8   19 1   
    15    8   20 1   
    16    9   10 1   
    17    9   21 1   
    18   10   11 2   
    19   10   22 1   
@<TRIPOS>SUBSTRUCTURE
     1 EOA         1 TEMP              0 ****  ****    0 ROOT
