@<TRIPOS>MOLECULE
EOA
   23    23     1     0     0
SMALL
bcc


@<TRIPOS>ATOM
      1 C1         -0.0050    0.0210   -0.0090 ca        1 EOA     -0.133300
      2 C2          1.3950    0.0040   -0.0080 ca        1 EOA     -0.115000
      3 C3          2.0900   -0.0330    1.2000 ca        1 EOA     -0.116000
      4 C4          1.3930   -0.0510    2.4090 ca        1 EOA     -0.096000
      5 C5         -0.0020   -0.0300    2.4100 ca        1 EOA     -0.116000
      6 C6         -0.7020    0.0060    1.2040 ca        1 EOA     -0.115000
      7 C7         -0.7490    0.0820   -1.2970 c3        1 EOA     -0.044100
      8 C8         -1.0210   -1.3450   -1.7720 c3        1 EOA      0.096800
      9 N1         -1.7700   -1.3860   -3.0670 n4        1 EOA     -0.696800
     10 C9         -2.0540   -2.7810   -3.5640 c         1 EOA      0.542900
     11 O1         -1.6690   -3.7290   -2.9130 o         1 EOA     -0.359100
     12 H2          1.9500    0.0300   -0.9570 ha        1 EOA      0.131000
     13 H3          3.1910   -0.0420    1.1980 ha        1 EOA      0.152000
     14 H4          1.9450   -0.0760    3.3620 ha        1 EOA      0.154000
     15 H5         -0.5530   -0.0370    3.3630 ha        1 EOA      0.152000
     16 H6         -1.8010    0.0350    1.2120 ha        1 EOA      0.131000
     17 H71        -0.1440    0.6390   -2.0620 hc        1 EOA      0.067700
     18 H72        -1.7160    0.6350   -1.1530 hc        1 EOA      0.067700
     19 H81        -1.6300   -1.9020   -1.0020 hx        1 EOA      0.118700
     20 H82        -0.0480   -1.8980   -1.9170 hx        1 EOA      0.118700
     21 HN1        -2.6630   -0.8900   -2.9500 hn        1 EOA      0.461800
     22 H9         -2.6150   -2.7770   -4.5270 hx        1 EOA      0.133200
     23 H12        -1.2260   -0.8860   -3.7810 hn        1 EOA      0.461800
@<TRIPOS>BOND
     1    1    2 ar  
     2    1    6 ar  
     3    1    7 1   
     4    2    3 ar  
     5    2   12 1   
     6    3    4 ar  
     7    3   13 1   
     8    4    5 ar  
     9    4   14 1   
    10    5    6 ar  
    11    5   15 1   
    12    6   16 1   
    13    7    8 1   
    14    7   17 1   
    15    7   18 1   
    16    8    9 1   
    17    8   19 1   
    18    8   20 1   
    19    9   10 1   
    20    9   21 1   
    21    9   23 1   
    22   10   11 2   
    23   10   22 1   
@<TRIPOS>SUBSTRUCTURE
     1 EOA         1 TEMP              0 ****  ****    0 ROOT
