@<TRIPOS>MOLECULE
EOA
   22    22     1     0     0
SMALL
bcc


@<TRIPOS>ATOM
      1 C1         -0.1050   -0.4690    0.9570 ca        1 EOA     -0.082300
      2 C2         -1.1900   -0.5710    1.8340 ca        1 EOA     -0.125500
      3 C3         -1.1000   -0.0570    3.1270 ca        1 EOA     -0.128000
      4 C4          0.0750    0.5620    3.5540 ca        1 EOA     -0.130000
      5 C5          1.1600    0.6660    2.6840 ca        1 EOA     -0.128000
      6 C6          1.0730    0.1530    1.3920 ca        1 EOA     -0.125500
      7 C7         -0.1890   -1.0250   -0.4200 c3        1 EOA     -0.061100
      8 C8         -0.2740    0.1100   -1.4490 c3        1 EOA      0.083000
      9 N1         -0.3580   -0.3330   -2.8130 n         1 EOA     -0.581900
     10 C9          0.6830   -0.2310   -3.7040 c         1 EOA      0.655900
     11 O1          1.7640    0.3190   -3.4350 o         1 EOA     -0.604100
     12 H2         -2.1190   -1.0590    1.5030 ha        1 EOA      0.134000
     13 H3         -1.9570   -0.1420    3.8110 ha        1 EOA      0.132000
     14 H4          0.1450    0.9660    4.5740 ha        1 EOA      0.131000
     15 H5          2.0880    1.1530    3.0180 ha        1 EOA      0.132000
     16 H6          1.9300    0.2340    0.7060 ha        1 EOA      0.134000
     17 H71        -1.0860   -1.6930   -0.5130 hc        1 EOA      0.051200
     18 H72         0.7200   -1.6530   -0.6230 hc        1 EOA      0.051200
     19 H81         0.6360    0.7690   -1.3390 h1        1 EOA      0.065200
     20 H82        -1.1880    0.7320   -1.2230 h1        1 EOA      0.065200
     21 HN1        -1.1490   -0.8760   -3.0590 hn        1 EOA      0.305500
     22 H9          0.4590   -0.6590   -4.7100 h5        1 EOA      0.025200
@<TRIPOS>BOND
     1    1    2 ar  
     2    1    6 ar  
     3    1    7 1   
     4    2    3 ar  
     5    2   12 1   
     6    3    4 ar  
     7    3   13 1   
     8    4    5 ar  
     9    4   14 1   
    10    5    6 ar  
    11    5   15 1   
    12    6   16 1   
    13    7    8 1   
    14    7   17 1   
    15    7   18 1   
    16    8    9 1   
    17    8   19 1   
    18    8   20 1   
    19    9   10 1   
    20    9   21 1   
    21   10   11 2   
    22   10   22 1   
@<TRIPOS>SUBSTRUCTURE
     1 EOA         1 TEMP              0 ****  ****    0 ROOT
