@<TRIPOS>MOLECULE
EOA
   23    23     1     0     0
SMALL
bcc


@<TRIPOS>ATOM
      1 C1         -0.0050    0.0210   -0.0090 ca        1 EOA     -0.133300
      2 C2          1.3940    0.0040   -0.0060 ca        1 EOA     -0.115000
      3 C3          2.0890   -0.0320    1.2020 ca        1 EOA     -0.116000
      4 C4          1.3910   -0.0500    2.4100 ca        1 EOA     -0.096000
      5 C5         -0.0050   -0.0300    2.4100 ca        1 EOA     -0.116000
      6 C6         -0.7030    0.0060    1.2040 ca        1 EOA     -0.115000
      7 C7         -0.7490    0.0820   -1.2980 c3        1 EOA     -0.044100
      8 C8         -1.0200   -1.3460   -1.7720 c3        1 EOA      0.096800
      9 N1         -1.7680   -1.3860   -3.0680 n4        1 EOA     -0.696800
     10 C9         -2.0520   -2.7810   -3.5640 c         1 EOA      0.542900
     11 O1         -1.6720   -3.7290   -2.9100 o         1 EOA     -0.359100
     12 H2          1.9500    0.0310   -0.9550 ha        1 EOA      0.131000
     13 H3          3.1900   -0.0410    1.2010 ha        1 EOA      0.152000
     14 H4          1.9410   -0.0760    3.3640 ha        1 EOA      0.154000
     15 H5         -0.5560   -0.0370    3.3630 ha        1 EOA      0.152000
     16 H6         -1.8030    0.0350    1.2100 ha        1 EOA      0.131000
     17 H71        -0.1420    0.6380   -2.0620 hc        1 EOA      0.067700
     18 H72        -1.7160    0.6360   -1.1540 hc        1 EOA      0.067700
     19 H81        -0.0480   -1.8990   -1.9160 hx        1 EOA      0.118700
     20 H82        -1.6310   -1.9010   -1.0030 hx        1 EOA      0.118700
     21 HN1        -1.2220   -0.8880   -3.7820 hn        1 EOA      0.461800
     22 H9         -2.6090   -2.7780   -4.5300 hx        1 EOA      0.133200
     23 H12        -2.6600   -0.8900   -2.9530 hn        1 EOA      0.461800
@<TRIPOS>BOND
     1    1    2 ar  
     2    1    6 ar  
     3    1    7 1   
     4    2    3 ar  
     5    2   12 1   
     6    3    4 ar  
     7    3   13 1   
     8    4    5 ar  
     9    4   14 1   
    10    5    6 ar  
    11    5   15 1   
    12    6   16 1   
    13    7    8 1   
    14    7   17 1   
    15    7   18 1   
    16    8    9 1   
    17    8   19 1   
    18    8   20 1   
    19    9   10 1   
    20    9   21 1   
    21    9   23 1   
    22   10   11 2   
    23   10   22 1   
@<TRIPOS>SUBSTRUCTURE
     1 EOA         1 TEMP              0 ****  ****    0 ROOT
