@<TRIPOS>MOLECULE
EOA
   23    23     1     0     0
SMALL
bcc


@<TRIPOS>ATOM
      1 C1         -0.0050    0.0210   -0.0090 ca        1 EOA     -0.133300
      2 C2          1.3940    0.0030   -0.0050 ca        1 EOA     -0.115000
      3 C3          2.0880   -0.0340    1.2040 ca        1 EOA     -0.116000
      4 C4          1.3890   -0.0520    2.4120 ca        1 EOA     -0.096000
      5 C5         -0.0060   -0.0310    2.4100 ca        1 EOA     -0.116000
      6 C6         -0.7040    0.0050    1.2040 ca        1 EOA     -0.115000
      7 C7         -0.7470    0.0820   -1.2980 c3        1 EOA     -0.044100
      8 C8         -1.0200   -1.3450   -1.7730 c3        1 EOA      0.096800
      9 N1         -1.7660   -1.3850   -3.0690 ny        1 EOA     -0.696800
     10 C9         -2.0520   -2.7790   -3.5660 c         1 EOA      0.542900
     11 O1         -1.6770   -3.7280   -2.9090 o         1 EOA     -0.359100
     12 H2          1.9510    0.0300   -0.9540 ha        1 EOA      0.131000
     13 H3          3.1890   -0.0430    1.2040 ha        1 EOA      0.152000
     14 H4          1.9390   -0.0780    3.3660 ha        1 EOA      0.154000
     15 H5         -0.5590   -0.0390    3.3630 ha        1 EOA      0.152000
     16 H6         -1.8040    0.0340    1.2090 ha        1 EOA      0.131000
     17 H71        -0.1400    0.6380   -2.0620 hc        1 EOA      0.067700
     18 H72        -1.7140    0.6370   -1.1550 hc        1 EOA      0.067700
     19 H81        -0.0480   -1.9000   -1.9150 hx        1 EOA      0.118700
     20 H82        -1.6320   -1.9000   -1.0040 hx        1 EOA      0.118700
     21 HN1        -1.2190   -0.8870   -3.7830 hn        1 EOA      0.461800
     22 H9         -2.6060   -2.7750   -4.5330 hx        1 EOA      0.133200
     23 H12        -2.6580   -0.8870   -2.9550 hn        1 EOA      0.461800
@<TRIPOS>BOND
     1    1    2 ar  
     2    1    6 ar  
     3    1    7 1   
     4    2    3 ar  
     5    2   12 1   
     6    3    4 ar  
     7    3   13 1   
     8    4    5 ar  
     9    4   14 1   
    10    5    6 ar  
    11    5   15 1   
    12    6   16 1   
    13    7    8 1   
    14    7   17 1   
    15    7   18 1   
    16    8    9 1   
    17    8   19 1   
    18    8   20 1   
    19    9   10 1   
    20    9   21 1   
    21    9   23 1   
    22   10   11 2   
    23   10   22 1   
@<TRIPOS>SUBSTRUCTURE
     1 EOA         1 TEMP              0 ****  ****    0 ROOT
