@<TRIPOS>MOLECULE
EOB
   32    30     1     0     0
SMALL
bcc


@<TRIPOS>ATOM
      1 OAF         7.4920   -0.7790   -0.8770 o         1 EOB     -1.205667
      2 PAU         6.4500   -1.0910    0.1450 p3        1 EOB      2.531000
      3 OAE         5.9440   -2.4930    0.1550 o         1 EOB     -1.205667
      4 OAC         6.5640   -0.3960    1.4540 o         1 EOB     -1.205667
      5 CAM         4.6840   -0.1970   -1.0090 c2        1 EOB     -0.797000
      6 CAQ         3.7070    0.8100   -0.7320 c2        1 EOB      0.389000
      7 OAA         3.9000    2.0520   -0.8690 o         1 EOB     -0.515000
      8 NAO         2.4170    0.3630   -0.2960 n         1 EOB     -0.352000
      9 CAS         1.2410    1.0850   -0.1400 ca        1 EOB      0.161000
     10 CAL         0.0070    0.3960    0.0060 ca        1 EOB     -0.329000
     11 CAJ         1.2100    2.5030   -0.1110 ca        1 EOB     -0.258000
     12 CAI         0.0010    3.1620    0.0500 ca        1 EOB     -0.101000
     13 CAK        -1.2060    2.4930    0.1900 ca        1 EOB     -0.258000
     14 CAT        -1.2310    1.0750    0.1740 ca        1 EOB      0.161000
     15 NAP        -2.4040    0.3430    0.3070 n         1 EOB     -0.352000
     16 CAR        -3.6960    0.7700    0.7560 c2        1 EOB      0.389000
     17 OAB        -3.8940    2.0060    0.9330 o         1 EOB     -0.515000
     18 CAN        -4.6680   -0.2490    1.0010 c2        1 EOB     -0.797000
     19 PAV        -6.4300   -1.1140   -0.1800 p3        1 EOB      2.531000
     20 OAH        -7.4740   -0.8390    0.8510 o         1 EOB     -1.205667
     21 OAG        -6.5470   -0.3780   -1.4660 o         1 EOB     -1.205667
     22 OAD        -5.9180   -2.5130   -0.2350 o         1 EOB     -1.205667
     23 HAM1        5.4700    0.1430   -1.6980 ha        1 EOB      0.109000
     24 HAM2        4.3520   -1.2340   -1.1330 ha        1 EOB      0.109000
     25 HAO         2.3330   -0.6210   -0.1760 hn        1 EOB      0.207000
     26 HAL         0.0090   -0.7040   -0.0110 ha        1 EOB      0.107000
     27 HAJ         2.1450    3.0710   -0.2210 ha        1 EOB      0.157000
     28 HAI        -0.0020    4.2630    0.0680 ha        1 EOB      0.075000
     29 HAK        -2.1430    3.0530    0.3180 ha        1 EOB      0.157000
     30 HAP        -2.3160   -0.6360    0.1560 hn        1 EOB      0.207000
     31 HAN1       -4.3320   -1.2880    1.0920 ha        1 EOB      0.109000
     32 HAN2       -5.4550    0.0650    1.7010 ha        1 EOB      0.109000
@<TRIPOS>BOND
     1    1    2 1   
     2    2    3 1   
     3    2    4 1   
     4    5    6 1   
     5    5   23 1   
     6    5   24 1   
     7    6    7 1   
     8    6    8 1   
     9    8    9 1   
    10    8   25 1   
    11    9   10 1   
    12    9   11 1   
    13   10   14 1   
    14   10   26 1   
    15   11   12 1   
    16   11   27 1   
    17   12   13 1   
    18   12   28 1   
    19   13   14 1   
    20   13   29 1   
    21   14   15 1   
    22   15   16 1   
    23   15   30 1   
    24   16   17 1   
    25   16   18 1   
    26   18   31 1   
    27   18   32 1   
    28   19   20 1   
    29   19   21 1   
    30   19   22 1   
@<TRIPOS>SUBSTRUCTURE
     1 EOB         1 TEMP              0 ****  ****    0 ROOT
