@<TRIPOS>MOLECULE
EOB
   32    30     1     0     0
SMALL
bcc


@<TRIPOS>ATOM
      1 OAF        -0.3900    0.2140   -1.0910 o         1 EOB     -1.205667
      2 PAU         0.7420   -0.3800   -0.3200 p3        1 EOB      2.531000
      3 OAE         0.6450   -0.2820    1.1640 o         1 EOB     -1.205667
      4 OAC         1.3700   -1.6030   -0.8850 o         1 EOB     -1.205667
      5 CAM         2.1870    1.3770   -0.5930 c2        1 EOB     -0.797000
      6 CAQ         3.5030    1.5240   -1.1320 c2        1 EOB      0.389000
      7 OAA         3.7630    1.6480   -2.3620 o         1 EOB     -0.515000
      8 NAO         4.5900    1.5590   -0.1980 n         1 EOB     -0.352000
      9 CAS         5.9250    1.8750   -0.4110 ca        1 EOB      0.161000
     10 CAL         6.7700    2.1460    0.6990 ca        1 EOB     -0.329000
     11 CAJ         6.5010    1.9340   -1.7060 ca        1 EOB     -0.258000
     12 CAI         7.8430    2.2540   -1.8480 ca        1 EOB     -0.101000
     13 CAK         8.6700    2.5220   -0.7670 ca        1 EOB     -0.258000
     14 CAT         8.1450    2.4710    0.5500 ca        1 EOB      0.161000
     15 NAP         8.9160    2.7300    1.6750 n         1 EOB     -0.352000
     16 CAR        10.3420    2.7990    1.8040 c2        1 EOB      0.389000
     17 OAB        11.0440    2.7710    0.7540 o         1 EOB     -0.515000
     18 CAN        10.8720    2.8660    3.1310 c2        1 EOB     -0.797000
     19 PAV        11.6340    4.5550    4.4790 p3        1 EOB      2.531000
     20 OAH        12.9930    3.9820    4.7100 o         1 EOB     -1.205667
     21 OAG        11.5630    5.8340    3.7250 o         1 EOB     -1.205667
     22 OAD        10.6430    4.3490    5.5730 o         1 EOB     -1.205667
     23 HAM1        1.4020    1.7550   -1.2620 ha        1 EOB      0.109000
     24 HAM2        2.0330    1.5570    0.4780 ha        1 EOB      0.109000
     25 HAO         4.3290    1.4250    0.7530 hn        1 EOB      0.207000
     26 HAL         6.3430    2.1030    1.7120 ha        1 EOB      0.107000
     27 HAJ         5.8800    1.7300   -2.5890 ha        1 EOB      0.157000
     28 HAI         8.2710    2.2970   -2.8620 ha        1 EOB      0.075000
     29 HAK         9.7290    2.7710   -0.9230 ha        1 EOB      0.157000
     30 HAP         8.4150    2.7880    2.5320 hn        1 EOB      0.207000
     31 HAN1       10.2210    2.6050    3.9730 ha        1 EOB      0.109000
     32 HAN2       11.9110    2.5140    3.1980 ha        1 EOB      0.109000
@<TRIPOS>BOND
     1    1    2 1   
     2    2    3 1   
     3    2    4 1   
     4    5    6 1   
     5    5   23 1   
     6    5   24 1   
     7    6    7 1   
     8    6    8 1   
     9    8    9 1   
    10    8   25 1   
    11    9   10 1   
    12    9   11 1   
    13   10   14 1   
    14   10   26 1   
    15   11   12 1   
    16   11   27 1   
    17   12   13 1   
    18   12   28 1   
    19   13   14 1   
    20   13   29 1   
    21   14   15 1   
    22   15   16 1   
    23   15   30 1   
    24   16   17 1   
    25   16   18 1   
    26   18   31 1   
    27   18   32 1   
    28   19   20 1   
    29   19   21 1   
    30   19   22 1   
@<TRIPOS>SUBSTRUCTURE
     1 EOB         1 TEMP              0 ****  ****    0 ROOT
