@<TRIPOS>MOLECULE
EOB
   32    30     1     0     0
SMALL
bcc


@<TRIPOS>ATOM
      1 OAF        -0.3890    0.2150   -1.0930 o         1 EOB     -1.205667
      2 PAU         0.7410   -0.3770   -0.3190 p3        1 EOB      2.531000
      3 OAE         0.6420   -0.2730    1.1650 o         1 EOB     -1.205667
      4 OAC         1.3690   -1.6030   -0.8780 o         1 EOB     -1.205667
      5 CAM         2.1880    1.3780   -0.5960 c2        1 EOB     -0.797000
      6 CAQ         3.5050    1.5210   -1.1340 c2        1 EOB      0.389000
      7 OAA         3.7660    1.6410   -2.3640 o         1 EOB     -0.515000
      8 NAO         4.5900    1.5580   -0.1980 n         1 EOB     -0.352000
      9 CAS         5.9260    1.8720   -0.4110 ca        1 EOB      0.161000
     10 CAL         6.7700    2.1460    0.6990 ca        1 EOB     -0.329000
     11 CAJ         6.5040    1.9260   -1.7050 ca        1 EOB     -0.258000
     12 CAI         7.8460    2.2440   -1.8470 ca        1 EOB     -0.101000
     13 CAK         8.6720    2.5150   -0.7660 ca        1 EOB     -0.258000
     14 CAT         8.1460    2.4690    0.5500 ca        1 EOB      0.161000
     15 NAP         8.9160    2.7310    1.6760 n         1 EOB     -0.352000
     16 CAR        10.3420    2.7990    1.8060 c2        1 EOB      0.389000
     17 OAB        11.0450    2.7670    0.7570 o         1 EOB     -0.515000
     18 CAN        10.8700    2.8710    3.1330 c2        1 EOB     -0.797000
     19 PAV        11.6320    4.5630    4.4760 p3        1 EOB      2.531000
     20 OAH        12.9910    3.9920    4.7100 o         1 EOB     -1.205667
     21 OAG        11.5610    5.8400    3.7180 o         1 EOB     -1.205667
     22 OAD        10.6410    4.3600    5.5710 o         1 EOB     -1.205667
     23 HAM1        1.4040    1.7540   -1.2680 ha        1 EOB      0.109000
     24 HAM2        2.0320    1.5620    0.4740 ha        1 EOB      0.109000
     25 HAO         4.3290    1.4280    0.7520 hn        1 EOB      0.207000
     26 HAL         6.3410    2.1070    1.7120 ha        1 EOB      0.107000
     27 HAJ         5.8830    1.7200   -2.5890 ha        1 EOB      0.157000
     28 HAI         8.2750    2.2830   -2.8610 ha        1 EOB      0.075000
     29 HAK         9.7320    2.7610   -0.9210 ha        1 EOB      0.157000
     30 HAP         8.4140    2.7920    2.5320 hn        1 EOB      0.207000
     31 HAN1       10.2170    2.6140    3.9760 ha        1 EOB      0.109000
     32 HAN2       11.9080    2.5180    3.2040 ha        1 EOB      0.109000
@<TRIPOS>BOND
     1    1    2 1   
     2    2    3 1   
     3    2    4 1   
     4    5    6 1   
     5    5   23 1   
     6    5   24 1   
     7    6    7 1   
     8    6    8 1   
     9    8    9 1   
    10    8   25 1   
    11    9   10 1   
    12    9   11 1   
    13   10   14 1   
    14   10   26 1   
    15   11   12 1   
    16   11   27 1   
    17   12   13 1   
    18   12   28 1   
    19   13   14 1   
    20   13   29 1   
    21   14   15 1   
    22   15   16 1   
    23   15   30 1   
    24   16   17 1   
    25   16   18 1   
    26   18   31 1   
    27   18   32 1   
    28   19   20 1   
    29   19   21 1   
    30   19   22 1   
@<TRIPOS>SUBSTRUCTURE
     1 EOB         1 TEMP              0 ****  ****    0 ROOT
