@<TRIPOS>MOLECULE
EOD
   54    54     1     0     0
SMALL
bcc


@<TRIPOS>ATOM
      1 O1          0.2240    1.0030    0.1130 o         1 EOD     -0.853300
      2 C1          1.2260    0.2320    0.0550 c         1 EOD      0.907600
      3 O2          1.6520   -0.4420    1.0360 o         1 EOD     -0.853300
      4 C2          1.9890    0.1180   -1.2770 c3        1 EOD     -0.194400
      5 C3          1.0420   -0.0510   -2.4400 c3        1 EOD     -0.065400
      6 C4          1.7600    0.0340   -3.7710 c3        1 EOD     -0.078400
      7 C5          0.8030   -0.1500   -4.9290 c3        1 EOD     -0.078400
      8 C6          1.5140   -0.0400   -6.2610 c3        1 EOD     -0.078400
      9 C7          0.5530   -0.2150   -7.4170 c3        1 EOD     -0.079400
     10 C8          1.2600   -0.0810   -8.7480 c3        1 EOD     -0.078400
     11 C9          0.2940   -0.2400   -9.9030 c3        1 EOD     -0.079400
     12 C10         0.9970   -0.0770  -11.2330 c3        1 EOD     -0.077400
     13 C11         0.0220   -0.2120  -12.3840 c3        1 EOD     -0.077400
     14 C12         0.6970   -0.0120  -13.7080 cx        1 EOD      0.070100
     15 O3          0.4530   -1.0200  -14.7060 os        1 EOD     -0.411600
     16 C13        -0.0820    0.2930  -14.9440 cx        1 EOD      0.060100
     17 C14        -1.5750    0.4230  -14.9180 c3        1 EOD     -0.075400
     18 C15        -2.1620    0.3310  -16.3110 c3        1 EOD     -0.076400
     19 C16        -3.6700    0.4540  -16.2740 c3        1 EOD     -0.079400
     20 C17        -4.2620    0.3690  -17.6650 c3        1 EOD     -0.079400
     21 C18        -5.7640    0.4890  -17.6350 c3        1 EOD     -0.092100
     22 H21         2.5910    1.0540   -1.4060 hc        1 EOD      0.018700
     23 H22         2.7000   -0.7440   -1.2250 hc        1 EOD      0.018700
     24 H31         0.2510    0.7440   -2.3760 hc        1 EOD      0.043700
     25 H32         0.5220   -1.0410   -2.3570 hc        1 EOD      0.043700
     26 H41         2.5610   -0.7500   -3.8180 hc        1 EOD      0.025700
     27 H42         2.2680    1.0300   -3.8600 hc        1 EOD      0.025700
     28 H51        -0.0070    0.6240   -4.8700 hc        1 EOD      0.036700
     29 H52         0.3070   -1.1530   -4.8490 hc        1 EOD      0.036700
     30 H61         2.0150    0.9620   -6.3360 hc        1 EOD      0.034200
     31 H62         2.3210   -0.8170   -6.3210 hc        1 EOD      0.034200
     32 H71         0.0640   -1.2220   -7.3490 hc        1 EOD      0.038200
     33 H72        -0.2620    0.5530   -7.3450 hc        1 EOD      0.038200
     34 H81         2.0680   -0.8560   -8.8240 hc        1 EOD      0.037700
     35 H82         1.7580    0.9220   -8.8090 hc        1 EOD      0.037700
     36 H91        -0.5240    0.5220   -9.8140 hc        1 EOD      0.039700
     37 H92        -0.1890   -1.2510   -9.8530 hc        1 EOD      0.039700
     38 H101        1.4940    0.9280  -11.2750 hc        1 EOD      0.041700
     39 H102        1.8040   -0.8510  -11.3310 hc        1 EOD      0.041700
     40 H111       -0.7970    0.5480  -12.2740 hc        1 EOD      0.056200
     41 H112       -0.4580   -1.2270  -12.3580 hc        1 EOD      0.056200
     42 H12         1.7600    0.3020  -13.6510 h1        1 EOD      0.087700
     43 H13         0.4120    0.8280  -15.7810 h1        1 EOD      0.082700
     44 H141       -1.8370    1.4130  -14.4580 hc        1 EOD      0.055700
     45 H142       -2.0130   -0.3810  -14.2680 hc        1 EOD      0.055700
     46 H151       -1.8730   -0.6500  -16.7720 hc        1 EOD      0.043700
     47 H152       -1.7340    1.1410  -16.9570 hc        1 EOD      0.043700
     48 H161       -4.0990   -0.3610  -15.6330 hc        1 EOD      0.040700
     49 H162       -3.9580    1.4310  -15.8030 hc        1 EOD      0.040700
     50 H171       -3.9720   -0.6080  -18.1350 hc        1 EOD      0.038200
     51 H172       -3.8320    1.1840  -18.3050 hc        1 EOD      0.038200
     52 H181       -6.1800    0.4240  -18.6690 hc        1 EOD      0.032367
     53 H182       -6.0720    1.4670  -17.1920 hc        1 EOD      0.032367
     54 H183       -6.2130   -0.3290  -17.0220 hc        1 EOD      0.032367
@<TRIPOS>BOND
     1    1    2 1   
     2    2    3 1   
     3    2    4 1   
     4    4    5 1   
     5    4   22 1   
     6    4   23 1   
     7    5    6 1   
     8    5   24 1   
     9    5   25 1   
    10    6    7 1   
    11    6   26 1   
    12    6   27 1   
    13    7    8 1   
    14    7   28 1   
    15    7   29 1   
    16    8    9 1   
    17    8   30 1   
    18    8   31 1   
    19    9   10 1   
    20    9   32 1   
    21    9   33 1   
    22   10   11 1   
    23   10   34 1   
    24   10   35 1   
    25   11   12 1   
    26   11   36 1   
    27   11   37 1   
    28   12   13 1   
    29   12   38 1   
    30   12   39 1   
    31   13   14 1   
    32   13   40 1   
    33   13   41 1   
    34   14   15 1   
    35   14   16 1   
    36   14   42 1   
    37   15   16 1   
    38   16   17 1   
    39   16   43 1   
    40   17   18 1   
    41   17   44 1   
    42   17   45 1   
    43   18   19 1   
    44   18   46 1   
    45   18   47 1   
    46   19   20 1   
    47   19   48 1   
    48   19   49 1   
    49   20   21 1   
    50   20   50 1   
    51   20   51 1   
    52   21   52 1   
    53   21   53 1   
    54   21   54 1   
@<TRIPOS>SUBSTRUCTURE
     1 EOD         1 TEMP              0 ****  ****    0 ROOT
