@<TRIPOS>MOLECULE
EOD
   54    53     1     0     0
SMALL
bcc


@<TRIPOS>ATOM
      1 O1          1.1360    1.6130    9.7670 o         1 EOD     -0.586000
      2 C1          0.8600    0.4000    9.5450 c1        1 EOD      0.327000
      3 O2         -0.0240   -0.1820   10.2340 os        1 EOD     -0.589000
      4 C2          1.6350   -0.3760    8.4850 c3        1 EOD     -0.223000
      5 C3          0.8130   -0.4350    7.1920 c3        1 EOD     -0.144000
      6 C4          1.6800   -1.0080    6.0580 c3        1 EOD     -0.157000
      7 C5          0.8080   -1.2410    4.8110 c3        1 EOD     -0.157000
      8 C6          1.7120   -1.4070    3.5750 c3        1 EOD     -0.157000
      9 C7          0.8380   -1.6360    2.3260 c3        1 EOD     -0.158000
     10 C8          1.6810   -1.4010    1.0580 c3        1 EOD     -0.157000
     11 C9          0.7540   -1.3520   -0.1750 c3        1 EOD     -0.158000
     12 C10         1.5820   -1.0030   -1.4280 c3        1 EOD     -0.156000
     13 C11         0.6350   -0.5580   -2.5630 c3        1 EOD     -0.156000
     14 C12         1.4660   -0.2680   -3.8490 cx        1 EOD     -0.040000
     15 O3          1.1270   -1.0740   -5.0140 os        1 EOD     -0.267000
     16 C13         0.7460    0.3300   -4.9340 cx        1 EOD     -0.051000
     17 C14        -0.7650    0.6050   -4.6730 c3        1 EOD     -0.154000
     18 C15        -1.3060    1.5670   -5.7490 c3        1 EOD     -0.155000
     19 C16        -2.8430    1.5750   -5.7050 c3        1 EOD     -0.158000
     20 C17        -3.3730    2.7610   -6.5270 c3        1 EOD     -0.159000
     21 C18        -4.8890    2.6220   -6.7050 c3        1 EOD     -0.210000
     22 H21         1.8060   -1.2890    8.8060 hc        1 EOD      0.058000
     23 H22         2.4900    0.0750    8.3090 hc        1 EOD      0.058000
     24 H31         0.0290   -1.0130    7.3280 hc        1 EOD      0.083000
     25 H32         0.5150    0.4700    6.9510 hc        1 EOD      0.083000
     26 H41         2.3980   -0.3720    5.8410 hc        1 EOD      0.065000
     27 H42         2.0750   -1.8620    6.3460 hc        1 EOD      0.065000
     28 H51         0.2120   -0.4700    4.6800 hc        1 EOD      0.076000
     29 H52         0.2700   -2.0540    4.9360 hc        1 EOD      0.076000
     30 H61         2.3070   -2.1790    3.7050 hc        1 EOD      0.074000
     31 H62         2.2520   -0.5940    3.4520 hc        1 EOD      0.074000
     32 H71         0.5000   -2.5600    2.3290 hc        1 EOD      0.077000
     33 H72         0.0810   -1.0100    2.3370 hc        1 EOD      0.077000
     34 H81         2.1640   -0.5490    1.1390 hc        1 EOD      0.077000
     35 H82         2.3280   -2.1350    0.9530 hc        1 EOD      0.077000
     36 H91         0.0630   -0.6660   -0.0380 hc        1 EOD      0.079500
     37 H92         0.3250   -2.2290   -0.2990 hc        1 EOD      0.079500
     38 H101        2.2050   -0.2740   -1.2160 hc        1 EOD      0.081500
     39 H102        2.0890   -1.7950   -1.7160 hc        1 EOD      0.081500
     40 H111       -0.0150   -1.2730   -2.7470 hc        1 EOD      0.095500
     41 H112        0.1580    0.2560   -2.2910 hc        1 EOD      0.095500
     42 H12         2.4120   -0.0100   -3.7710 h1        1 EOD      0.126000
     43 H13         1.2630    0.9440   -5.5020 h1        1 EOD      0.120000
     44 H141       -1.2640   -0.2420   -4.7100 hc        1 EOD      0.095000
     45 H142       -0.8750    1.0110   -3.7860 hc        1 EOD      0.095000
     46 H151       -1.0040    1.2690   -6.6360 hc        1 EOD      0.081500
     47 H152       -0.9680    2.4750   -5.5760 hc        1 EOD      0.081500
     48 H161       -3.1860    0.7350   -6.0840 hc        1 EOD      0.080500
     49 H162       -3.1440    1.6610   -4.7740 hc        1 EOD      0.080500
     50 H171       -3.1740    3.6010   -6.0560 hc        1 EOD      0.078500
     51 H172       -2.9390    2.7690   -7.4080 hc        1 EOD      0.078500
     52 H181       -5.3340    3.4360   -6.3780 hc        1 EOD      0.071667
     53 H182       -5.2100    1.8470   -6.1940 hc        1 EOD      0.071667
     54 H183       -5.0970    2.4960   -7.6570 hc        1 EOD      0.071667
@<TRIPOS>BOND
     1    1    2 1   
     2    2    4 1   
     3    4    5 1   
     4    4   22 1   
     5    4   23 1   
     6    5    6 1   
     7    5   24 1   
     8    5   25 1   
     9    6    7 1   
    10    6   26 1   
    11    6   27 1   
    12    7    8 1   
    13    7   28 1   
    14    7   29 1   
    15    8    9 1   
    16    8   30 1   
    17    8   31 1   
    18    9   10 1   
    19    9   32 1   
    20    9   33 1   
    21   10   11 1   
    22   10   34 1   
    23   10   35 1   
    24   11   12 1   
    25   11   36 1   
    26   11   37 1   
    27   12   13 1   
    28   12   38 1   
    29   12   39 1   
    30   13   14 1   
    31   13   40 1   
    32   13   41 1   
    33   14   15 1   
    34   14   16 1   
    35   14   42 1   
    36   15   16 1   
    37   16   17 1   
    38   16   43 1   
    39   17   18 1   
    40   17   44 1   
    41   17   45 1   
    42   18   19 1   
    43   18   46 1   
    44   18   47 1   
    45   19   20 1   
    46   19   48 1   
    47   19   49 1   
    48   20   21 1   
    49   20   50 1   
    50   20   51 1   
    51   21   52 1   
    52   21   53 1   
    53   21   54 1   
@<TRIPOS>SUBSTRUCTURE
     1 EOD         1 TEMP              0 ****  ****    0 ROOT
