@<TRIPOS>MOLECULE
EOD
   54    54     1     0     0
SMALL
bcc


@<TRIPOS>ATOM
      1 O1         -9.0460    2.0270    0.8070 o         1 EOD     -0.853300
      2 C1         -9.2410    0.9500    0.1720 c         1 EOD      0.907600
      3 O2        -10.3030    0.6910   -0.4640 o         1 EOD     -0.853300
      4 C2         -8.1370   -0.1220    0.1890 c3        1 EOD     -0.194400
      5 C3         -6.7800    0.4830   -0.0720 c3        1 EOD     -0.065400
      6 C4         -5.6640   -0.5190    0.1350 c3        1 EOD     -0.078400
      7 C5         -4.3080    0.0950   -0.1430 c3        1 EOD     -0.078400
      8 C6         -3.1900   -0.8980    0.0890 c3        1 EOD     -0.078400
      9 C7         -1.8360   -0.2780   -0.1810 c3        1 EOD     -0.079400
     10 C8         -0.7160   -1.2640    0.0750 c3        1 EOD     -0.078400
     11 C9          0.6380   -0.6370   -0.1800 c3        1 EOD     -0.079400
     12 C10         1.7580   -1.6150    0.1040 c3        1 EOD     -0.077400
     13 C11         3.1110   -0.9750   -0.1280 c3        1 EOD     -0.077400
     14 C12         4.2320   -1.9190    0.1890 cx        1 EOD      0.070100
     15 O3          5.2510   -2.0600   -0.8180 os        1 EOD     -0.411600
     16 C13         5.6240   -1.4310    0.4200 cx        1 EOD      0.060100
     17 C14         5.9640    0.0270    0.3540 c3        1 EOD     -0.075400
     18 C15         7.4570    0.2410    0.2190 c3        1 EOD     -0.076400
     19 C16         7.7910    1.7160    0.1460 c3        1 EOD     -0.079400
     20 C17         9.2830    1.9350    0.0180 c3        1 EOD     -0.079400
     21 C18         9.6210    3.4020   -0.0580 c3        1 EOD     -0.092100
     22 H21        -8.3690   -0.9050   -0.5750 hc        1 EOD      0.018700
     23 H22        -8.1500   -0.6100    1.1970 hc        1 EOD      0.018700
     24 H31        -6.6410    1.3630    0.6120 hc        1 EOD      0.043700
     25 H32        -6.7410    0.8740   -1.1230 hc        1 EOD      0.043700
     26 H41        -5.8200   -1.4030   -0.5380 hc        1 EOD      0.025700
     27 H42        -5.6930   -0.9000    1.1900 hc        1 EOD      0.025700
     28 H51        -4.1610    0.9890    0.5190 hc        1 EOD      0.036700
     29 H52        -4.2730    0.4610   -1.2030 hc        1 EOD      0.036700
     30 H61        -3.3340   -1.7900   -0.5760 hc        1 EOD      0.034200
     31 H62        -3.2300   -1.2670    1.1480 hc        1 EOD      0.034200
     32 H71        -1.6990    0.6230    0.4740 hc        1 EOD      0.038200
     33 H72        -1.7900    0.0770   -1.2440 hc        1 EOD      0.038200
     34 H81        -0.8460   -2.1600   -0.5870 hc        1 EOD      0.037700
     35 H82        -0.7700   -1.6260    1.1350 hc        1 EOD      0.037700
     36 H91         0.7580    0.2710    0.4680 hc        1 EOD      0.039700
     37 H92         0.6990   -0.2930   -1.2460 hc        1 EOD      0.039700
     38 H101        1.6490   -2.5150   -0.5570 hc        1 EOD      0.041700
     39 H102        1.6860   -1.9710    1.1650 hc        1 EOD      0.041700
     40 H111        3.2100   -0.0610    0.5170 hc        1 EOD      0.056200
     41 H112        3.1950   -0.6390   -1.1970 hc        1 EOD      0.056200
     42 H12         3.9200   -2.8850    0.6370 h1        1 EOD      0.087700
     43 H13         6.3190   -2.0390    1.0340 h1        1 EOD      0.082700
     44 H141        5.5910    0.5210    1.2910 hc        1 EOD      0.055700
     45 H142        5.4330    0.5010   -0.5140 hc        1 EOD      0.055700
     46 H151        7.8250   -0.2770   -0.7050 hc        1 EOD      0.043700
     47 H152        7.9860   -0.2220    1.0940 hc        1 EOD      0.043700
     48 H161        7.4130    2.2340    1.0660 hc        1 EOD      0.040700
     49 H162        7.2670    2.1770   -0.7320 hc        1 EOD      0.040700
     50 H171        9.6590    1.4130   -0.9020 hc        1 EOD      0.038200
     51 H172        9.8060    1.4730    0.8960 hc        1 EOD      0.038200
     52 H181        9.1290    3.8750   -0.9420 hc        1 EOD      0.032367
     53 H182        9.2750    3.9340    0.8610 hc        1 EOD      0.032367
     54 H183       10.7250    3.5420   -0.1520 hc        1 EOD      0.032367
@<TRIPOS>BOND
     1    1    2 1   
     2    2    3 1   
     3    2    4 1   
     4    4    5 1   
     5    4   22 1   
     6    4   23 1   
     7    5    6 1   
     8    5   24 1   
     9    5   25 1   
    10    6    7 1   
    11    6   26 1   
    12    6   27 1   
    13    7    8 1   
    14    7   28 1   
    15    7   29 1   
    16    8    9 1   
    17    8   30 1   
    18    8   31 1   
    19    9   10 1   
    20    9   32 1   
    21    9   33 1   
    22   10   11 1   
    23   10   34 1   
    24   10   35 1   
    25   11   12 1   
    26   11   36 1   
    27   11   37 1   
    28   12   13 1   
    29   12   38 1   
    30   12   39 1   
    31   13   14 1   
    32   13   40 1   
    33   13   41 1   
    34   14   15 1   
    35   14   16 1   
    36   14   42 1   
    37   15   16 1   
    38   16   17 1   
    39   16   43 1   
    40   17   18 1   
    41   17   44 1   
    42   17   45 1   
    43   18   19 1   
    44   18   46 1   
    45   18   47 1   
    46   19   20 1   
    47   19   48 1   
    48   19   49 1   
    49   20   21 1   
    50   20   50 1   
    51   20   51 1   
    52   21   52 1   
    53   21   53 1   
    54   21   54 1   
@<TRIPOS>SUBSTRUCTURE
     1 EOD         1 TEMP              0 ****  ****    0 ROOT
