@<TRIPOS>MOLECULE
EOD
   54    54     1     0     0
SMALL
bcc


@<TRIPOS>ATOM
      1 O1          0.2180    0.9900    0.1180 o         1 EOD     -0.853300
      2 C1          1.2140    0.2120    0.0590 c         1 EOD      0.907600
      3 O2          1.6340   -0.4680    1.0390 o         1 EOD     -0.853300
      4 C2          1.9780    0.0960   -1.2720 c3        1 EOD     -0.194400
      5 C3          1.0320   -0.0630   -2.4370 c3        1 EOD     -0.065400
      6 C4          1.7520    0.0200   -3.7660 c3        1 EOD     -0.078400
      7 C5          0.7950   -0.1540   -4.9260 c3        1 EOD     -0.078400
      8 C6          1.5090   -0.0450   -6.2570 c3        1 EOD     -0.078400
      9 C7          0.5480   -0.2110   -7.4150 c3        1 EOD     -0.079400
     10 C8          1.2580   -0.0780   -8.7450 c3        1 EOD     -0.078400
     11 C9          0.2930   -0.2290   -9.9010 c3        1 EOD     -0.079400
     12 C10         0.9980   -0.0670  -11.2310 c3        1 EOD     -0.077400
     13 C11         0.0240   -0.1950  -12.3830 c3        1 EOD     -0.077400
     14 C12         0.7020    0.0060  -13.7050 cx        1 EOD      0.070100
     15 O3          0.4630   -1.0040  -14.7030 os        1 EOD     -0.411600
     16 C13        -0.0750    0.3080  -14.9440 cx        1 EOD      0.060100
     17 C14        -1.5680    0.4330  -14.9210 c3        1 EOD     -0.075400
     18 C15        -2.1530    0.3360  -16.3140 c3        1 EOD     -0.076400
     19 C16        -3.6620    0.4560  -16.2810 c3        1 EOD     -0.079400
     20 C17        -4.2510    0.3650  -17.6730 c3        1 EOD     -0.079400
     21 C18        -5.7530    0.4810  -17.6460 c3        1 EOD     -0.092100
     22 H21         2.5870    1.0270   -1.3990 hc        1 EOD      0.018700
     23 H22         2.6830   -0.7710   -1.2210 hc        1 EOD      0.018700
     24 H31         0.2460    0.7370   -2.3720 hc        1 EOD      0.043700
     25 H32         0.5050   -1.0500   -2.3580 hc        1 EOD      0.043700
     26 H41         2.2680    1.0130   -3.8520 hc        1 EOD      0.025700
     27 H42         2.5480   -0.7690   -3.8140 hc        1 EOD      0.025700
     28 H51         0.2920   -1.1540   -4.8510 hc        1 EOD      0.036700
     29 H52        -0.0100    0.6250   -4.8660 hc        1 EOD      0.036700
     30 H61         2.0160    0.9540   -6.3290 hc        1 EOD      0.034200
     31 H62         2.3110   -0.8270   -6.3190 hc        1 EOD      0.034200
     32 H71        -0.2620    0.5610   -7.3420 hc        1 EOD      0.038200
     33 H72         0.0530   -1.2160   -7.3510 hc        1 EOD      0.038200
     34 H81         1.7610    0.9230   -8.8030 hc        1 EOD      0.037700
     35 H82         2.0620   -0.8560   -8.8220 hc        1 EOD      0.037700
     36 H91        -0.5220    0.5370   -9.8120 hc        1 EOD      0.039700
     37 H92        -0.1950   -1.2380   -9.8540 hc        1 EOD      0.039700
     38 H101        1.5000    0.9370  -11.2690 hc        1 EOD      0.041700
     39 H102        1.8020   -0.8430  -11.3290 hc        1 EOD      0.041700
     40 H111       -0.4610   -1.2070  -12.3590 hc        1 EOD      0.056200
     41 H112       -0.7920    0.5700  -12.2720 hc        1 EOD      0.056200
     42 H12         1.7640    0.3230  -13.6460 h1        1 EOD      0.087700
     43 H13         0.4190    0.8430  -15.7800 h1        1 EOD      0.082700
     44 H141       -1.8340    1.4240  -14.4640 hc        1 EOD      0.055700
     45 H142       -2.0060   -0.3690  -14.2690 hc        1 EOD      0.055700
     46 H151       -1.7250    1.1460  -16.9620 hc        1 EOD      0.043700
     47 H152       -1.8610   -0.6460  -16.7720 hc        1 EOD      0.043700
     48 H161       -3.9520    1.4330  -15.8130 hc        1 EOD      0.040700
     49 H162       -4.0900   -0.3580  -15.6390 hc        1 EOD      0.040700
     50 H171       -3.9570   -0.6130  -18.1400 hc        1 EOD      0.038200
     51 H172       -3.8210    1.1790  -18.3150 hc        1 EOD      0.038200
     52 H181       -6.1670    0.4120  -18.6810 hc        1 EOD      0.032367
     53 H182       -6.2010   -0.3370  -17.0310 hc        1 EOD      0.032367
     54 H183       -6.0650    1.4590  -17.2060 hc        1 EOD      0.032367
@<TRIPOS>BOND
     1    1    2 1   
     2    2    3 1   
     3    2    4 1   
     4    4    5 1   
     5    4   22 1   
     6    4   23 1   
     7    5    6 1   
     8    5   24 1   
     9    5   25 1   
    10    6    7 1   
    11    6   26 1   
    12    6   27 1   
    13    7    8 1   
    14    7   28 1   
    15    7   29 1   
    16    8    9 1   
    17    8   30 1   
    18    8   31 1   
    19    9   10 1   
    20    9   32 1   
    21    9   33 1   
    22   10   11 1   
    23   10   34 1   
    24   10   35 1   
    25   11   12 1   
    26   11   36 1   
    27   11   37 1   
    28   12   13 1   
    29   12   38 1   
    30   12   39 1   
    31   13   14 1   
    32   13   40 1   
    33   13   41 1   
    34   14   15 1   
    35   14   16 1   
    36   14   42 1   
    37   15   16 1   
    38   16   17 1   
    39   16   43 1   
    40   17   18 1   
    41   17   44 1   
    42   17   45 1   
    43   18   19 1   
    44   18   46 1   
    45   18   47 1   
    46   19   20 1   
    47   19   48 1   
    48   19   49 1   
    49   20   21 1   
    50   20   50 1   
    51   20   51 1   
    52   21   52 1   
    53   21   53 1   
    54   21   54 1   
@<TRIPOS>SUBSTRUCTURE
     1 EOD         1 TEMP              0 ****  ****    0 ROOT
