@<TRIPOS>MOLECULE
EOH
    9     8     1     0     0
SMALL
bcc


@<TRIPOS>ATOM
      1 C1          0.0140   -0.5630   -0.0000 c3        1 EOH      0.131400
      2 C2         -1.2620    0.2480   -0.0000 c3        1 EOH     -0.097100
      3 O           1.0980    0.3540   -0.0000 oh        1 EOH     -0.602800
      4 H11         0.0690   -1.2160    0.9130 h1        1 EOH      0.018700
      5 H12         0.0690   -1.2160   -0.9130 h1        1 EOH      0.018700
      6 H21        -1.3060    0.9010    0.9040 hc        1 EOH      0.044367
      7 H22        -1.3060    0.9010   -0.9040 hc        1 EOH      0.044367
      8 H23        -2.1400   -0.4400    0.0000 hc        1 EOH      0.044367
      9 HO          1.9050   -0.1720    0.0000 ho        1 EOH      0.398000
@<TRIPOS>BOND
     1    1    2 1   
     2    1    3 1   
     3    1    4 1   
     4    1    5 1   
     5    2    6 1   
     6    2    7 1   
     7    2    8 1   
     8    3    9 1   
@<TRIPOS>SUBSTRUCTURE
     1 EOH         1 TEMP              0 ****  ****    0 ROOT
