@<TRIPOS>MOLECULE
EOI
   40    41     1     0     0
SMALL
bcc


@<TRIPOS>ATOM
      1 C           1.5630    0.9670   -2.3210 c3        1 EOI     -0.149100
      2 N           4.0320    0.7960    0.5780 na        1 EOI     -0.236000
      3 O           3.9760    1.3960   -2.2630 os        1 EOI     -0.431600
      4 P           5.6380    0.4440   -3.9140 p5        1 EOI      1.961100
      5 S           6.3910    1.4310   -5.4290 s         1 EOI     -1.530000
      6 C1          2.9070    0.6330   -1.7000 c3        1 EOI      0.128100
      7 N1          6.2120    0.3970    1.2150 nc        1 EOI     -0.613100
      8 O1          6.4380    0.3850   -2.6750 o         1 EOI     -0.869500
      9 P1          4.4330   -2.5610   -4.2570 p5        1 EOI      1.720800
     10 C2          2.8560    1.0460   -0.2110 c3        1 EOI      0.047300
     11 N2          3.0960    1.2910    2.8730 nb        1 EOI     -0.712000
     12 O2          5.1360   -1.0270   -4.2400 os        1 EOI     -0.823800
     13 P2          1.6590   -1.8870   -5.8120 p5        1 EOI      1.597800
     14 C3          5.3540    0.4770    0.1770 cd        1 EOI      0.508700
     15 N3          4.8120    1.1550    4.6350 nb        1 EOI     -0.805000
     16 O3          5.3220   -3.4870   -4.9750 o         1 EOI     -0.898500
     17 C4          5.4560    0.6830    2.3550 ca        1 EOI     -0.178200
     18 O4          3.9890   -2.7610   -2.8640 o         1 EOI     -0.898500
     19 C5          4.0650    0.9500    1.9700 ca        1 EOI      0.401800
     20 O5          3.1080   -2.2340   -5.1490 os        1 EOI     -0.837800
     21 C6          3.5600    1.3660    4.1390 ca        1 EOI      0.616900
     22 O6          0.8110   -3.0820   -6.0130 o         1 EOI     -0.899500
     23 C7          5.7810    0.7830    3.7390 ca        1 EOI      0.664200
     24 O7          1.1410   -0.6640   -5.1520 o         1 EOI     -0.899500
     25 C8          4.1710    1.2570   -3.6710 c3        1 EOI     -0.173800
     26 O8          2.2380   -1.4390   -7.2770 oh        1 EOI     -0.808400
     27 H           0.7350    0.5970   -1.6690 hc        1 EOI      0.058367
     28 HA          1.4600    0.4670   -3.3270 hc        1 EOI      0.058367
     29 HB          1.4580    2.0690   -2.4530 hc        1 EOI      0.058367
     30 HS          3.1220   -1.0940   -7.2380 ho        1 EOI      0.431000
     31 H1          3.1260   -0.4700   -1.8020 h1        1 EOI      0.119700
     32 H2          2.0000    0.4880    0.2650 h1        1 EOI      0.046200
     33 H2A         2.6380    2.1520   -0.1600 h1        1 EOI      0.046200
     34 H3          5.6290    0.3360   -0.9160 h5        1 EOI      0.206800
     35 HN4         7.3750    0.9160    4.9990 hn        1 EOI      0.394300
     36 HN4A        7.7420    0.4390    3.4420 hn        1 EOI      0.394300
     37 H6          2.8070    1.6480    4.9020 h5        1 EOI      0.015100
     38 H8          3.3050    0.7480   -4.1690 h1        1 EOI      0.104200
     39 H8A         4.1880    2.3060   -4.0690 h1        1 EOI      0.104200
     40 N4          7.0700    0.4420    4.1790 nh        1 EOI     -0.920500
@<TRIPOS>BOND
     1    1    6 1   
     2    1   27 1   
     3    1   28 1   
     4    1   29 1   
     5    2   10 1   
     6    2   14 1   
     7    2   19 1   
     8    3    6 1   
     9    3   25 1   
    10    4    5 1   
    11    4    8 1   
    12    4   12 1   
    13    4   25 1   
    14    6   10 1   
    15    6   31 1   
    16    7   14 2   
    17    7   17 1   
    18    9   12 1   
    19    9   16 1   
    20    9   18 1   
    21    9   20 1   
    22   10   32 1   
    23   10   33 1   
    24   11   19 ar  
    25   11   21 ar  
    26   13   20 1   
    27   13   22 1   
    28   13   24 1   
    29   13   26 1   
    30   14   34 1   
    31   15   21 ar  
    32   15   23 ar  
    33   17   19 ar  
    34   17   23 ar  
    35   21   37 1   
    36   23   40 1   
    37   25   38 1   
    38   25   39 1   
    39   26   30 1   
    40   35   40 1   
    41   36   40 1   
@<TRIPOS>SUBSTRUCTURE
     1 EOI         1 TEMP              0 ****  ****    0 ROOT
