@<TRIPOS>MOLECULE
EOL
   24    24     1     0     0
SMALL
bcc


@<TRIPOS>ATOM
      1 C1         -0.0480   -0.6590   -0.3100 ca        1 EOL     -0.161000
      2 O1          2.8860    1.5630    0.1610 oh        1 EOL     -0.496100
      3 C2         -1.0370    0.3090   -0.5260 ca        1 EOL     -0.079300
      4 O2          2.3320   -1.1250    0.1460 os        1 EOL     -0.348900
      5 C3          1.2690   -0.2640   -0.0790 ca        1 EOL      0.044100
      6 C4         -0.7000    1.6640   -0.5070 ca        1 EOL     -0.120000
      7 C5          1.6070    1.1100   -0.0600 ca        1 EOL      0.109100
      8 C6          0.6130    2.0710   -0.2770 ca        1 EOL     -0.135000
      9 C7         -2.4420   -0.1170   -0.7870 c3        1 EOL     -0.005900
     10 C8         -3.0880   -0.6890    0.4230 c2        1 EOL     -0.161200
     11 C9         -4.3380   -0.4190    0.7900 c2        1 EOL     -0.222000
     12 C10         2.0220   -2.5130    0.1340 c3        1 EOL      0.122700
     13 H1         -0.3210   -1.7240   -0.3270 ha        1 EOL      0.138000
     14 HO1         3.4590    0.7920    0.2960 ho        1 EOL      0.436000
     15 H4         -1.4770    2.4250   -0.6750 ha        1 EOL      0.137000
     16 H6          0.8840    3.1360   -0.2610 ha        1 EOL      0.152000
     17 H7         -3.0390    0.7520   -1.1760 hc        1 EOL      0.054700
     18 H7A        -2.4420   -0.9030   -1.5950 hc        1 EOL      0.054700
     19 H8         -2.4540   -1.3750    1.0080 ha        1 EOL      0.121000
     20 H9         -4.7960   -0.8700    1.6810 ha        1 EOL      0.112000
     21 H9A        -4.9890    0.2660    0.2320 ha        1 EOL      0.112000
     22 H10         3.0100   -3.0010    0.3320 h1        1 EOL      0.045033
     23 H10A        1.2900   -2.7600    0.9410 h1        1 EOL      0.045033
     24 H10B        1.6240   -2.8180   -0.8640 h1        1 EOL      0.045033
@<TRIPOS>BOND
     1    1    3 ar  
     2    1    5 ar  
     3    1   13 1   
     4    2    7 1   
     5    2   14 1   
     6    3    6 ar  
     7    3    9 1   
     8    4    5 1   
     9    4   12 1   
    10    5    7 ar  
    11    6    8 ar  
    12    6   15 1   
    13    7    8 ar  
    14    8   16 1   
    15    9   10 1   
    16    9   17 1   
    17    9   18 1   
    18   10   11 2   
    19   10   19 1   
    20   11   20 1   
    21   11   21 1   
    22   12   22 1   
    23   12   23 1   
    24   12   24 1   
@<TRIPOS>SUBSTRUCTURE
     1 EOL         1 TEMP              0 ****  ****    0 ROOT
