@<TRIPOS>MOLECULE
EOL
   24    24     1     0     0
SMALL
bcc


@<TRIPOS>ATOM
      1 C1          0.1530    0.0040    0.0210 ca        1 EOL     -0.161000
      2 O1         -0.6540   -0.2590    3.6320 oh        1 EOL     -0.496100
      3 C2          1.5510   -0.0510    0.0930 ca        1 EOL     -0.079300
      4 O2         -1.9880   -0.0220    1.2460 os        1 EOL     -0.348900
      5 C3         -0.6040   -0.0640    1.1890 ca        1 EOL      0.044100
      6 C4          2.1790   -0.1710    1.3350 ca        1 EOL     -0.120000
      7 C5          0.0350   -0.1860    2.4460 ca        1 EOL      0.109100
      8 C6          1.4320   -0.2400    2.5100 ca        1 EOL     -0.135000
      9 C7          2.3580    0.0090   -1.1600 c3        1 EOL     -0.005900
     10 C8          2.3170    1.3540   -1.7900 c2        1 EOL     -0.161200
     11 C9          3.3820    1.9600   -2.3080 c2        1 EOL     -0.222000
     12 C10        -2.6590    0.1030   -0.0020 c3        1 EOL      0.122700
     13 H1         -0.3340    0.0990   -0.9600 ha        1 EOL      0.138000
     14 HO1        -1.6020   -0.2070    3.4330 ho        1 EOL      0.436000
     15 H4          3.2770   -0.2120    1.3930 ha        1 EOL      0.137000
     16 H6          1.9210   -0.3350    3.4890 ha        1 EOL      0.152000
     17 H7          1.9470   -0.7400   -1.8950 hc        1 EOL      0.054700
     18 H7A         3.4190   -0.2910   -0.9450 hc        1 EOL      0.054700
     19 H8          1.3210    1.8290   -1.8080 ha        1 EOL      0.121000
     20 H9          4.3860    1.5160   -2.2960 ha        1 EOL      0.112000
     21 H9A         3.3190    2.9480   -2.7830 ha        1 EOL      0.112000
     22 H10        -2.3720    1.0570   -0.5090 h1        1 EOL      0.045033
     23 H10A       -2.4350   -0.7720   -0.6590 h1        1 EOL      0.045033
     24 H10B       -3.7410    0.1170    0.2850 h1        1 EOL      0.045033
@<TRIPOS>BOND
     1    1    3 ar  
     2    1    5 ar  
     3    1   13 1   
     4    2    7 1   
     5    2   14 1   
     6    3    6 ar  
     7    3    9 1   
     8    4    5 1   
     9    4   12 1   
    10    5    7 ar  
    11    6    8 ar  
    12    6   15 1   
    13    7    8 ar  
    14    8   16 1   
    15    9   10 1   
    16    9   17 1   
    17    9   18 1   
    18   10   11 2   
    19   10   19 1   
    20   11   20 1   
    21   11   21 1   
    22   12   22 1   
    23   12   23 1   
    24   12   24 1   
@<TRIPOS>SUBSTRUCTURE
     1 EOL         1 TEMP              0 ****  ****    0 ROOT
