@<TRIPOS>MOLECULE
EOL
   24    21     1     0     0
SMALL
bcc


@<TRIPOS>ATOM
      1 C1         -0.7290    0.4690   -0.3550 c1        1 EOL     -0.121000
      2 O1         -1.4120    0.9200    3.2680 oh        1 EOL     -0.260000
      3 C2          0.6700    0.4440   -0.3630 c1        1 EOL     -0.071000
      4 O2         -2.7840    0.6920    0.8400 os        1 EOL     -0.213000
      5 C3         -1.4160    0.5700    0.8440 c2        1 EOL      0.058000
      6 C4          1.3680    0.5180    0.8270 c1        1 EOL     -0.122000
      7 C5         -0.7110    0.6450    2.0480 c2        1 EOL      0.017000
      8 C6          0.6740    0.6200    2.0420 c1        1 EOL     -0.180000
      9 C7          1.4180    0.4620   -1.6760 c3        1 EOL     -0.096000
     10 C8          2.0320   -0.8910   -1.8980 c2        1 EOL     -0.157000
     11 C9          2.8350   -1.1560   -3.1060 c1        1 EOL     -0.222000
     12 C10        -3.4670   -0.5440    0.8580 c3        1 EOL     -0.066000
     13 H1         -1.2520    0.4130   -1.2470 ha        1 EOL      0.152000
     14 HO1        -0.9890    0.4890    3.9680 ho        1 EOL      0.218000
     15 H4          2.3900    0.4990    0.8220 ha        1 EOL      0.135000
     16 H6          1.1510    0.6700    2.8570 ha        1 EOL      0.133000
     17 H7          2.1450    1.1640   -1.6430 hc        1 EOL      0.095500
     18 H7A         0.8070    0.6650   -2.3970 hc        1 EOL      0.095500
     19 H8          1.8960   -1.6060   -1.2300 ha        1 EOL      0.122000
     20 H9          2.9750   -0.4360   -3.7840 DU        1 EOL      0.111000
     21 H9A         3.2370   -2.0510   -3.2440 ha        1 EOL      0.113000
     22 H10        -2.7860   -1.3200    1.1020 h1        1 EOL      0.085667
     23 H10A       -4.1820   -0.5130    1.5290 h1        1 EOL      0.085667
     24 H10B       -3.8700   -0.7230   -0.0630 h1        1 EOL      0.085667
@<TRIPOS>BOND
     1    1    5 1   
     2    1   13 1   
     3    2    7 1   
     4    2   14 1   
     5    3    6 1   
     6    3    9 1   
     7    4    5 1   
     8    4   12 1   
     9    5    7 1   
    10    6   15 1   
    11    7    8 1   
    12    8   16 1   
    13    9   10 1   
    14    9   17 1   
    15    9   18 1   
    16   10   11 1   
    17   10   19 1   
    18   11   21 1   
    19   12   22 1   
    20   12   23 1   
    21   12   24 1   
@<TRIPOS>SUBSTRUCTURE
     1 EOL         1 TEMP              0 ****  ****    0 ROOT
