@<TRIPOS>MOLECULE
EOL
   24    24     1     0     0
SMALL
bcc


@<TRIPOS>ATOM
      1 C1          0.1580   -0.0040    0.0220 ca        1 EOL     -0.161000
      2 O1         -0.6580   -0.2380    3.6340 oh        1 EOL     -0.496100
      3 C2          1.5570   -0.0360    0.1000 ca        1 EOL     -0.079300
      4 O2         -1.9870   -0.0480    1.2400 os        1 EOL     -0.348900
      5 C3         -0.6020   -0.0700    1.1890 ca        1 EOL      0.044100
      6 C4          2.1820   -0.1320    1.3460 ca        1 EOL     -0.120000
      7 C5          0.0350   -0.1680    2.4490 ca        1 EOL      0.109100
      8 C6          1.4320   -0.1990    2.5180 ca        1 EOL     -0.135000
      9 C7          2.3670    0.0210   -1.1500 c3        1 EOL     -0.005900
     10 C8          2.3080    1.3590   -1.7950 c2        1 EOL     -0.161200
     11 C9          3.3660    1.9750   -2.3170 c2        1 EOL     -0.222000
     12 C10        -2.6550    0.0410   -0.0120 c3        1 EOL      0.122700
     13 H1         -0.3270    0.0720   -0.9610 ha        1 EOL      0.138000
     14 HO1        -1.6060   -0.2040    3.4310 ho        1 EOL      0.436000
     15 H4          3.2800   -0.1550    1.4080 ha        1 EOL      0.137000
     16 H6          1.9190   -0.2750    3.5010 ha        1 EOL      0.152000
     17 H7          1.9700   -0.7410   -1.8780 hc        1 EOL      0.054700
     18 H7A         3.4320   -0.2600   -0.9280 hc        1 EOL      0.054700
     19 H8          1.3060    1.8180   -1.8220 ha        1 EOL      0.121000
     20 H9          4.3760    1.5460   -2.2960 ha        1 EOL      0.112000
     21 H9A         3.2900    2.9560   -2.8030 ha        1 EOL      0.112000
     22 H10        -2.3850    0.9900   -0.5350 h1        1 EOL      0.045033
     23 H10A       -2.4110   -0.8420   -0.6520 h1        1 EOL      0.045033
     24 H10B       -3.7380    0.0380    0.2700 h1        1 EOL      0.045033
@<TRIPOS>BOND
     1    1    3 ar  
     2    1    5 ar  
     3    1   13 1   
     4    2    7 1   
     5    2   14 1   
     6    3    6 ar  
     7    3    9 1   
     8    4    5 1   
     9    4   12 1   
    10    5    7 ar  
    11    6    8 ar  
    12    6   15 1   
    13    7    8 ar  
    14    8   16 1   
    15    9   10 1   
    16    9   17 1   
    17    9   18 1   
    18   10   11 2   
    19   10   19 1   
    20   11   20 1   
    21   11   21 1   
    22   12   22 1   
    23   12   23 1   
    24   12   24 1   
@<TRIPOS>SUBSTRUCTURE
     1 EOL         1 TEMP              0 ****  ****    0 ROOT
