@<TRIPOS>MOLECULE
EOM
   12    11     1     0     0
SMALL
bcc


@<TRIPOS>ATOM
      1 O2'        -2.6900    0.0000   -1.3650 o         1 EOM     -0.841500
      2 CA'        -1.2810    0.0000   -1.3650 c3        1 EOM      0.582900
      3 OB'        -0.8120    0.0000   -0.0370 os        1 EOM     -0.530600
      4 CC'         0.5930    0.0000    0.0710 c3        1 EOM      0.168400
      5 CD'         0.9860    0.0000    1.5320 c3        1 EOM     -0.093100
      6 HA'1       -0.9560   -0.7970   -1.8250 h2        1 EOM     -0.138300
      7 HA'2       -0.9560    0.7970   -1.8250 h2        1 EOM     -0.138300
      8 HC'1        0.9530   -0.7970   -0.3620 h1        1 EOM     -0.027300
      9 HC'2        0.9530    0.7970   -0.3620 h1        1 EOM     -0.027300
     10 HD'1        0.6260   -0.7970    1.9660 hc        1 EOM      0.014367
     11 HD'2        1.9590    0.0000    1.6080 hc        1 EOM      0.014367
     12 HD'3        0.6260    0.7970    1.9660 hc        1 EOM      0.014367
@<TRIPOS>BOND
     1    1    2 1   
     2    2    3 1   
     3    2    6 1   
     4    2    7 1   
     5    3    4 1   
     6    4    5 1   
     7    4    8 1   
     8    4    9 1   
     9    5   10 1   
    10    5   11 1   
    11    5   12 1   
@<TRIPOS>SUBSTRUCTURE
     1 EOM         1 TEMP              0 ****  ****    0 ROOT
