@<TRIPOS>MOLECULE
EOM
   12    11     1     0     0
SMALL
bcc


@<TRIPOS>ATOM
      1 O2'         0.1660   -0.5370    0.1960 o         1 EOM     -0.882500
      2 CA'         1.3440    0.0040    0.1630 c3        1 EOM      0.563900
      3 OB'         2.3430   -0.8680    0.8260 os        1 EOM     -0.562600
      4 CC'         1.8850   -1.6000    1.9230 c3        1 EOM      0.162400
      5 CD'         2.2400   -0.9080    3.2290 c3        1 EOM     -0.114100
      6 HA'1        1.8320    0.1210   -0.8610 h2        1 EOM     -0.112800
      7 HA'2        1.4500    1.0110    0.6960 h2        1 EOM     -0.112800
      8 HC'1        0.7730   -1.7610    1.8630 h1        1 EOM      0.017200
      9 HC'2        2.4030   -2.6000    1.8810 h1        1 EOM      0.017200
     10 HD'1        1.8890   -1.5140    4.0980 hc        1 EOM      0.008367
     11 HD'2        1.7550    0.0960    3.2660 hc        1 EOM      0.008367
     12 HD'3        3.3440   -0.7660    3.3130 hc        1 EOM      0.008367
@<TRIPOS>BOND
     1    1    2 1   
     2    2    3 1   
     3    2    6 1   
     4    2    7 1   
     5    3    4 1   
     6    4    5 1   
     7    4    8 1   
     8    4    9 1   
     9    5   10 1   
    10    5   11 1   
    11    5   12 1   
@<TRIPOS>SUBSTRUCTURE
     1 EOM         1 TEMP              0 ****  ****    0 ROOT
