@<TRIPOS>MOLECULE
EOM
   12    11     1     0     0
SMALL
bcc


@<TRIPOS>ATOM
      1 O2'         0.1530   -0.5080    0.2150 o         1 EOM     -0.882500
      2 CA'         1.3440    0.0030    0.1620 c3        1 EOM      0.563900
      3 OB'         2.3290   -0.8880    0.8200 os        1 EOM     -0.562600
      4 CC'         1.8670   -1.6010    1.9280 c3        1 EOM      0.162400
      5 CD'         2.2570   -0.9080    3.2240 c3        1 EOM     -0.114100
      6 HA'1        1.8210    0.1000   -0.8690 h2        1 EOM     -0.112800
      7 HA'2        1.4820    1.0110    0.6860 h2        1 EOM     -0.112800
      8 HC'1        0.7500   -1.7330    1.8840 h1        1 EOM      0.017200
      9 HC'2        2.3580   -2.6140    1.8880 h1        1 EOM      0.017200
     10 HD'1        1.9020   -1.4980    4.1030 hc        1 EOM      0.008367
     11 HD'2        1.7980    0.1080    3.2590 hc        1 EOM      0.008367
     12 HD'3        3.3640   -0.7940    3.2930 hc        1 EOM      0.008367
@<TRIPOS>BOND
     1    1    2 1   
     2    2    3 1   
     3    2    6 1   
     4    2    7 1   
     5    3    4 1   
     6    4    5 1   
     7    4    8 1   
     8    4    9 1   
     9    5   10 1   
    10    5   11 1   
    11    5   12 1   
@<TRIPOS>SUBSTRUCTURE
     1 EOM         1 TEMP              0 ****  ****    0 ROOT
