@<TRIPOS>MOLECULE
EOM
   12    11     1     0     0
SMALL
bcc


@<TRIPOS>ATOM
      1 O2'        -1.5280   -0.8060   -0.1670 o         1 EOM     -0.882500
      2 CA'        -1.1990    0.4480   -0.1170 c3        1 EOM      0.563900
      3 OB'         0.0740    0.6870   -0.8370 os        1 EOM     -0.562600
      4 CC'         1.0190   -0.3390   -0.7710 c3        1 EOM      0.162400
      5 CD'         2.0580   -0.0560    0.3010 c3        1 EOM     -0.114100
      6 HA'1       -1.8780    1.1840   -0.6630 h2        1 EOM     -0.112800
      7 HA'2       -1.0180    0.8780    0.9270 h2        1 EOM     -0.112800
      8 HC'1        0.5220   -1.3300   -0.5740 h1        1 EOM      0.017200
      9 HC'2        1.5250   -0.3760   -1.7770 h1        1 EOM      0.017200
     10 HD'1        2.5770    0.9110    0.1030 hc        1 EOM      0.008367
     11 HD'2        1.5610    0.0120    1.2980 hc        1 EOM      0.008367
     12 HD'3        2.8200   -0.8720    0.3300 hc        1 EOM      0.008367
@<TRIPOS>BOND
     1    1    2 1   
     2    2    3 1   
     3    2    6 1   
     4    2    7 1   
     5    3    4 1   
     6    4    5 1   
     7    4    8 1   
     8    4    9 1   
     9    5   10 1   
    10    5   11 1   
    11    5   12 1   
@<TRIPOS>SUBSTRUCTURE
     1 EOM         1 TEMP              0 ****  ****    0 ROOT
