@<TRIPOS>MOLECULE
EOP
   28    25     1     0     0
SMALL
bcc


@<TRIPOS>ATOM
      1 OAD        -0.1470    0.2760   -1.6470 o         1 EOP     -1.224000
      2 PAR         0.7130    0.0030   -0.4530 p3        1 EOP      2.548000
      3 OAH         0.1530    0.4740    0.8530 o         1 EOP     -1.224000
      4 OAG         1.4360   -1.3010   -0.4330 o         1 EOP     -1.224000
      5 CAL         2.1810    1.6120   -0.7290 c2        1 EOP     -0.796000
      6 CAP         3.6120    1.6530   -0.9490 c2        1 EOP      0.372000
      7 OAB         4.1600    1.5810   -2.0880 o         1 EOP     -0.524000
      8 NAN         4.4580    1.8650    0.1710 n         1 EOP     -0.393000
      9 CAJ         5.8860    1.7480    0.0700 c3        1 EOP     -0.038000
     10 CAI         6.6470    2.6210    1.1110 c3        1 EOP     -0.038000
     11 NAM         8.0750    2.5470    0.9720 n         1 EOP     -0.393000
     12 CAO         8.9180    3.6150    1.3770 c2        1 EOP      0.372000
     13 OAA         8.3670    4.7210    1.6490 o         1 EOP     -0.524000
     14 CAK        10.3510    3.3970    1.3740 c2        1 EOP     -0.796000
     15 PAQ        11.8250    2.8460    2.9040 p3        1 EOP      2.548000
     16 OAF        12.6810    4.0730    2.8450 o         1 EOP     -1.224000
     17 OAE        11.1070    2.5940    4.1860 o         1 EOP     -1.224000
     18 OAC        12.3880    1.6470    2.2080 o         1 EOP     -1.224000
     19 HAL1        1.8290    2.0780    0.2040 ha        1 EOP      0.095500
     20 HAL2        1.6260    1.9280   -1.6280 ha        1 EOP      0.095500
     21 HAN         4.0760    1.5910    1.0460 hn        1 EOP      0.186000
     22 HAJ1        6.2140    0.6740    0.2060 h1        1 EOP      0.063000
     23 HAJ2        6.1900    2.0610   -0.9680 h1        1 EOP      0.063000
     24 HAI1        6.3390    3.6970    0.9860 h1        1 EOP      0.063000
     25 HAI2        6.3240    2.2960    2.1440 h1        1 EOP      0.063000
     26 HAM         8.4610    1.6390    1.0870 hn        1 EOP      0.186000
     27 HAK1       10.7040    2.5610    0.7500 ha        1 EOP      0.095500
     28 HAK2       10.9020    4.3390    1.2200 ha        1 EOP      0.095500
@<TRIPOS>BOND
     1    1    2 1   
     2    2    3 1   
     3    2    4 1   
     4    5    6 1   
     5    5   19 1   
     6    5   20 1   
     7    6    7 1   
     8    6    8 1   
     9    8    9 1   
    10    8   21 1   
    11    9   10 1   
    12    9   22 1   
    13    9   23 1   
    14   10   11 1   
    15   10   24 1   
    16   10   25 1   
    17   11   12 1   
    18   11   26 1   
    19   12   13 1   
    20   12   14 1   
    21   14   27 1   
    22   14   28 1   
    23   15   16 1   
    24   15   17 1   
    25   15   18 1   
@<TRIPOS>SUBSTRUCTURE
     1 EOP         1 TEMP              0 ****  ****    0 ROOT
