@<TRIPOS>MOLECULE
EOP
   28    25     1     0     0
SMALL
bcc


@<TRIPOS>ATOM
      1 OAD         7.0620   -0.6260   -0.0980 o         1 EOP     -1.224000
      2 PAR         5.9780    0.3690    0.1740 p3        1 EOP      2.548000
      3 OAH         5.9720    0.9380    1.5580 o         1 EOP     -1.224000
      4 OAG         5.6420    1.3110   -0.9310 o         1 EOP     -1.224000
      5 CAL         4.3050   -1.0280    0.4340 c2        1 EOP     -0.796000
      6 CAP         3.0490   -1.2460   -0.2550 c2        1 EOP      0.372000
      7 OAB         2.9130   -1.9900   -1.2690 o         1 EOP     -0.524000
      8 NAN         1.8760   -0.6540    0.2840 n         1 EOP     -0.393000
      9 CAJ         0.6270   -0.6760   -0.4260 c3        1 EOP     -0.038000
     10 CAI        -0.6120   -0.6160    0.5140 c3        1 EOP     -0.038000
     11 NAM        -1.8600   -0.6950   -0.1920 n         1 EOP     -0.393000
     12 CAO        -3.0300   -1.2160    0.4210 c2        1 EOP      0.372000
     13 OAA        -2.8910   -1.8180    1.5250 o         1 EOP     -0.524000
     14 CAK        -4.2870   -1.0970   -0.2900 c2        1 EOP     -0.796000
     15 PAQ        -5.9670    0.3150   -0.2180 p3        1 EOP      2.548000
     16 OAF        -7.0470   -0.6400    0.1840 o         1 EOP     -1.224000
     17 OAE        -5.6360    1.3970    0.7530 o         1 EOP     -1.224000
     18 OAC        -5.9630    0.6950   -1.6650 o         1 EOP     -1.224000
     19 HAL1        5.0080   -1.8600    0.2630 ha        1 EOP      0.095500
     20 HAL2        4.2230   -0.7170    1.4870 ha        1 EOP      0.095500
     21 HAN         2.0290    0.1550    0.8380 hn        1 EOP      0.186000
     22 HAJ1        0.5590    0.1890   -1.1510 h1        1 EOP      0.063000
     23 HAJ2        0.5860   -1.6240   -1.0320 h1        1 EOP      0.063000
     24 HAI1       -0.5660   -1.4750    1.2410 h1        1 EOP      0.063000
     25 HAI2       -0.5480    0.3380    1.1180 h1        1 EOP      0.063000
     26 HAM        -2.0170    0.0330   -0.8480 hn        1 EOP      0.186000
     27 HAK1       -4.2070   -0.9270   -1.3750 ha        1 EOP      0.095500
     28 HAK2       -4.9870   -1.9020   -0.0100 ha        1 EOP      0.095500
@<TRIPOS>BOND
     1    1    2 1   
     2    2    3 1   
     3    2    4 1   
     4    5    6 1   
     5    5   19 1   
     6    5   20 1   
     7    6    7 1   
     8    6    8 1   
     9    8    9 1   
    10    8   21 1   
    11    9   10 1   
    12    9   22 1   
    13    9   23 1   
    14   10   11 1   
    15   10   24 1   
    16   10   25 1   
    17   11   12 1   
    18   11   26 1   
    19   12   13 1   
    20   12   14 1   
    21   14   27 1   
    22   14   28 1   
    23   15   16 1   
    24   15   17 1   
    25   15   18 1   
@<TRIPOS>SUBSTRUCTURE
     1 EOP         1 TEMP              0 ****  ****    0 ROOT
