@<TRIPOS>MOLECULE
EOP
   28    27     1     0     0
SMALL
bcc


@<TRIPOS>ATOM
      1 OAD        -3.6660   -1.3120    4.4500 o         1 EOP     -0.904167
      2 PAR        -4.4630   -1.7660    3.2510 p5        1 EOP      1.181700
      3 OAH        -4.3060   -3.2630    3.0760 o         1 EOP     -0.904167
      4 OAG        -5.9210   -1.4330    3.4610 o         1 EOP     -0.904167
      5 CAL        -3.8650   -0.9320    1.7870 c3        1 EOP     -0.359600
      6 CAP        -2.3600   -1.1780    1.6370 c         1 EOP      0.726100
      7 OAB        -1.7570   -1.8360    2.4820 o         1 EOP     -0.764100
      8 NAN        -1.6560   -0.6580    0.4890 n         1 EOP     -0.580900
      9 CAJ        -0.2180   -0.5770    0.5010 c3        1 EOP      0.075000
     10 CAI         0.2610    0.1100   -0.7640 c3        1 EOP      0.075000
     11 NAM         1.6710    0.1520   -0.7690 n         1 EOP     -0.580900
     12 CAO         2.3670    0.8990   -1.7830 c         1 EOP      0.726100
     13 OAA         1.7720    1.2720   -2.7850 o         1 EOP     -0.764100
     14 CAK         3.8240    1.3370   -1.5460 c3        1 EOP     -0.359600
     15 PAQ         4.4540    2.1950   -3.0270 p5        1 EOP      1.181700
     16 OAF         5.8860    2.6400   -2.7850 o         1 EOP     -0.904167
     17 OAE         4.4120    1.2520   -4.2130 o         1 EOP     -0.904167
     18 OAC         3.5870    3.4130   -3.3150 o         1 EOP     -0.904167
     19 HAL1       -4.3330   -1.2810    0.9980 hc        1 EOP      0.056700
     20 HAL2       -4.0310    0.0300    1.8670 hc        1 EOP      0.056700
     21 HAN        -2.1250   -0.3510   -0.2350 hn        1 EOP      0.271500
     22 HAJ1        0.1630   -1.4870    0.5470 h1        1 EOP      0.025200
     23 HAJ2        0.0750   -0.0600    1.2850 h1        1 EOP      0.025200
     24 HAI1       -0.0920    1.0160   -0.7940 h1        1 EOP      0.025200
     25 HAI2       -0.0560   -0.3900   -1.5470 h1        1 EOP      0.025200
     26 HAM         2.1390   -0.2830   -0.1240 hn        1 EOP      0.271500
     27 HAK1        3.8620    1.9450   -0.7730 hc        1 EOP      0.056700
     28 HAK2        4.3760    0.5490   -1.3680 hc        1 EOP      0.056700
@<TRIPOS>BOND
     1    1    2 1   
     2    2    3 1   
     3    2    4 1   
     4    2    5 1   
     5    5    6 1   
     6    5   19 1   
     7    5   20 1   
     8    6    7 2   
     9    6    8 1   
    10    8    9 1   
    11    8   21 1   
    12    9   10 1   
    13    9   22 1   
    14    9   23 1   
    15   10   11 1   
    16   10   24 1   
    17   10   25 1   
    18   11   12 1   
    19   11   26 1   
    20   12   13 2   
    21   12   14 1   
    22   14   15 1   
    23   14   27 1   
    24   14   28 1   
    25   15   16 1   
    26   15   17 1   
    27   15   18 1   
@<TRIPOS>SUBSTRUCTURE
     1 EOP         1 TEMP              0 ****  ****    0 ROOT
