@<TRIPOS>MOLECULE
EOT
   58    55     1     0     0
SMALL
bcc


@<TRIPOS>ATOM
      1 C15        -1.4000   -1.5540   -1.8990 c1        1 EOT     -0.010800
      2 C16        -0.0480   -1.6440   -1.6250 c1        1 EOT     -0.079000
      3 C17         0.4430   -1.2490   -0.3780 c1        1 EOT     -0.079000
      4 C12        -0.4310   -0.7610    0.5940 c1        1 EOT      0.022900
      5 C13        -1.8020   -0.6690    0.3170 c1        1 EOT     -0.040500
      6 C14        -2.2860   -1.0620   -0.9210 c1        1 EOT     -0.051500
      7 N3         -1.9160   -2.1030   -3.1180 n         1 EOT     -0.366700
      8 C18        -3.3090   -1.9690   -3.4340 c         1 EOT      0.620400
      9 S1         -4.3730   -1.2770   -2.3050 s         1 EOT     -0.821400
     10 N4         -3.8060   -2.3960   -4.7370 n         1 EOT     -0.555900
     11 C19        -5.0470   -1.8320   -5.2630 c3        1 EOT      0.047000
     12 C20        -5.1290   -2.0800   -6.7450 c3        1 EOT      0.119400
     13 O9         -4.0600   -1.4400   -7.3880 oh        1 EOT     -0.638800
     14 C11         0.0790   -0.5170    2.0270 c3        1 EOT     -0.117300
     15 C1          1.3090    0.3760    1.9840 c3        1 EOT      0.216500
     16 C2          1.0860    1.5750    2.8530 c3        1 EOT      0.149800
     17 N1          2.4590   -0.3620    2.4600 n3        1 EOT     -0.731600
     18 C9          3.0210   -1.1290    1.3750 c3        1 EOT      0.079300
     19 C10         4.5270   -1.3860    1.6500 c         1 EOT      0.896100
     20 O7          4.9560   -2.5710    1.7660 o         1 EOT     -0.891800
     21 O8          5.3160   -0.4070    1.8200 o         1 EOT     -0.891800
     22 C7          2.0480   -1.2780    3.5530 c3        1 EOT      0.079300
     23 C8          3.2570   -1.6000    4.4240 c         1 EOT      0.896100
     24 O5          3.2850   -2.6710    5.0950 o         1 EOT     -0.891800
     25 O6          4.1860   -0.7680    4.5360 o         1 EOT     -0.891800
     26 N2          1.4290    2.8200    2.0830 n3        1 EOT     -0.691600
     27 C5          0.2290    3.5760    1.8290 c3        1 EOT      0.066300
     28 C6          0.5700    4.8020    0.9980 c         1 EOT      0.916100
     29 O3          0.9270    4.6700   -0.2010 o         1 EOT     -0.885050
     30 O4          0.5720    5.9410    1.5320 o         1 EOT     -0.885050
     31 C3          2.3850    3.6540    2.8760 c3        1 EOT      0.066300
     32 C4          3.2060    4.5110    1.9350 c         1 EOT      0.916100
     33 O1          3.5210    5.6840    2.2650 o         1 EOT     -0.885050
     34 O2          3.5580    4.0580    0.8260 o         1 EOT     -0.885050
     35 H16         0.5740   -2.0490   -2.3030 ha        1 EOT      0.070500
     36 H17         1.4040   -1.3070   -0.1910 ha        1 EOT      0.070500
     37 H13        -2.4430   -0.3980    1.0400 ha        1 EOT      0.138500
     38 H14        -3.2580   -1.0190   -1.1100 ha        1 EOT      0.073500
     39 HN3        -1.3590   -2.5790   -3.6800 hn        1 EOT      0.411500
     40 HN4        -3.3600   -3.0770   -5.2110 hn        1 EOT      0.312500
     41 H191       -5.8220   -2.2620   -4.8130 h1        1 EOT      0.062200
     42 H192       -5.0660   -0.8530   -5.0890 h1        1 EOT      0.062200
     43 H201       -5.0850   -3.0380   -6.9180 h1        1 EOT      0.036200
     44 H202       -5.9700   -1.7270   -7.0860 h1        1 EOT      0.036200
     45 HO9        -4.1200   -1.5710   -8.2640 ho        1 EOT      0.417000
     46 H111       -0.6260   -0.0810    2.5560 hc        1 EOT      0.076200
     47 H112        0.3150   -1.3780    2.4400 hc        1 EOT      0.076200
     48 H1          1.4680    0.6640    1.0710 h1        1 EOT      0.038700
     49 H21         1.6540    1.5140    3.6440 h1        1 EOT      0.042700
     50 H22         0.1200    1.6100    3.1350 h1        1 EOT      0.042700
     51 H91         2.5520   -1.9860    1.3050 h1        1 EOT      0.037700
     52 H92         2.9210   -0.6250    0.5250 h1        1 EOT      0.037700
     53 H71         1.3600   -0.8480    4.0970 h1        1 EOT      0.037700
     54 H72         1.6930   -2.1040    3.1700 h1        1 EOT      0.037700
     55 H51        -0.4180    3.0140    1.3390 h1        1 EOT      0.020700
     56 H52        -0.1640    3.8600    2.6800 h1        1 EOT      0.020700
     57 H31         2.9830    3.0680    3.3910 h1        1 EOT      0.020700
     58 H32         1.8840    4.2310    3.4900 h1        1 EOT      0.020700
@<TRIPOS>BOND
     1    1    6 3   
     2    1    7 1   
     3    2    3 3   
     4    2   35 1   
     5    3   36 1   
     6    4    5 3   
     7    4   14 1   
     8    5   37 1   
     9    6   38 1   
    10    7    8 1   
    11    7   39 1   
    12    8    9 2   
    13    8   10 1   
    14   10   11 1   
    15   10   40 1   
    16   11   12 1   
    17   11   41 1   
    18   11   42 1   
    19   12   13 1   
    20   12   43 1   
    21   12   44 1   
    22   13   45 1   
    23   14   15 1   
    24   14   46 1   
    25   14   47 1   
    26   15   16 1   
    27   15   17 1   
    28   15   48 1   
    29   16   26 1   
    30   16   49 1   
    31   16   50 1   
    32   17   18 1   
    33   17   22 1   
    34   18   19 1   
    35   18   51 1   
    36   18   52 1   
    37   19   20 1   
    38   19   21 1   
    39   22   23 1   
    40   22   53 1   
    41   22   54 1   
    42   23   24 1   
    43   23   25 1   
    44   26   27 1   
    45   26   31 1   
    46   27   28 1   
    47   27   55 1   
    48   27   56 1   
    49   28   29 1   
    50   28   30 1   
    51   31   32 1   
    52   31   57 1   
    53   31   58 1   
    54   32   33 1   
    55   32   34 1   
@<TRIPOS>SUBSTRUCTURE
     1 EOT         1 TEMP              0 ****  ****    0 ROOT
