@<TRIPOS>MOLECULE
EOT
   61    61     1     0     0
SMALL
bcc


@<TRIPOS>ATOM
      1 C15         0.9450   -2.1850    0.5310 ca        1 EOT     -0.005400
      2 C16         2.3510   -2.0760    0.6330 ca        1 EOT     -0.141000
      3 C17         2.9100   -1.6550    1.8330 ca        1 EOT     -0.102000
      4 C12         2.0760   -1.3550    2.9180 ca        1 EOT     -0.088300
      5 C13         0.7380   -1.7680    2.8970 ca        1 EOT     -0.102000
      6 C14         0.1640   -2.1940    1.7030 ca        1 EOT     -0.141000
      7 N3          0.3700   -2.1340   -0.7820 ns        1 EOT     -0.333100
      8 C18        -0.9110   -1.6050   -0.9140 c         1 EOT      0.321400
      9 S1         -2.2610   -2.2850   -0.5210 s         1 EOT     -0.209400
     10 N4         -1.0330   -0.2330   -1.5400 ny        1 EOT     -0.654800
     11 C19        -0.1130    0.0770   -2.6580 c3        1 EOT      0.040800
     12 C20        -0.5890    1.2750   -3.5000 c3        1 EOT      0.129400
     13 O9         -1.3630    2.1930   -2.7700 oh        1 EOT     -0.612800
     14 C11         2.5550   -0.4330    3.9800 c3        1 EOT     -0.096100
     15 C1          2.0080    0.9820    3.6840 c3        1 EOT      0.131500
     16 C2          2.3780    1.9270    4.8540 c3        1 EOT      0.106800
     17 N1          2.4660    1.5160    2.3420 nx        1 EOT     -0.649400
     18 C9          1.3970    2.3180    1.6630 c3        1 EOT     -0.033200
     19 C10         0.8380    1.6430    0.4110 c         1 EOT      0.910100
     20 O7         -0.2370    2.0930   -0.1030 o         1 EOT     -0.824300
     21 O8          1.4030    0.6390   -0.1220 o         1 EOT     -0.824300
     22 C7          3.7460    2.2710    2.4020 c3        1 EOT     -0.033200
     23 C8          4.9290    1.3810    2.9270 c         1 EOT      0.910100
     24 O5          5.4550    1.7460    4.0040 o         1 EOT     -0.824300
     25 O6          5.2220    0.3810    2.2240 o         1 EOT     -0.824300
     26 N2          1.5150    1.6910    6.0520 nx        1 EOT     -0.646400
     27 C5          2.2380    1.0640    7.1940 c3        1 EOT     -0.050700
     28 C6          1.6390   -0.3430    7.5660 c         1 EOT      0.920100
     29 O3          1.9830   -0.8000    8.6750 o         1 EOT     -0.803550
     30 O4          0.8800   -0.8800    6.7100 o         1 EOT     -0.803550
     31 C3          0.8030    2.9400    6.4420 c3        1 EOT     -0.050700
     32 C4         -0.1310    3.4900    5.3130 c         1 EOT      0.920100
     33 O1         -0.6150    4.6250    5.5170 o         1 EOT     -0.803550
     34 O2         -0.3150    2.7590    4.2980 o         1 EOT     -0.803550
     35 H16         2.9980   -2.2150   -0.2460 ha        1 EOT      0.142500
     36 H17         3.9990   -1.4560    1.9020 ha        1 EOT      0.188500
     37 H13         0.1290   -1.6950    3.8150 ha        1 EOT      0.188500
     38 H14        -0.9030   -2.4640    1.6710 ha        1 EOT      0.142500
     39 HN3         1.0520   -1.7620   -1.4280 hn        1 EOT      0.304500
     40 HN4        -2.0080   -0.0990   -1.8390 hn        1 EOT      0.490800
     41 H191       -0.0080   -0.8210   -3.3240 hx        1 EOT      0.108700
     42 H192        0.8920    0.3340   -2.1930 hx        1 EOT      0.108700
     43 H201        0.3200    1.7650   -3.9400 h1        1 EOT      0.058200
     44 H202       -1.2660    0.9260   -4.3270 h1        1 EOT      0.058200
     45 HO9        -0.8100    2.5790   -2.0660 ho        1 EOT      0.461000
     46 H111        3.6790   -0.4160    4.0290 hc        1 EOT      0.123700
     47 H112        2.1590   -0.7540    4.9890 hc        1 EOT      0.123700
     48 H1          0.8720    0.9140    3.6170 hx        1 EOT      0.133700
     49 H21         2.2140    2.9960    4.5270 hx        1 EOT      0.118700
     50 H22         3.4720    1.7920    5.1120 hx        1 EOT      0.118700
     51 H91         0.5400    2.5290    2.3780 hx        1 EOT      0.105200
     52 H92         1.8220    3.3140    1.3530 hx        1 EOT      0.105200
     53 H71         3.6310    3.1800    3.0470 hx        1 EOT      0.105200
     54 H72         4.0030    2.5920    1.3560 hx        1 EOT      0.105200
     55 H51         3.3200    0.9100    6.9400 hx        1 EOT      0.082950
     56 H52         2.1700    1.7310    8.0930 hx        1 EOT      0.082950
     57 H31         1.5560    3.7240    6.7150 hx        1 EOT      0.082950
     58 H32         0.1650    2.7100    7.3380 hx        1 EOT      0.082950
     59 H42        -0.8290    0.4960   -0.7850 hn        1 EOT      0.490800
     60 H11         2.6590    0.6880    1.7390 hn        1 EOT      0.477800
     61 H211        0.7680    1.0100    5.7770 hn        1 EOT      0.478800
@<TRIPOS>BOND
     1    1    2 ar  
     2    1    6 ar  
     3    1    7 1   
     4    2    3 ar  
     5    2   35 1   
     6    3    4 ar  
     7    3   36 1   
     8    4    5 ar  
     9    4   14 1   
    10    5    6 ar  
    11    5   37 1   
    12    6   38 1   
    13    7    8 1   
    14    7   39 1   
    15    8    9 2   
    16    8   10 1   
    17   10   11 1   
    18   10   40 1   
    19   10   59 1   
    20   11   12 1   
    21   11   41 1   
    22   11   42 1   
    23   12   13 1   
    24   12   43 1   
    25   12   44 1   
    26   13   45 1   
    27   14   15 1   
    28   14   46 1   
    29   14   47 1   
    30   15   16 1   
    31   15   17 1   
    32   15   48 1   
    33   16   26 1   
    34   16   49 1   
    35   16   50 1   
    36   17   18 1   
    37   17   22 1   
    38   17   60 1   
    39   18   19 1   
    40   18   51 1   
    41   18   52 1   
    42   19   20 1   
    43   19   21 1   
    44   22   23 1   
    45   22   53 1   
    46   22   54 1   
    47   23   24 1   
    48   23   25 1   
    49   26   27 1   
    50   26   31 1   
    51   26   61 1   
    52   27   28 1   
    53   27   55 1   
    54   27   56 1   
    55   28   29 1   
    56   28   30 1   
    57   31   32 1   
    58   31   57 1   
    59   31   58 1   
    60   32   33 1   
    61   32   34 1   
@<TRIPOS>SUBSTRUCTURE
     1 EOT         1 TEMP              0 ****  ****    0 ROOT
