@<TRIPOS>MOLECULE
EOT
   61    61     1     0     0
SMALL
bcc


@<TRIPOS>ATOM
      1 C15        -0.0420   -1.0690    0.1640 ca        1 EOT      0.031600
      2 C16         1.3660   -1.0390    0.1870 ca        1 EOT     -0.142000
      3 C17         2.0380   -0.8570    1.3940 ca        1 EOT     -0.113500
      4 C12         1.3330   -0.7080    2.5930 ca        1 EOT     -0.114300
      5 C13        -0.0660   -0.7550    2.5750 ca        1 EOT     -0.113500
      6 C14        -0.7520   -0.9270    1.3800 ca        1 EOT     -0.142000
      7 N3         -0.7820   -1.3060   -1.0200 n         1 EOT     -0.412100
      8 C18        -0.5260   -0.7060   -2.2500 c         1 EOT      0.568400
      9 S1          0.8890   -0.0150   -2.6430 s         1 EOT     -0.572400
     10 N4         -1.5830   -0.7250   -3.1640 n         1 EOT     -0.512900
     11 C19        -1.3560   -0.4610   -4.5600 c3        1 EOT      0.025000
     12 C20        -1.7760   -1.6120   -5.4840 c3        1 EOT      0.098400
     13 O9         -3.1280   -1.9800   -5.2900 oh        1 EOT     -0.604800
     14 C11         2.0690   -0.5410    3.8720 c3        1 EOT     -0.085100
     15 C1          2.1240    0.9260    4.3560 c3        1 EOT      0.147500
     16 C2          2.8760    0.8960    5.7130 c3        1 EOT      0.097800
     17 N1          2.7060    1.8220    3.2780 n4        1 EOT     -0.653400
     18 C9          1.7750    2.9180    2.8740 c3        1 EOT      0.029800
     19 C10         1.7090    3.1840    1.3950 c         1 EOT      0.624100
     20 O7          0.8010    3.7610    0.7940 o         1 EOT     -0.528000
     21 O8          2.7780    2.7690    0.6620 oh        1 EOT     -0.607100
     22 C7          4.0680    2.3630    3.5510 c3        1 EOT     -0.062200
     23 C8          5.1320    1.2030    3.5880 c         1 EOT      0.915600
     24 O5          6.0470    1.3320    4.4300 o         1 EOT     -0.792800
     25 O6          4.9420    0.2550    2.7800 o         1 EOT     -0.792800
     26 N2          2.1390    1.5730    6.8260 n4        1 EOT     -0.643400
     27 C5          2.3540    0.8440    8.1080 c3        1 EOT     -0.048200
     28 C6          1.6010   -0.5390    8.1470 c         1 EOT      0.910100
     29 O3          1.6270   -1.1190    9.2530 o         1 EOT     -0.805550
     30 O4          1.0500   -0.9260    7.0810 o         1 EOT     -0.805550
     31 C3          2.4670    3.0200    6.9230 c3        1 EOT     -0.048200
     32 C4          1.7640    3.8250    5.7940 c         1 EOT      0.910100
     33 O1          2.3740    4.8190    5.3320 o         1 EOT     -0.805550
     34 O2          0.6540    3.3850    5.3740 o         1 EOT     -0.805550
     35 H16         1.9430   -1.1380   -0.7500 ha        1 EOT      0.153500
     36 H17         3.1460   -0.8330    1.4070 ha        1 EOT      0.169000
     37 H13        -0.6260   -0.6580    3.5190 ha        1 EOT      0.169000
     38 H14        -1.8520   -0.9530    1.3960 ha        1 EOT      0.153500
     39 HN3        -1.7100   -1.6350   -0.8400 hn        1 EOT      0.302500
     40 HN4        -2.3820   -1.2990   -2.9840 hn        1 EOT      0.302500
     41 H191       -1.9570    0.4570   -4.8260 h1        1 EOT      0.086200
     42 H192       -0.2610   -0.2260   -4.7370 h1        1 EOT      0.086200
     43 H201       -1.1960   -2.5490   -5.2680 h1        1 EOT      0.058700
     44 H202       -1.6010   -1.3000   -6.5470 h1        1 EOT      0.058700
     45 HO9        -3.6690   -1.2090   -5.5020 ho        1 EOT      0.400000
     46 H111        1.5560   -1.1280    4.6900 hc        1 EOT      0.120200
     47 H112        3.1240   -0.9260    3.7590 hc        1 EOT      0.120200
     48 H1          1.0570    1.2780    4.5280 hx        1 EOT      0.125700
     49 H21         2.9660   -0.1970    6.0170 hx        1 EOT      0.137700
     50 H22         3.9250    1.3050    5.6640 hx        1 EOT      0.137700
     51 H91         0.7200    2.7090    3.2350 hx        1 EOT      0.172200
     52 H92         2.0860    3.8880    3.3900 hx        1 EOT      0.172200
     53 H71         4.0620    2.9710    4.4940 hx        1 EOT      0.093700
     54 H72         4.3390    3.0340    2.6900 hx        1 EOT      0.093700
     55 H51         3.4510    0.6680    8.2560 hx        1 EOT      0.083450
     56 H52         1.9620    1.4760    8.9480 hx        1 EOT      0.083450
     57 H31         3.5780    3.1630    6.8640 hx        1 EOT      0.083450
     58 H32         2.0970    3.4100    7.9090 hx        1 EOT      0.083450
     59 H42         2.6250    2.9490   -0.2810 ho        1 EOT      0.460000
     60 H11         2.8590    1.2020    2.4520 hn        1 EOT      0.473800
     61 H211        1.1240    1.5020    6.6150 hn        1 EOT      0.470800
@<TRIPOS>BOND
     1    1    2 ar  
     2    1    6 ar  
     3    1    7 1   
     4    2    3 ar  
     5    2   35 1   
     6    3    4 ar  
     7    3   36 1   
     8    4    5 ar  
     9    4   14 1   
    10    5    6 ar  
    11    5   37 1   
    12    6   38 1   
    13    7    8 1   
    14    7   39 1   
    15    8    9 2   
    16    8   10 1   
    17   10   11 1   
    18   10   40 1   
    19   11   12 1   
    20   11   41 1   
    21   11   42 1   
    22   12   13 1   
    23   12   43 1   
    24   12   44 1   
    25   13   45 1   
    26   14   15 1   
    27   14   46 1   
    28   14   47 1   
    29   15   16 1   
    30   15   17 1   
    31   15   48 1   
    32   16   26 1   
    33   16   49 1   
    34   16   50 1   
    35   17   18 1   
    36   17   22 1   
    37   17   60 1   
    38   18   19 1   
    39   18   51 1   
    40   18   52 1   
    41   19   20 2   
    42   19   21 1   
    43   21   59 1   
    44   22   23 1   
    45   22   53 1   
    46   22   54 1   
    47   23   24 1   
    48   23   25 1   
    49   26   27 1   
    50   26   31 1   
    51   26   61 1   
    52   27   28 1   
    53   27   55 1   
    54   27   56 1   
    55   28   29 1   
    56   28   30 1   
    57   31   32 1   
    58   31   57 1   
    59   31   58 1   
    60   32   33 1   
    61   32   34 1   
@<TRIPOS>SUBSTRUCTURE
     1 EOT         1 TEMP              0 ****  ****    0 ROOT
