@<TRIPOS>MOLECULE
EOT
   58    58     1     0     0
SMALL
bcc


@<TRIPOS>ATOM
      1 C15         0.5670   -0.3740   -0.0920 ca        1 EOT     -0.071400
      2 C16         1.9620   -0.2020    0.0190 ca        1 EOT     -0.133500
      3 C17         2.5540   -0.1630    1.2760 ca        1 EOT     -0.120500
      4 C12         1.7780   -0.3090    2.4350 ca        1 EOT      0.008700
      5 C13         0.4030   -0.5620    2.3150 ca        1 EOT     -0.120500
      6 C14        -0.2040   -0.6030    1.0640 ca        1 EOT     -0.133500
      7 N3         -0.0760   -0.1080   -1.3390 n         1 EOT     -0.356100
      8 C18        -0.3580   -0.9710   -2.3450 c         1 EOT      0.589400
      9 S1         -0.0530   -2.5820   -2.3560 s         1 EOT     -0.680400
     10 N4         -1.0240   -0.4080   -3.4690 n         1 EOT     -0.558900
     11 C19        -1.0630   -1.1250   -4.7120 c3        1 EOT      0.040000
     12 C20        -2.4710   -1.6010   -5.0980 c3        1 EOT      0.120400
     13 O9         -3.3510   -0.5280   -5.3820 oh        1 EOT     -0.631800
     14 C11         2.3950   -0.1480    3.7800 c3        1 EOT     -0.061100
     15 C1          2.3520    1.3290    4.2240 c3        1 EOT      0.194500
     16 C2          2.6830    1.4060    5.7400 c3        1 EOT      0.145800
     17 N1          3.1880    2.1800    3.3540 n3        1 EOT     -0.701600
     18 C9          2.6130    3.5200    3.2470 c3        1 EOT      0.067300
     19 C10         3.2280    4.5020    2.2210 c         1 EOT      0.913600
     20 O7          2.5910    4.7330    1.1470 o         1 EOT     -0.886050
     21 O8          4.2760    5.1550    2.5170 o         1 EOT     -0.886050
     22 C7          4.6070    2.2230    3.6710 c3        1 EOT      0.067300
     23 C8          5.4840    0.9740    3.4420 c         1 EOT      0.913600
     24 O5          5.4290    0.2850    2.3770 o         1 EOT     -0.886050
     25 O6          6.3700    0.7300    4.3230 o         1 EOT     -0.886050
     26 N2          1.7380    0.7850    6.6780 n3        1 EOT     -0.689600
     27 C5          2.3460    0.8340    8.0080 c3        1 EOT      0.069300
     28 C6          1.5300    0.5210    9.2810 c         1 EOT      0.914100
     29 O3          1.8000   -0.5430    9.9200 o         1 EOT     -0.885550
     30 O4          0.7320    1.3870    9.7540 o         1 EOT     -0.885550
     31 C3          0.3870    1.3170    6.6040 c3        1 EOT      0.069300
     32 C4         -0.6320    0.5920    5.6980 c         1 EOT      0.914100
     33 O1         -0.5080   -0.6130    5.3260 o         1 EOT     -0.885550
     34 O2         -1.6710    1.2650    5.3870 o         1 EOT     -0.885550
     35 H16         2.5810   -0.0480   -0.8760 ha        1 EOT      0.106000
     36 H17         3.6420    0.0510    1.3910 ha        1 EOT      0.225000
     37 H13        -0.2020   -0.6730    3.2450 ha        1 EOT      0.225000
     38 H14        -1.2870   -0.7730    0.9920 ha        1 EOT      0.106000
     39 HN3        -0.3090    0.8620   -1.4310 hn        1 EOT      0.309500
     40 HN4        -1.0140    0.5830   -3.5690 hn        1 EOT      0.277500
     41 H191       -0.6800   -0.4610   -5.5390 h1        1 EOT      0.064200
     42 H192       -0.4050   -2.0480   -4.6400 h1        1 EOT      0.064200
     43 H201       -2.4100   -2.1760   -6.0600 h1        1 EOT      0.044700
     44 H202       -2.9040   -2.2540   -4.2950 h1        1 EOT      0.044700
     45 HO9        -3.4450   -0.0180   -4.5680 ho        1 EOT      0.409000
     46 H111        1.8070   -0.7420    4.5360 hc        1 EOT      0.090700
     47 H112        3.4600   -0.5040    3.7610 hc        1 EOT      0.090700
     48 H1          1.2740    1.6610    4.1040 h1        1 EOT      0.062700
     49 H21         2.8210    2.5030    5.9910 h1        1 EOT      0.020700
     50 H22         3.6790    0.8970    5.8880 h1        1 EOT      0.020700
     51 H91         1.5330    3.3960    2.9500 h1        1 EOT      0.021700
     52 H92         2.6370    4.0540    4.2440 h1        1 EOT      0.021700
     53 H71         5.0640    3.0160    3.0070 h1        1 EOT      0.021700
     54 H72         4.7780    2.5500    4.7390 h1        1 EOT      0.021700
     55 H51         2.8030    1.8520    8.2080 h1        1 EOT      0.017200
     56 H52         3.1910    0.0870    7.9790 h1        1 EOT      0.017200
     57 H31        -0.0790    1.2870    7.6320 h1        1 EOT      0.017200
     58 H32         0.3950    2.3990    6.2770 h1        1 EOT      0.017200
@<TRIPOS>BOND
     1    1    2 ar  
     2    1    6 ar  
     3    1    7 1   
     4    2    3 ar  
     5    2   35 1   
     6    3    4 ar  
     7    3   36 1   
     8    4    5 ar  
     9    4   14 1   
    10    5    6 ar  
    11    5   37 1   
    12    6   38 1   
    13    7    8 1   
    14    7   39 1   
    15    8    9 2   
    16    8   10 1   
    17   10   11 1   
    18   10   40 1   
    19   11   12 1   
    20   11   41 1   
    21   11   42 1   
    22   12   13 1   
    23   12   43 1   
    24   12   44 1   
    25   13   45 1   
    26   14   15 1   
    27   14   46 1   
    28   14   47 1   
    29   15   16 1   
    30   15   17 1   
    31   15   48 1   
    32   16   26 1   
    33   16   49 1   
    34   16   50 1   
    35   17   18 1   
    36   17   22 1   
    37   18   19 1   
    38   18   51 1   
    39   18   52 1   
    40   19   20 1   
    41   19   21 1   
    42   22   23 1   
    43   22   53 1   
    44   22   54 1   
    45   23   24 1   
    46   23   25 1   
    47   26   27 1   
    48   26   31 1   
    49   27   28 1   
    50   27   55 1   
    51   27   56 1   
    52   28   29 1   
    53   28   30 1   
    54   31   32 1   
    55   31   57 1   
    56   31   58 1   
    57   32   33 1   
    58   32   34 1   
@<TRIPOS>SUBSTRUCTURE
     1 EOT         1 TEMP              0 ****  ****    0 ROOT
