@<TRIPOS>MOLECULE
EOT
   58    58     1     0     0
SMALL
bcc


@<TRIPOS>ATOM
      1 C15         0.1200   -0.5040    2.8640 ca        1 EOT     -0.071400
      2 C16        -1.2110   -0.4680    2.4010 ca        1 EOT     -0.133500
      3 C17        -1.4760   -0.6650    1.0500 ca        1 EOT     -0.120500
      4 C12        -0.4320   -0.9140    0.1470 ca        1 EOT      0.008700
      5 C13         0.8810   -1.0300    0.6280 ca        1 EOT     -0.120500
      6 C14         1.1620   -0.8340    1.9760 ca        1 EOT     -0.133500
      7 N3          0.4230   -0.0020    4.1670 n         1 EOT     -0.356100
      8 C18         0.4880   -0.6810    5.3380 c         1 EOT      0.589400
      9 S1          0.2640   -2.2920    5.5400 s         1 EOT     -0.680400
     10 N4          0.8290    0.0960    6.4800 n         1 EOT     -0.558900
     11 C19         0.5930   -0.4240    7.7980 c3        1 EOT      0.040000
     12 C20         1.8820   -0.7180    8.5780 c3        1 EOT      0.120400
     13 O9          2.6150    0.4560    8.8820 oh        1 EOT     -0.631800
     14 C11        -0.7060   -1.0070   -1.3140 c3        1 EOT     -0.061100
     15 C1         -0.6220    0.3870   -1.9710 c3        1 EOT      0.194500
     16 C2         -0.5720    0.2120   -3.5130 c3        1 EOT      0.145800
     17 N1         -1.6850    1.2840   -1.4740 n3        1 EOT     -0.701600
     18 C9         -1.2170    2.6690   -1.4550 c3        1 EOT      0.067300
     19 C10        -2.1110    3.7350   -0.7780 c         1 EOT      0.913600
     20 O7         -1.7690    4.1760    0.3640 o         1 EOT     -0.886050
     21 O8         -3.0820    4.2460   -1.4160 o         1 EOT     -0.886050
     22 C7         -2.9830    1.1590   -2.1190 c3        1 EOT      0.067300
     23 C8         -3.8310   -0.1120   -1.9030 c         1 EOT      0.913600
     24 O5         -4.0080   -0.6290   -0.7570 o         1 EOT     -0.886050
     25 O6         -4.4600   -0.5570   -2.9160 o         1 EOT     -0.886050
     26 N2          0.6020   -0.4590   -4.0870 n3        1 EOT     -0.689600
     27 C5          0.3390   -0.6590   -5.5120 c3        1 EOT      0.069300
     28 C6          1.4570   -1.0860   -6.4870 c         1 EOT      0.914100
     29 O3          1.4020   -2.2520   -6.9900 o         1 EOT     -0.885550
     30 O4          2.3070   -0.2350   -6.8940 o         1 EOT     -0.885550
     31 C3          1.8670    0.1900   -3.7840 c3        1 EOT      0.069300
     32 C4          2.6640   -0.3050   -2.5570 c         1 EOT      0.914100
     33 O1          2.5080   -1.4470   -2.0320 o         1 EOT     -0.885550
     34 O2          3.5610    0.4920   -2.1240 o         1 EOT     -0.885550
     35 H16        -2.0380   -0.2360    3.0860 ha        1 EOT      0.106000
     36 H17        -2.5100   -0.5640    0.6480 ha        1 EOT      0.225000
     37 H13         1.7000   -1.2260   -0.1020 ha        1 EOT      0.225000
     38 H14         2.2000   -0.8990    2.3280 ha        1 EOT      0.106000
     39 HN3         0.5820    0.9860    4.1510 hn        1 EOT      0.309500
     40 HN4         0.7500    1.0870    6.4120 hn        1 EOT      0.277500
     41 H191        0.0150   -1.3990    7.7240 h1        1 EOT      0.064200
     42 H192       -0.0120    0.3210    8.3900 h1        1 EOT      0.064200
     43 H201        2.5290   -1.4430    8.0170 h1        1 EOT      0.044700
     44 H202        1.6120   -1.1470    9.5790 h1        1 EOT      0.044700
     45 HO9         2.8840    0.8460    8.0410 ho        1 EOT      0.409000
     46 H111        0.0770   -1.6530   -1.8020 hc        1 EOT      0.090700
     47 H112       -1.7250   -1.4450   -1.4880 hc        1 EOT      0.090700
     48 H1          0.3760    0.8230   -1.6550 h1        1 EOT      0.062700
     49 H21        -1.4760   -0.3970   -3.8060 h1        1 EOT      0.020700
     50 H22        -0.6950    1.2440   -3.9660 h1        1 EOT      0.020700
     51 H91        -0.2390    2.6810   -0.8950 h1        1 EOT      0.021700
     52 H92        -1.0190    3.0450   -2.5020 h1        1 EOT      0.021700
     53 H71        -3.6250    2.0000   -1.7210 h1        1 EOT      0.021700
     54 H72        -2.9000    1.3090   -3.2360 h1        1 EOT      0.021700
     55 H51        -0.4520   -1.4620   -5.5620 h1        1 EOT      0.017200
     56 H52        -0.1010    0.2770   -5.9790 h1        1 EOT      0.017200
     57 H31         2.5730    0.0490   -4.6540 h1        1 EOT      0.017200
     58 H32         1.7280    1.3040   -3.6500 h1        1 EOT      0.017200
@<TRIPOS>BOND
     1    1    2 ar  
     2    1    6 ar  
     3    1    7 1   
     4    2    3 ar  
     5    2   35 1   
     6    3    4 ar  
     7    3   36 1   
     8    4    5 ar  
     9    4   14 1   
    10    5    6 ar  
    11    5   37 1   
    12    6   38 1   
    13    7    8 1   
    14    7   39 1   
    15    8    9 2   
    16    8   10 1   
    17   10   11 1   
    18   10   40 1   
    19   11   12 1   
    20   11   41 1   
    21   11   42 1   
    22   12   13 1   
    23   12   43 1   
    24   12   44 1   
    25   13   45 1   
    26   14   15 1   
    27   14   46 1   
    28   14   47 1   
    29   15   16 1   
    30   15   17 1   
    31   15   48 1   
    32   16   26 1   
    33   16   49 1   
    34   16   50 1   
    35   17   18 1   
    36   17   22 1   
    37   18   19 1   
    38   18   51 1   
    39   18   52 1   
    40   19   20 1   
    41   19   21 1   
    42   22   23 1   
    43   22   53 1   
    44   22   54 1   
    45   23   24 1   
    46   23   25 1   
    47   26   27 1   
    48   26   31 1   
    49   27   28 1   
    50   27   55 1   
    51   27   56 1   
    52   28   29 1   
    53   28   30 1   
    54   31   32 1   
    55   31   57 1   
    56   31   58 1   
    57   32   33 1   
    58   32   34 1   
@<TRIPOS>SUBSTRUCTURE
     1 EOT         1 TEMP              0 ****  ****    0 ROOT
