@<TRIPOS>MOLECULE
EOX
    9     8     1     0     0
SMALL
bcc


@<TRIPOS>ATOM
      1 O          -0.0000    0.0000    0.0300 oh        1 EOX     -0.602800
      2 C1          1.4190   -0.0010   -0.0040 c3        1 EOX      0.131400
      3 C2          1.9040    0.0000    1.4270 c3        1 EOX     -0.097100
      4 H11         1.7860    0.9120   -0.5480 h1        1 EOX      0.018700
      5 H12         1.7860   -0.9140   -0.5470 h1        1 EOX      0.018700
      6 H21         1.5290   -0.9040    1.9640 hc        1 EOX      0.044367
      7 H22         1.5300    0.9050    1.9630 hc        1 EOX      0.044367
      8 H23         3.0200   -0.0000    1.4430 hc        1 EOX      0.044367
      9 HO1        -0.2980   -0.0000   -0.8860 ho        1 EOX      0.398000
@<TRIPOS>BOND
     1    1    2 1   
     2    1    9 1   
     3    2    3 1   
     4    2    4 1   
     5    2    5 1   
     6    3    6 1   
     7    3    7 1   
     8    3    8 1   
@<TRIPOS>SUBSTRUCTURE
     1 EOX         1 TEMP              0 ****  ****    0 ROOT
