@<TRIPOS>MOLECULE
EOX
    9     8     1     0     0
SMALL
bcc


@<TRIPOS>ATOM
      1 O           1.6710    1.4580   -1.6730 oh        1 EOX     -0.599800
      2 C1          1.9540    0.9330   -0.3890 c3        1 EOX      0.126400
      3 C2          1.0960   -0.2680   -0.0620 c3        1 EOX     -0.136100
      4 H11         3.0430    0.6660   -0.3190 h1        1 EOX      0.043200
      5 H12         1.7400    1.7850    0.3110 h1        1 EOX      0.043200
      6 H21         1.2880   -0.6000    0.9860 hc        1 EOX      0.042367
      7 H22         0.0140   -0.0120   -0.1670 hc        1 EOX      0.042367
      8 H23         1.3240   -1.1150   -0.7530 hc        1 EOX      0.042367
      9 HO1         1.7780    0.7390   -2.3060 ho        1 EOX      0.396000
@<TRIPOS>BOND
     1    1    2 1   
     2    1    9 1   
     3    2    3 1   
     4    2    4 1   
     5    2    5 1   
     6    3    6 1   
     7    3    7 1   
     8    3    8 1   
@<TRIPOS>SUBSTRUCTURE
     1 EOX         1 TEMP              0 ****  ****    0 ROOT
