@<TRIPOS>MOLECULE
EOX
    9     8     1     0     0
SMALL
bcc


@<TRIPOS>ATOM
      1 O          -1.3970   -0.0000   -0.5410 oh        1 EOX     -0.602800
      2 C1          0.0140   -0.0000   -0.5410 c3        1 EOX      0.131400
      3 C2          0.5180   -0.0000    0.8850 c3        1 EOX     -0.097100
      4 H11         0.3390    0.7970   -1.0010 h1        1 EOX      0.018700
      5 H12         0.3390   -0.7970   -1.0010 h1        1 EOX      0.018700
      6 H21         0.1930   -0.7970    1.3460 hc        1 EOX      0.044367
      7 H22         1.4940   -0.0000    0.8850 hc        1 EOX      0.044367
      8 H23         0.1930    0.7970    1.3460 hc        1 EOX      0.044367
      9 HO1        -1.6930   -0.0000   -1.3780 ho        1 EOX      0.398000
@<TRIPOS>BOND
     1    1    2 1   
     2    1    9 1   
     3    2    3 1   
     4    2    4 1   
     5    2    5 1   
     6    3    6 1   
     7    3    7 1   
     8    3    8 1   
@<TRIPOS>SUBSTRUCTURE
     1 EOX         1 TEMP              0 ****  ****    0 ROOT
