@<TRIPOS>MOLECULE
EOZ
   34    32     1     0     0
SMALL
bcc


@<TRIPOS>ATOM
      1 OAD         1.9610    1.7880    2.0260 o         1 EOZ     -1.233333
      2 PAX         3.0180    1.4280    1.0230 p3        1 EOZ      2.556500
      3 OAH         3.9540    2.5470    0.6800 o         1 EOZ     -1.233333
      4 OAG         3.6390    0.0810    1.1960 o         1 EOZ     -1.233333
      5 CAN         1.7680    1.4570   -0.7300 c2        1 EOZ     -0.797500
      6 CAS         1.5490    0.6010   -1.8990 c2        1 EOZ      0.386000
      7 OAB         0.6920   -0.3190   -1.9360 o         1 EOZ     -0.475000
      8 NAP         2.3380    0.8600   -3.0460 ns        1 EOZ     -0.354500
      9 CAU         2.1300    0.5470   -4.3960 ca        1 EOZ      0.124500
     10 CAK         1.0370   -0.2010   -4.8790 ca        1 EOZ     -0.282000
     11 CAL         3.0650    1.0490   -5.3430 ca        1 EOZ     -0.237500
     12 CAW         2.9010    0.8210   -6.7070 ca        1 EOZ     -0.035000
     13 CAR         3.9260    1.3930   -7.6650 c2        1 EOZ      0.365000
     14 OAA         3.8030    2.5910   -8.0750 o         1 EOZ     -0.617500
     15 OAF         4.9170    0.6850   -8.0300 o         1 EOZ     -0.617500
     16 CAM         1.8080    0.0890   -7.1760 ca        1 EOZ     -0.237500
     17 CAV         0.8540   -0.4340   -6.2720 ca        1 EOZ      0.124500
     18 NAQ        -0.2670   -1.1720   -6.6810 ns        1 EOZ     -0.354500
     19 CAT        -0.8810   -1.2520   -7.9610 c2        1 EOZ      0.386000
     20 OAC        -0.2260   -0.9030   -8.9760 o         1 EOZ     -0.475000
     21 CAO        -2.2710   -1.7060   -8.0230 c2        1 EOZ     -0.797500
     22 PAY        -3.2990   -3.4780   -8.7230 p3        1 EOZ      2.556500
     23 OAI        -3.9670   -2.9140   -9.9420 o         1 EOZ     -1.233333
     24 OAE        -2.3270   -4.5850   -8.9670 o         1 EOZ     -1.233333
     25 OAJ        -4.2130   -3.6550   -7.5490 o         1 EOZ     -1.233333
     26 HAN1        2.1300    2.4710   -0.9740 ha        1 EOZ      0.090500
     27 HAN2        0.8640    1.4610   -0.0950 ha        1 EOZ      0.090500
     28 HAP         3.1070    1.4710   -2.8830 hn        1 EOZ      0.206500
     29 HAK         0.3190   -0.6090   -4.1500 ha        1 EOZ      0.147000
     30 HAL         3.9340    1.6320   -5.0070 ha        1 EOZ      0.131000
     31 HAM         1.6880   -0.0770   -8.2570 ha        1 EOZ      0.131000
     32 HAQ        -0.8230   -1.5200   -5.9330 hn        1 EOZ      0.206500
     33 HAO1       -2.8020   -1.7350   -7.0570 ha        1 EOZ      0.090500
     34 HAO2       -2.8090   -1.1310   -8.7990 ha        1 EOZ      0.090500
@<TRIPOS>BOND
     1    1    2 1   
     2    2    3 1   
     3    2    4 1   
     4    5    6 1   
     5    5   26 1   
     6    5   27 1   
     7    6    7 1   
     8    6    8 1   
     9    8    9 1   
    10    8   28 1   
    11    9   10 1   
    12    9   11 1   
    13   10   17 1   
    14   10   29 1   
    15   11   12 1   
    16   11   30 1   
    17   12   13 1   
    18   12   16 1   
    19   13   14 1   
    20   13   15 1   
    21   16   17 1   
    22   16   31 1   
    23   17   18 1   
    24   18   19 1   
    25   18   32 1   
    26   19   20 1   
    27   19   21 1   
    28   21   33 1   
    29   21   34 1   
    30   22   23 1   
    31   22   24 1   
    32   22   25 1   
@<TRIPOS>SUBSTRUCTURE
     1 EOZ         1 TEMP              0 ****  ****    0 ROOT
