@<TRIPOS>MOLECULE
EOZ
   34    32     1     0     0
SMALL
bcc


@<TRIPOS>ATOM
      1 OAD         1.9870    1.8020    2.0190 o         1 EOZ     -1.233333
      2 PAX         3.0410    1.4510    1.0100 p3        1 EOZ      2.556500
      3 OAH         3.9630    2.5790    0.6580 o         1 EOZ     -1.233333
      4 OAG         3.6770    0.1110    1.1800 o         1 EOZ     -1.233333
      5 CAN         1.7780    1.4650   -0.7350 c2        1 EOZ     -0.797500
      6 CAS         1.5620    0.6070   -1.9030 c2        1 EOZ      0.386000
      7 OAB         0.7170   -0.3250   -1.9350 o         1 EOZ     -0.475000
      8 NAP         2.3390    0.8780   -3.0550 n         1 EOZ     -0.354500
      9 CAU         2.1250    0.5640   -4.4040 ca        1 EOZ      0.124500
     10 CAK         1.0400   -0.2000   -4.8800 ca        1 EOZ     -0.282000
     11 CAL         3.0450    1.0810   -5.3580 ca        1 EOZ     -0.237500
     12 CAW         2.8740    0.8530   -6.7200 ca        1 EOZ     -0.035000
     13 CAR         3.8830    1.4420   -7.6860 c2        1 EOZ      0.365000
     14 OAA         3.7390    2.6390   -8.0920 o         1 EOZ     -0.617500
     15 OAF         4.8810    0.7500   -8.0590 o         1 EOZ     -0.617500
     16 CAM         1.7890    0.1050   -7.1820 ca        1 EOZ     -0.237500
     17 CAV         0.8490   -0.4330   -6.2720 ca        1 EOZ      0.124500
     18 NAQ        -0.2630   -1.1880   -6.6730 n         1 EOZ     -0.354500
     19 CAT        -0.8850   -1.2760   -7.9490 c2        1 EOZ      0.386000
     20 OAC        -0.2440   -0.9140   -8.9680 o         1 EOZ     -0.475000
     21 CAO        -2.2690   -1.7500   -8.0010 c2        1 EOZ     -0.797500
     22 PAY        -3.2740   -3.5370   -8.6960 p3        1 EOZ      2.556500
     23 OAI        -3.9600   -2.9820   -9.9090 o         1 EOZ     -1.233333
     24 OAE        -2.2880   -4.6300   -8.9490 o         1 EOZ     -1.233333
     25 OAJ        -4.1770   -3.7290   -7.5160 o         1 EOZ     -1.233333
     26 HAN1        2.1230    2.4840   -0.9800 ha        1 EOZ      0.090500
     27 HAN2        0.8780    1.4550   -0.0930 ha        1 EOZ      0.090500
     28 HAP         3.1000    1.5000   -2.8970 hn        1 EOZ      0.206500
     29 HAK         0.3340   -0.6200   -4.1460 ha        1 EOZ      0.147000
     30 HAL         3.9080    1.6770   -5.0270 ha        1 EOZ      0.131000
     31 HAM         1.6630   -0.0610   -8.2620 ha        1 EOZ      0.131000
     32 HAQ        -0.8080   -1.5450   -5.9210 hn        1 EOZ      0.206500
     33 HAO1       -2.8220   -1.1830   -8.7710 ha        1 EOZ      0.090500
     34 HAO2       -2.7920   -1.7890   -7.0310 ha        1 EOZ      0.090500
@<TRIPOS>BOND
     1    1    2 1   
     2    2    3 1   
     3    2    4 1   
     4    5    6 1   
     5    5   26 1   
     6    5   27 1   
     7    6    7 1   
     8    6    8 1   
     9    8    9 1   
    10    8   28 1   
    11    9   10 1   
    12    9   11 1   
    13   10   17 1   
    14   10   29 1   
    15   11   12 1   
    16   11   30 1   
    17   12   13 1   
    18   12   16 1   
    19   13   14 1   
    20   13   15 1   
    21   16   17 1   
    22   16   31 1   
    23   17   18 1   
    24   18   19 1   
    25   18   32 1   
    26   19   20 1   
    27   19   21 1   
    28   21   33 1   
    29   21   34 1   
    30   22   23 1   
    31   22   24 1   
    32   22   25 1   
@<TRIPOS>SUBSTRUCTURE
     1 EOZ         1 TEMP              0 ****  ****    0 ROOT
