@<TRIPOS>MOLECULE
EOZ
   34    32     1     0     0
SMALL
bcc


@<TRIPOS>ATOM
      1 OAD        -7.1710   -1.5960   -0.7470 o         1 EOZ     -1.233333
      2 PAX        -6.5910   -0.5640    0.1760 p3        1 EOZ      2.556500
      3 OAH        -7.0500    0.8370   -0.0930 o         1 EOZ     -1.233333
      4 OAG        -6.5000   -0.9620    1.6120 o         1 EOZ     -1.233333
      5 CAN        -4.6260   -0.4710   -0.7020 c2        1 EOZ     -0.797500
      6 CAS        -3.2420   -0.4680   -0.2220 c2        1 EOZ      0.386000
      7 OAB        -2.5580   -1.5110   -0.0660 o         1 EOZ     -0.475000
      8 NAP        -2.6560    0.7930    0.0490 n         1 EOZ     -0.354500
      9 CAU        -1.3130    1.1880    0.1140 ca        1 EOZ      0.124500
     10 CAK        -0.2190    0.3100   -0.0260 ca        1 EOZ     -0.282000
     11 CAL        -1.0390    2.5720    0.2980 ca        1 EOZ     -0.237500
     12 CAW         0.2690    3.0490    0.3250 ca        1 EOZ     -0.035000
     13 CAR         0.4930    4.5360    0.5110 c2        1 EOZ      0.365000
     14 OAA         0.4670    5.3070   -0.5000 o         1 EOZ     -0.617500
     15 OAF         0.6770    5.0080    1.6770 o         1 EOZ     -0.617500
     16 CAM         1.3450    2.1730    0.1730 ca        1 EOZ     -0.237500
     17 CAV         1.1230    0.7880   -0.0090 ca        1 EOZ      0.124500
     18 NAQ         2.1610   -0.1410   -0.1720 n         1 EOZ     -0.354500
     19 CAT         3.5180    0.0710   -0.5430 c2        1 EOZ      0.386000
     20 OAC         4.0100    1.2220   -0.4250 o         1 EOZ     -0.475000
     21 CAO         4.2610   -1.0660   -1.0870 c2        1 EOZ     -0.797500
     22 PAY         5.8790   -2.3340   -0.4050 p3        1 EOZ      2.556500
     23 OAI         6.9760   -1.8450   -1.3050 o         1 EOZ     -1.233333
     24 OAE         6.1070   -2.1520    1.0590 o         1 EOZ     -1.233333
     25 OAJ         5.2870   -3.6480   -0.8180 o         1 EOZ     -1.233333
     26 HAN1       -4.9150    0.4390   -1.2560 ha        1 EOZ      0.090500
     27 HAN2       -4.8240   -1.4010   -1.2640 ha        1 EOZ      0.090500
     28 HAP        -3.3050    1.5470    0.0770 hn        1 EOZ      0.206500
     29 HAK        -0.4220   -0.7650   -0.1490 ha        1 EOZ      0.147000
     30 HAL        -1.8640    3.2880    0.4160 ha        1 EOZ      0.131000
     31 HAM         2.3730    2.5660    0.1890 ha        1 EOZ      0.131000
     32 HAQ         1.8580   -1.0870   -0.2370 hn        1 EOZ      0.206500
     33 HAO1        3.6500   -1.9370   -1.3740 ha        1 EOZ      0.090500
     34 HAO2        4.9270   -0.7150   -1.8970 ha        1 EOZ      0.090500
@<TRIPOS>BOND
     1    1    2 1   
     2    2    3 1   
     3    2    4 1   
     4    5    6 1   
     5    5   26 1   
     6    5   27 1   
     7    6    7 1   
     8    6    8 1   
     9    8    9 1   
    10    8   28 1   
    11    9   10 1   
    12    9   11 1   
    13   10   17 1   
    14   10   29 1   
    15   11   12 1   
    16   11   30 1   
    17   12   13 1   
    18   12   16 1   
    19   13   14 1   
    20   13   15 1   
    21   16   17 1   
    22   16   31 1   
    23   17   18 1   
    24   18   19 1   
    25   18   32 1   
    26   19   20 1   
    27   19   21 1   
    28   21   33 1   
    29   21   34 1   
    30   22   23 1   
    31   22   24 1   
    32   22   25 1   
@<TRIPOS>SUBSTRUCTURE
     1 EOZ         1 TEMP              0 ****  ****    0 ROOT
