@<TRIPOS>MOLECULE
EOZ
   34    32     1     0     0
SMALL
bcc


@<TRIPOS>ATOM
      1 OAD         1.9620    1.7770    2.0290 o         1 EOZ     -1.233333
      2 PAX         3.0200    1.4320    1.0220 p3        1 EOZ      2.556500
      3 OAH         3.9420    2.5630    0.6780 o         1 EOZ     -1.233333
      4 OAG         3.6570    0.0920    1.1880 o         1 EOZ     -1.233333
      5 CAN         1.7630    1.4520   -0.7280 c2        1 EOZ     -0.797500
      6 CAS         1.5510    0.5980   -1.8980 c2        1 EOZ      0.386000
      7 OAB         0.7050   -0.3330   -1.9360 o         1 EOZ     -0.475000
      8 NAP         2.3330    0.8710   -3.0470 n         1 EOZ     -0.354500
      9 CAU         2.1240    0.5600   -4.3980 ca        1 EOZ      0.124500
     10 CAK         1.0400   -0.2000   -4.8790 ca        1 EOZ     -0.282000
     11 CAL         3.0500    1.0770   -5.3460 ca        1 EOZ     -0.237500
     12 CAW         2.8830    0.8520   -6.7100 ca        1 EOZ     -0.035000
     13 CAR         3.8980    1.4410   -7.6700 c2        1 EOZ      0.365000
     14 OAA         3.7580    2.6380   -8.0750 o         1 EOZ     -0.617500
     15 OAF         4.8960    0.7470   -8.0410 o         1 EOZ     -0.617500
     16 CAM         1.7990    0.1070   -7.1780 ca        1 EOZ     -0.237500
     17 CAV         0.8540   -0.4300   -6.2730 ca        1 EOZ      0.124500
     18 NAQ        -0.2590   -1.1810   -6.6810 n         1 EOZ     -0.354500
     19 CAT        -0.8760   -1.2640   -7.9590 c2        1 EOZ      0.386000
     20 OAC        -0.2300   -0.9030   -8.9750 o         1 EOZ     -0.475000
     21 CAO        -2.2610   -1.7350   -8.0180 c2        1 EOZ     -0.797500
     22 PAY        -3.2680   -3.5180   -8.7210 p3        1 EOZ      2.556500
     23 OAI        -3.9480   -2.9580   -9.9350 o         1 EOZ     -1.233333
     24 OAE        -2.2830   -4.6120   -8.9730 o         1 EOZ     -1.233333
     25 OAJ        -4.1750   -3.7110   -7.5440 o         1 EOZ     -1.233333
     26 HAN1        2.1120    2.4710   -0.9690 ha        1 EOZ      0.090500
     27 HAN2        0.8610    1.4430   -0.0900 ha        1 EOZ      0.090500
     28 HAP         3.0950    1.4910   -2.8850 hn        1 EOZ      0.206500
     29 HAK         0.3290   -0.6200   -4.1500 ha        1 EOZ      0.147000
     30 HAL         3.9120    1.6700   -5.0110 ha        1 EOZ      0.131000
     31 HAM         1.6770   -0.0560   -8.2590 ha        1 EOZ      0.131000
     32 HAQ        -0.8080   -1.5380   -5.9320 hn        1 EOZ      0.206500
     33 HAO1       -2.7880   -1.7750   -7.0500 ha        1 EOZ      0.090500
     34 HAO2       -2.8090   -1.1650   -8.7900 ha        1 EOZ      0.090500
@<TRIPOS>BOND
     1    1    2 1   
     2    2    3 1   
     3    2    4 1   
     4    5    6 1   
     5    5   26 1   
     6    5   27 1   
     7    6    7 1   
     8    6    8 1   
     9    8    9 1   
    10    8   28 1   
    11    9   10 1   
    12    9   11 1   
    13   10   17 1   
    14   10   29 1   
    15   11   12 1   
    16   11   30 1   
    17   12   13 1   
    18   12   16 1   
    19   13   14 1   
    20   13   15 1   
    21   16   17 1   
    22   16   31 1   
    23   17   18 1   
    24   18   19 1   
    25   18   32 1   
    26   19   20 1   
    27   19   21 1   
    28   21   33 1   
    29   21   34 1   
    30   22   23 1   
    31   22   24 1   
    32   22   25 1   
@<TRIPOS>SUBSTRUCTURE
     1 EOZ         1 TEMP              0 ****  ****    0 ROOT
