@<TRIPOS>MOLECULE
EOZ
   34    32     1     0     0
SMALL
bcc


@<TRIPOS>ATOM
      1 OAD         1.5630   -2.9740    4.6800 o         1 EOZ     -0.914500
      2 PAX         2.8400   -2.1740    4.5750 p5        1 EOZ      1.597500
      3 OAH         3.5490   -2.1790    5.9070 o         1 EOZ     -0.914500
      4 OAG         3.7350   -2.7910    3.5260 o         1 EOZ     -0.914500
      5 CAN         2.4460   -0.4670    4.1060 c3        1 EOZ     -0.796000
      6 CAS         1.7750   -0.4590    2.7540 c2        1 EOZ      0.387000
      7 OAB         0.9520   -1.3080    2.4800 o         1 EOZ     -0.480000
      8 NAP         2.1030    0.5400    1.8080 n         1 EOZ     -0.358000
      9 CAU         1.4710    0.5510    0.5450 c2        1 EOZ      0.128000
     10 CAK         0.1720    0.0870    0.4170 c1        1 EOZ     -0.281000
     11 CAL         2.1490    1.0300   -0.5640 c2        1 EOZ     -0.260000
     12 CAW         1.5270    1.0460   -1.8020 c1        1 EOZ     -0.034000
     13 CAR         2.2680    1.5640   -3.0130 c1        1 EOZ      0.365000
     14 OAA         2.1510    2.7690   -3.3540 o         1 EOZ     -0.617500
     15 OAF         2.9920    0.7860   -3.6870 o         1 EOZ     -0.617500
     16 CAM         0.2280    0.5830   -1.9300 c2        1 EOZ     -0.218000
     17 CAV        -0.4500    0.1030   -0.8200 c1        1 EOZ      0.124000
     18 NAQ        -1.7650   -0.4150   -0.9600 n         1 EOZ     -0.354000
     19 CAT        -2.5520   -0.0560   -2.0830 c2        1 EOZ      0.386000
     20 OAC        -2.1020    0.6950   -2.9250 o         1 EOZ     -0.472000
     21 CAO        -3.9630   -0.5860   -2.2190 c3        1 EOZ     -0.797000
     22 PAY        -5.0540    0.7400   -2.8010 p5        1 EOZ      1.598500
     23 OAI        -6.3800    0.1520   -3.2230 o         1 EOZ     -0.913833
     24 OAE        -5.2770    1.7340   -1.6860 o         1 EOZ     -0.913833
     25 OAJ        -4.4160    1.4380   -3.9770 o         1 EOZ     -0.913833
     26 HAN1        3.2700    0.0580    4.0640 hc        1 EOZ      0.089500
     27 HAN2        1.8440   -0.0770    4.7710 hc        1 EOZ      0.089500
     28 HAP         2.7040    1.1900    2.0220 hn        1 EOZ      0.210000
     29 HAK        -0.3050   -0.2510    1.1980 ha        1 EOZ      0.145000
     30 HAL         3.0850    1.2980   -0.4850 ha        1 EOZ      0.104000
     31 HAM        -0.1900    0.5430   -2.8100 ha        1 EOZ      0.158000
     32 HAQ        -2.1200   -0.9400   -0.3040 hn        1 EOZ      0.206000
     33 HAO1       -3.9740   -1.3220   -2.8610 hc        1 EOZ      0.090500
     34 HAO2       -4.2760   -0.9070   -1.3490 hc        1 EOZ      0.090500
@<TRIPOS>BOND
     1    1    2 1   
     2    2    3 1   
     3    2    4 1   
     4    2    5 1   
     5    5    6 1   
     6    5   26 1   
     7    5   27 1   
     8    6    7 1   
     9    6    8 1   
    10    8    9 1   
    11    8   28 1   
    12    9   10 1   
    13    9   11 1   
    14   10   29 1   
    15   11   12 1   
    16   11   30 1   
    17   12   16 1   
    18   13   14 1   
    19   13   15 1   
    20   16   17 1   
    21   16   31 1   
    22   17   18 1   
    23   18   19 1   
    24   18   32 1   
    25   19   20 1   
    26   19   21 1   
    27   21   22 1   
    28   21   33 1   
    29   21   34 1   
    30   22   23 1   
    31   22   24 1   
    32   22   25 1   
@<TRIPOS>SUBSTRUCTURE
     1 EOZ         1 TEMP              0 ****  ****    0 ROOT
