@<TRIPOS>MOLECULE
EP
   73    75     1     0     0
SMALL
bcc


@<TRIPOS>ATOM
      1 C13         0.0050   -0.0690    0.4870 cc        1 EP      -0.246400
      2 S1          1.6090   -0.3720    0.8240 ss        1 EP      -0.108300
      3 C15         1.2550   -0.5180    2.5100 cc        1 EP       0.403700
      4 C16         2.3310   -0.8060    3.4810 c3        1 EP      -0.132400
      5 N20        -0.0300   -0.3510    2.8160 nd        1 EP      -0.624000
      6 C12        -0.7620   -0.0860    1.6520 cd        1 EP       0.389100
      7 C10        -2.2020    0.0970    1.7100 cf        1 EP      -0.190800
      8 C5         -2.9110    0.9660    0.9700 c2        1 EP      -0.132400
      9 C6         -2.3360    1.9290    0.0030 c3        1 EP      -0.064900
     10 C3         -4.4100    1.0190    1.0720 c3        1 EP       0.192300
     11 C21        -4.9120    1.8250    2.2730 c3        1 EP      -0.071400
     12 C24        -4.2550    1.4670    3.5700 cx        1 EP       0.064100
     13 O26        -4.5210    0.1620    4.1100 os        1 EP      -0.400600
     14 C27        -5.0120    1.2930    4.8480 cx        1 EP       0.068100
     15 C32        -6.4990    1.4540    4.9670 c3        1 EP      -0.072400
     16 C35        -7.2830    0.1950    4.6530 c3        1 EP      -0.075400
     17 C38        -7.0160   -0.9140    5.6510 c3        1 EP      -0.081400
     18 C41        -8.1050   -1.9760    5.6670 c3        1 EP      -0.060700
     19 C43        -7.9930   -2.8240    6.9140 c3        1 EP      -0.089100
     20 C47        -8.1110   -2.8050    4.3760 c3        1 EP       0.161100
     21 O49        -9.3870   -3.4250    4.2980 oh        1 EP      -0.603800
     22 C51        -6.9750   -3.8370    4.2380 c3        1 EP      -0.196700
     23 C53        -7.3390   -5.2050    4.7820 c3        1 EP      -0.085100
     24 C57        -6.6580   -3.9860    2.7580 c         1 EP       0.576100
     25 O58        -7.5820   -4.2170    1.9680 o         1 EP      -0.540100
     26 C59        -5.2160   -3.8570    2.2880 c3        1 EP      -0.131000
     27 C64        -4.4470   -2.8110    3.0810 c3        1 EP      -0.093100
     28 C60        -4.5480   -5.2170    2.4690 c3        1 EP      -0.093100
     29 C68        -5.1430   -3.4550    0.7920 c3        1 EP       0.173100
     30 O70        -5.5040   -4.5960    0.0290 oh        1 EP      -0.584800
     31 C72        -6.0500   -2.2680    0.4460 c3        1 EP      -0.166400
     32 C75        -5.2770   -1.0260    0.1220 c         1 EP       0.632100
     33 O2         -4.9790   -0.2960    1.2380 os        1 EP      -0.431900
     34 O76        -4.9410   -0.6010   -0.9840 o         1 EP      -0.541000
     35 H13        -0.3900    0.1020   -0.5130 h4        1 EP       0.187000
     36 H161        2.4080    0.0170    4.2360 hc        1 EP       0.059367
     37 H162        3.3120   -0.9020    2.9530 hc        1 EP       0.059367
     38 H163        2.1220   -1.7610    4.0260 hc        1 EP       0.059367
     39 H10        -2.7340   -0.5470    2.4410 ha        1 EP       0.164000
     40 H61        -2.8920    2.9000    0.0390 hc        1 EP       0.049033
     41 H62        -1.2580    2.1340    0.2240 hc        1 EP       0.049033
     42 H63        -2.4160    1.5190   -1.0360 hc        1 EP       0.049033
     43 H3         -4.8290    1.4710    0.1250 h1        1 EP       0.075700
     44 H211       -6.0220    1.6710    2.3490 hc        1 EP       0.066200
     45 H212       -4.7150    2.9090    2.0650 hc        1 EP       0.066200
     46 H24        -3.1790    1.7440    3.6170 h1        1 EP       0.097700
     47 H27        -4.4650    1.4580    5.8000 h1        1 EP       0.084700
     48 H321       -6.7350    1.7880    6.0130 hc        1 EP       0.049200
     49 H322       -6.8350    2.2750    4.2770 hc        1 EP       0.049200
     50 H351       -7.0060   -0.1550    3.6220 hc        1 EP       0.048700
     51 H352       -8.3760    0.4490    4.6470 hc        1 EP       0.048700
     52 H381       -6.0200   -1.3800    5.4190 hc        1 EP       0.048700
     53 H382       -6.9430   -0.4740    6.6820 hc        1 EP       0.048700
     54 H41        -9.1080   -1.4560    5.7000 hc        1 EP       0.065700
     55 H431       -6.9920   -3.3160    6.9760 hc        1 EP       0.037700
     56 H432       -8.1280   -2.1890    7.8230 hc        1 EP       0.037700
     57 H433       -8.7870   -3.6110    6.9090 hc        1 EP       0.037700
     58 H47        -8.0180   -2.0780    3.5110 h1        1 EP       0.029700
     59 H49        -9.4030   -3.9090    3.4590 ho        1 EP       0.419000
     60 H51        -6.0860   -3.4480    4.8010 hc        1 EP       0.081700
     61 H531       -6.4540   -5.8840    4.7320 hc        1 EP       0.047033
     62 H532       -7.6750   -5.1240    5.8430 hc        1 EP       0.047033
     63 H533       -8.1700   -5.6550    4.1850 hc        1 EP       0.047033
     64 H641       -4.2500   -3.1600    4.1230 hc        1 EP       0.052533
     65 H642       -3.4550   -2.6220    2.6000 hc        1 EP       0.052533
     66 H643       -5.0080   -1.8420    3.1170 hc        1 EP       0.052533
     67 H601       -3.4940   -5.1660    2.1070 hc        1 EP       0.052533
     68 H602       -4.5480   -5.5040    3.5480 hc        1 EP       0.052533
     69 H603       -5.0910   -5.9960    1.8800 hc        1 EP       0.052533
     70 H68        -4.0710   -3.1920    0.5550 h1        1 EP       0.045700
     71 H70        -5.4630   -4.3380   -0.9010 ho        1 EP       0.405000
     72 H721       -6.6830   -2.5240   -0.4470 hc        1 EP       0.091700
     73 H722       -6.7440   -2.0390    1.2980 hc        1 EP       0.091700
@<TRIPOS>BOND
     1    1    2 1   
     2    1    6 2   
     3    1   35 1   
     4    2    3 1   
     5    3    4 1   
     6    3    5 2   
     7    4   36 1   
     8    4   37 1   
     9    4   38 1   
    10    5    6 1   
    11    6    7 1   
    12    7    8 2   
    13    7   39 1   
    14    8    9 1   
    15    8   10 1   
    16    9   40 1   
    17    9   41 1   
    18    9   42 1   
    19   10   11 1   
    20   10   33 1   
    21   10   43 1   
    22   11   12 1   
    23   11   44 1   
    24   11   45 1   
    25   12   13 1   
    26   12   14 1   
    27   12   46 1   
    28   13   14 1   
    29   14   15 1   
    30   14   47 1   
    31   15   16 1   
    32   15   48 1   
    33   15   49 1   
    34   16   17 1   
    35   16   50 1   
    36   16   51 1   
    37   17   18 1   
    38   17   52 1   
    39   17   53 1   
    40   18   19 1   
    41   18   20 1   
    42   18   54 1   
    43   19   55 1   
    44   19   56 1   
    45   19   57 1   
    46   20   21 1   
    47   20   22 1   
    48   20   58 1   
    49   21   59 1   
    50   22   23 1   
    51   22   24 1   
    52   22   60 1   
    53   23   61 1   
    54   23   62 1   
    55   23   63 1   
    56   24   25 2   
    57   24   26 1   
    58   26   27 1   
    59   26   28 1   
    60   26   29 1   
    61   27   64 1   
    62   27   65 1   
    63   27   66 1   
    64   28   67 1   
    65   28   68 1   
    66   28   69 1   
    67   29   30 1   
    68   29   31 1   
    69   29   70 1   
    70   30   71 1   
    71   31   32 1   
    72   31   72 1   
    73   31   73 1   
    74   32   33 1   
    75   32   34 2   
@<TRIPOS>SUBSTRUCTURE
     1 EP          1 TEMP              0 ****  ****    0 ROOT
