@<TRIPOS>MOLECULE
EP
   73    75     1     0     0
SMALL
bcc


@<TRIPOS>ATOM
      1 C13         0.0910   -0.1260    0.5630 cc        1 EP      -0.245400
      2 S1          1.6850   -0.4110    0.9590 ss        1 EP      -0.110300
      3 C15         1.2830   -0.4810    2.6390 cc        1 EP       0.403700
      4 C16         2.3310   -0.7230    3.6520 c3        1 EP      -0.131400
      5 N20        -0.0110   -0.3020    2.9000 nd        1 EP      -0.624000
      6 C12        -0.7090   -0.0930    1.7050 cd        1 EP       0.389100
      7 C10        -2.1510    0.0890    1.7120 cf        1 EP      -0.189800
      8 C5         -2.8360    0.9330    0.9220 c2        1 EP      -0.132400
      9 C6         -2.2290    1.8640   -0.0560 c3        1 EP      -0.064900
     10 C3         -4.3370    0.9860    0.9700 c3        1 EP       0.193300
     11 C21        -4.8860    1.8120    2.1380 c3        1 EP      -0.071400
     12 C24        -4.2590    1.5010    3.4610 cx        1 EP       0.065100
     13 O26        -4.4870    0.1940    4.0130 os        1 EP      -0.398600
     14 C27        -5.0470    1.3130    4.7190 cx        1 EP       0.067100
     15 C32        -6.5420    1.4060    4.7990 c3        1 EP      -0.070400
     16 C35        -7.2550    0.0900    4.5550 c3        1 EP      -0.073400
     17 C38        -6.8880   -0.9680    5.5770 c3        1 EP      -0.081400
     18 C41        -7.9750   -2.0110    5.7740 c3        1 EP      -0.093700
     19 C43        -7.6830   -2.8590    6.9930 c3        1 EP      -0.090100
     20 C47        -8.2150   -2.8700    4.5210 c3        1 EP       0.157100
     21 O49        -9.4300   -3.5960    4.6800 oh        1 EP      -0.590800
     22 C51        -7.1010   -3.8880    4.2160 c3        1 EP      -0.150700
     23 C53        -7.4790   -5.3000    4.6230 c3        1 EP      -0.078100
     24 C57        -6.7890   -3.8730    2.7280 c         1 EP       0.576100
     25 O58        -7.7020   -3.9320    1.8980 o         1 EP      -0.522100
     26 C59        -5.3270   -3.7940    2.3060 c3        1 EP      -0.136000
     27 C64        -4.5900   -2.7000    3.0650 c3        1 EP      -0.092100
     28 C60        -4.6720   -5.1400    2.5960 c3        1 EP      -0.092100
     29 C68        -5.1790   -3.4900    0.7920 c3        1 EP       0.174100
     30 O70        -5.5740   -4.6620    0.0920 oh        1 EP      -0.586800
     31 C72        -6.0000   -2.2830    0.3270 c3        1 EP      -0.165400
     32 C75        -5.1620   -1.0790    0.0250 c         1 EP       0.633100
     33 O2         -4.9170   -0.3240    1.1380 os        1 EP      -0.433900
     34 O76        -4.7380   -0.6960   -1.0670 o         1 EP      -0.542000
     35 H13        -0.2760   -0.0010   -0.4550 h4        1 EP       0.187000
     36 H161        2.3850    0.1330    4.3720 hc        1 EP       0.059367
     37 H162        3.3260   -0.8400    3.1580 hc        1 EP       0.059367
     38 H163        2.1070   -1.6540    4.2330 hc        1 EP       0.059367
     39 H10        -2.7040   -0.5330    2.4460 ha        1 EP       0.165000
     40 H61        -1.1560    2.0670    0.1850 hc        1 EP       0.048367
     41 H62        -2.2870    1.4250   -1.0850 hc        1 EP       0.048367
     42 H63        -2.7780    2.8390   -0.0620 hc        1 EP       0.048367
     43 H3         -4.7210    1.4210    0.0010 h1        1 EP       0.073700
     44 H211       -5.9950    1.6390    2.1860 hc        1 EP       0.064700
     45 H212       -4.7030    2.8950    1.9070 hc        1 EP       0.064700
     46 H24        -3.1980    1.8250    3.5380 h1        1 EP       0.097700
     47 H27        -4.5340    1.5160    5.6840 h1        1 EP       0.084700
     48 H321       -6.9070    2.1620    4.0530 hc        1 EP       0.048700
     49 H322       -6.8160    1.7930    5.8180 hc        1 EP       0.048700
     50 H351       -8.3610    0.2800    4.5770 hc        1 EP       0.045700
     51 H352       -6.9930   -0.2790    3.5270 hc        1 EP       0.045700
     52 H381       -6.6950   -0.4760    6.5690 hc        1 EP       0.051200
     53 H382       -5.9280   -1.4600    5.2630 hc        1 EP       0.051200
     54 H41        -8.9450   -1.4650    5.9680 hc        1 EP       0.042700
     55 H431       -8.4570   -3.6600    7.0890 hc        1 EP       0.039033
     56 H432       -6.6790   -3.3420    6.9150 hc        1 EP       0.039033
     57 H433       -7.6990   -2.2300    7.9150 hc        1 EP       0.039033
     58 H47        -8.3170   -2.1700    3.6400 h1        1 EP       0.037700
     59 H49       -10.1450   -2.9510    4.6270 ho        1 EP       0.398000
     60 H51        -6.1880   -3.5820    4.7950 hc        1 EP       0.071700
     61 H531       -7.7450   -5.3180    5.7070 hc        1 EP       0.048367
     62 H532       -6.6270   -5.9970    4.4410 hc        1 EP       0.048367
     63 H533       -8.3660   -5.6460    4.0370 hc        1 EP       0.048367
     64 H641       -5.1580   -1.7360    3.0270 hc        1 EP       0.051200
     65 H642       -4.4270   -2.9850    4.1320 hc        1 EP       0.051200
     66 H643       -3.5850   -2.5270    2.6080 hc        1 EP       0.051200
     67 H601       -5.2200   -5.9580    2.0680 hc        1 EP       0.051200
     68 H602       -3.6160   -5.1280    2.2350 hc        1 EP       0.051200
     69 H603       -4.6750   -5.3410    3.6940 hc        1 EP       0.051200
     70 H68        -4.0850   -3.3010    0.5820 h1        1 EP       0.042700
     71 H70        -5.4990   -4.4670   -0.8500 ho        1 EP       0.404000
     72 H721       -6.7550   -1.9960    1.1070 hc        1 EP       0.093200
     73 H722       -6.5660   -2.5500   -0.6070 hc        1 EP       0.093200
@<TRIPOS>BOND
     1    1    2 1   
     2    1    6 2   
     3    1   35 1   
     4    2    3 1   
     5    3    4 1   
     6    3    5 2   
     7    4   36 1   
     8    4   37 1   
     9    4   38 1   
    10    5    6 1   
    11    6    7 1   
    12    7    8 2   
    13    7   39 1   
    14    8    9 1   
    15    8   10 1   
    16    9   40 1   
    17    9   41 1   
    18    9   42 1   
    19   10   11 1   
    20   10   33 1   
    21   10   43 1   
    22   11   12 1   
    23   11   44 1   
    24   11   45 1   
    25   12   13 1   
    26   12   14 1   
    27   12   46 1   
    28   13   14 1   
    29   14   15 1   
    30   14   47 1   
    31   15   16 1   
    32   15   48 1   
    33   15   49 1   
    34   16   17 1   
    35   16   50 1   
    36   16   51 1   
    37   17   18 1   
    38   17   52 1   
    39   17   53 1   
    40   18   19 1   
    41   18   20 1   
    42   18   54 1   
    43   19   55 1   
    44   19   56 1   
    45   19   57 1   
    46   20   21 1   
    47   20   22 1   
    48   20   58 1   
    49   21   59 1   
    50   22   23 1   
    51   22   24 1   
    52   22   60 1   
    53   23   61 1   
    54   23   62 1   
    55   23   63 1   
    56   24   25 2   
    57   24   26 1   
    58   26   27 1   
    59   26   28 1   
    60   26   29 1   
    61   27   64 1   
    62   27   65 1   
    63   27   66 1   
    64   28   67 1   
    65   28   68 1   
    66   28   69 1   
    67   29   30 1   
    68   29   31 1   
    69   29   70 1   
    70   30   71 1   
    71   31   32 1   
    72   31   72 1   
    73   31   73 1   
    74   32   33 1   
    75   32   34 2   
@<TRIPOS>SUBSTRUCTURE
     1 EP          1 TEMP              0 ****  ****    0 ROOT
