@<TRIPOS>MOLECULE
EP
   73    75     1     0     0
SMALL
bcc


@<TRIPOS>ATOM
      1 C13        -6.5010  -16.4290   15.2640 cc        1 EP      -0.246400
      2 S1         -7.2860  -15.0070   14.8910 ss        1 EP      -0.108300
      3 C15        -5.8010  -14.1300   14.9900 cc        1 EP       0.403700
      4 C16        -5.7730  -12.6710   14.7520 c3        1 EP      -0.132400
      5 N20        -4.7410  -14.8790   15.2890 nd        1 EP      -0.624000
      6 C12        -5.1370  -16.2110   15.4540 cd        1 EP       0.389100
      7 C10        -4.1560  -17.2420   15.7480 cf        1 EP      -0.190800
      8 C5         -4.3460  -18.2940   16.5640 c2        1 EP      -0.132400
      9 C6         -5.5750  -18.5510   17.3490 c3        1 EP      -0.064900
     10 C3         -3.2750  -19.3340   16.7390 c3        1 EP       0.192300
     11 C21        -2.1810  -18.9240   17.7280 c3        1 EP      -0.071400
     12 C24        -1.6260  -17.5530   17.4940 cx        1 EP       0.064100
     13 O26        -0.8640  -17.3430   16.2930 os        1 EP      -0.400600
     14 C27        -0.1620  -17.2470   17.5430 cx        1 EP       0.068100
     15 C32         0.8980  -18.2700   17.8270 c3        1 EP      -0.072400
     16 C35         1.3760  -19.0180   16.5990 c3        1 EP      -0.075400
     17 C38         2.0850  -18.1120   15.6120 c3        1 EP      -0.081400
     18 C41         2.9810  -18.8700   14.6430 c3        1 EP      -0.060700
     19 C43         3.9370  -17.9200   13.9580 c3        1 EP      -0.089100
     20 C47         2.1650  -19.7160   13.6570 c3        1 EP       0.161100
     21 O49         3.0520  -20.6900   13.1270 oh        1 EP      -0.603800
     22 C51         1.4530  -18.9350   12.5350 c3        1 EP      -0.196700
     23 C53         2.2920  -18.7910   11.2800 c3        1 EP      -0.085100
     24 C57         0.1840  -19.6920   12.1730 c         1 EP       0.576100
     25 O58         0.2630  -20.8980   11.9090 o         1 EP      -0.540100
     26 C59        -1.1420  -18.9470   12.1330 c3        1 EP      -0.131000
     27 C64        -1.2320  -17.8800   13.2150 c3        1 EP      -0.093100
     28 C60        -1.2610  -18.2860   10.7630 c3        1 EP      -0.093100
     29 C68        -2.3380  -19.9140   12.3320 c3        1 EP       0.173100
     30 O70        -2.4870  -20.6560   11.1310 oh        1 EP      -0.584800
     31 C72        -2.1550  -20.8560   13.5270 c3        1 EP      -0.166400
     32 C75        -3.0890  -20.5460   14.6570 c         1 EP       0.632100
     33 O2         -2.5820  -19.5980   15.5020 os        1 EP      -0.431900
     34 O76        -4.1810  -21.0560   14.9100 o         1 EP      -0.541000
     35 H13        -6.9890  -17.4000   15.3330 h4        1 EP       0.187000
     36 H161       -5.0980  -12.4280   13.8930 hc        1 EP       0.059367
     37 H162       -6.8000  -12.2990   14.5180 hc        1 EP       0.059367
     38 H163       -5.3940  -12.1340   15.6580 hc        1 EP       0.059367
     39 H10        -3.1740  -17.1220   15.2450 ha        1 EP       0.164000
     40 H61        -5.3170  -18.9710   18.3540 hc        1 EP       0.049033
     41 H62        -6.1650  -17.6140   17.5010 hc        1 EP       0.049033
     42 H63        -6.2180  -19.2960   16.8140 hc        1 EP       0.049033
     43 H3         -3.7490  -20.2960   17.0930 h1        1 EP       0.075700
     44 H211       -2.6220  -18.9540   18.7590 hc        1 EP       0.066200
     45 H212       -1.3590  -19.6870   17.6670 hc        1 EP       0.066200
     46 H24        -2.3520  -16.7360   17.6960 h1        1 EP       0.097700
     47 H27         0.1410  -16.2060   17.7900 h1        1 EP       0.084700
     48 H321        1.7690  -17.7520   18.3110 hc        1 EP       0.049200
     49 H322        0.5020  -19.0100   18.5730 hc        1 EP       0.049200
     50 H351        2.0680  -19.8380   16.9280 hc        1 EP       0.048700
     51 H352        0.4910  -19.4960   16.0980 hc        1 EP       0.048700
     52 H381        1.3170  -17.5170   15.0480 hc        1 EP       0.048700
     53 H382        2.7230  -17.3790   16.1750 hc        1 EP       0.048700
     54 H41         3.6010  -19.6070   15.2350 hc        1 EP       0.065700
     55 H431        4.5780  -18.4830   13.2380 hc        1 EP       0.037700
     56 H432        3.3820  -17.1220   13.4070 hc        1 EP       0.037700
     57 H433        4.5970  -17.4290   14.7140 hc        1 EP       0.037700
     58 H47         1.3670  -20.2540   14.2570 h1        1 EP       0.029700
     59 H49         2.5230  -21.2500   12.5410 ho        1 EP       0.419000
     60 H51         1.2100  -17.9120   12.9270 hc        1 EP       0.081700
     61 H531        1.7610  -18.1480   10.5370 hc        1 EP       0.047033
     62 H532        3.2770  -18.3280   11.5220 hc        1 EP       0.047033
     63 H533        2.4780  -19.7920   10.8180 hc        1 EP       0.047033
     64 H641       -2.2740  -17.4770   13.2670 hc        1 EP       0.052533
     65 H642       -0.9710  -18.3020   14.2180 hc        1 EP       0.052533
     66 H643       -0.5550  -17.0220   12.9900 hc        1 EP       0.052533
     67 H601       -2.2380  -17.7520   10.6900 hc        1 EP       0.052533
     68 H602       -0.4340  -17.5500   10.6200 hc        1 EP       0.052533
     69 H603       -1.2130  -19.0570    9.9570 hc        1 EP       0.052533
     70 H68        -3.2680  -19.2900   12.4830 h1        1 EP       0.045700
     71 H70        -3.2290  -21.2600   11.2630 ho        1 EP       0.405000
     72 H721       -2.3440  -21.9160   13.2050 hc        1 EP       0.091700
     73 H722       -1.1030  -20.8030   13.9150 hc        1 EP       0.091700
@<TRIPOS>BOND
     1    1    2 1   
     2    1    6 2   
     3    1   35 1   
     4    2    3 1   
     5    3    4 1   
     6    3    5 2   
     7    4   36 1   
     8    4   37 1   
     9    4   38 1   
    10    5    6 1   
    11    6    7 1   
    12    7    8 2   
    13    7   39 1   
    14    8    9 1   
    15    8   10 1   
    16    9   40 1   
    17    9   41 1   
    18    9   42 1   
    19   10   11 1   
    20   10   33 1   
    21   10   43 1   
    22   11   12 1   
    23   11   44 1   
    24   11   45 1   
    25   12   13 1   
    26   12   14 1   
    27   12   46 1   
    28   13   14 1   
    29   14   15 1   
    30   14   47 1   
    31   15   16 1   
    32   15   48 1   
    33   15   49 1   
    34   16   17 1   
    35   16   50 1   
    36   16   51 1   
    37   17   18 1   
    38   17   52 1   
    39   17   53 1   
    40   18   19 1   
    41   18   20 1   
    42   18   54 1   
    43   19   55 1   
    44   19   56 1   
    45   19   57 1   
    46   20   21 1   
    47   20   22 1   
    48   20   58 1   
    49   21   59 1   
    50   22   23 1   
    51   22   24 1   
    52   22   60 1   
    53   23   61 1   
    54   23   62 1   
    55   23   63 1   
    56   24   25 2   
    57   24   26 1   
    58   26   27 1   
    59   26   28 1   
    60   26   29 1   
    61   27   64 1   
    62   27   65 1   
    63   27   66 1   
    64   28   67 1   
    65   28   68 1   
    66   28   69 1   
    67   29   30 1   
    68   29   31 1   
    69   29   70 1   
    70   30   71 1   
    71   31   32 1   
    72   31   72 1   
    73   31   73 1   
    74   32   33 1   
    75   32   34 2   
@<TRIPOS>SUBSTRUCTURE
     1 EP          1 TEMP              0 ****  ****    0 ROOT
