@<TRIPOS>MOLECULE
EP0
   53    51     1     0     0
SMALL
bcc


@<TRIPOS>ATOM
      1 O1         -2.3120    1.1210   -4.4490 o         1 EP0     -0.346000
      2 C1         -1.3030    1.7940   -4.3490 c1        1 EP0      0.310000
      3 C2         -0.4040    1.6380   -3.1350 c2        1 EP0      0.068000
      4 O2          0.8960    1.3780   -3.5520 oh        1 EP0     -0.329000
      5 C3         -0.9020    0.4810   -2.2740 c3        1 EP0     -0.224000
      6 C4         -0.1420    0.4810   -0.9200 c1        1 EP0      0.302000
      7 O4          0.9410    1.0170   -0.8330 o         1 EP0     -0.421000
      8 C5         -2.0560    3.0160   -6.2510 c3        1 EP0     -0.013000
      9 C6         -1.5600    3.9250   -7.3780 c3        1 EP0     -0.217000
     10 O5         -1.0010    2.7770   -5.3360 os        1 EP0     -0.275000
     11 N          -0.6910   -0.2340    0.2200 n2        1 EP0     -0.330000
     12 CA          0.0740   -0.3460    1.4350 c3        1 EP0     -0.011000
     13 C           0.3200   -1.8080    1.7440 c2        1 EP0      0.308000
     14 O          -0.5850   -2.6140    1.6290 o         1 EP0     -0.390000
     15 CB         -0.6880    0.2880    2.5700 c3        1 EP0     -0.129000
     16 CG1        -2.1740    0.1280    2.3320 c3        1 EP0     -0.147000
     17 CG2        -0.3410    1.7750    2.6500 c3        1 EP0     -0.200000
     18 CD1        -2.9360    0.3310    3.6660 c3        1 EP0     -0.221000
     19 N2          1.6670   -2.2660    2.0810 n         1 EP0     -0.279000
     20 CA1         2.1250   -3.7620    2.3290 c3        1 EP0     -0.065000
     21 C7          1.5540   -4.2570    3.6280 c2        1 EP0      0.332000
     22 O3          1.0020   -5.3830    3.6810 o         1 EP0     -0.569000
     23 CB1         3.4580   -3.6400    2.3220 c3        1 EP0     -0.150000
     24 CG3         3.7920   -2.1540    2.7900 c3        1 EP0     -0.159000
     25 CD3         2.9100   -1.3940    2.2630 c3        1 EP0     -0.035000
     26 OXT         1.6750   -3.5640    4.6750 o         1 EP0     -0.569000
     27 H2         -0.4190    2.4640   -2.6110 h4        1 EP0      0.115000
     28 HO2         1.2990    2.1450   -3.7690 ho        1 EP0      0.249000
     29 H3         -1.8600    0.5860   -2.1100 hc        1 EP0      0.127500
     30 H3A        -0.7400   -0.3650   -2.7390 hc        1 EP0      0.127500
     31 H5         -2.8010    3.4510   -5.7840 h1        1 EP0      0.089000
     32 H5A        -2.3590    2.1640   -6.6280 h1        1 EP0      0.089000
     33 H6         -2.2780    4.0500   -8.0370 hc        1 EP0      0.085333
     34 H6A        -0.7820    3.5100   -7.8150 hc        1 EP0      0.085333
     35 H6B        -1.3010    4.7970   -7.0060 hc        1 EP0      0.085333
     36 HN         -1.4830   -0.6880    0.1350 hn        1 EP0      0.241000
     37 HA          0.9300    0.1090    1.3230 h1        1 EP0      0.129000
     38 HB         -0.4450   -0.1470    3.4080 hc        1 EP0      0.173000
     39 HG1        -2.4740    0.7940    1.6800 hc        1 EP0      0.074500
     40 HG1A       -2.3550   -0.7730    1.9860 hc        1 EP0      0.074500
     41 HG2        -0.6130    2.1290    3.5310 hc        1 EP0      0.065667
     42 HG2A       -0.8170    2.2610    1.9410 hc        1 EP0      0.065667
     43 HG2B        0.6310    1.8920    2.5340 hc        1 EP0      0.065667
     44 HD1        -3.0370    1.2930    3.8430 hc        1 EP0      0.081000
     45 HD1A       -3.8280   -0.0880    3.6020 hc        1 EP0      0.081000
     46 HD1B       -2.4310   -0.0850    4.3980 hc        1 EP0      0.081000
     47 HA1         1.8210   -4.4530    1.7050 h1        1 EP0      0.112000
     48 HB1         3.8020   -3.7900    1.4180 hc        1 EP0      0.086000
     49 HB1A        3.8590   -4.2880    2.9480 hc        1 EP0      0.086000
     50 HG3         4.6850   -1.8980    2.4790 hc        1 EP0      0.072500
     51 HG3A        3.7460   -2.0930    3.7720 hc        1 EP0      0.072500
     52 HD3         3.2210   -1.0670    1.3980 h1        1 EP0      0.073500
     53 HD3A        2.7120   -0.6420    2.8590 h1        1 EP0      0.073500
@<TRIPOS>BOND
     1    1    2 1   
     2    2   10 1   
     3    3    4 1   
     4    3    5 1   
     5    3   27 1   
     6    4   28 1   
     7    5    6 1   
     8    5   29 1   
     9    5   30 1   
    10    6    7 1   
    11    8    9 1   
    12    8   10 1   
    13    8   31 1   
    14    8   32 1   
    15    9   33 1   
    16    9   34 1   
    17    9   35 1   
    18   11   12 1   
    19   11   36 1   
    20   12   13 1   
    21   12   15 1   
    22   12   37 1   
    23   13   14 1   
    24   13   19 1   
    25   15   16 1   
    26   15   17 1   
    27   15   38 1   
    28   16   18 1   
    29   16   39 1   
    30   16   40 1   
    31   17   41 1   
    32   17   42 1   
    33   17   43 1   
    34   18   44 1   
    35   18   45 1   
    36   18   46 1   
    37   19   20 1   
    38   19   25 1   
    39   20   21 1   
    40   20   23 1   
    41   20   47 1   
    42   21   22 1   
    43   21   26 1   
    44   23   24 1   
    45   23   48 1   
    46   23   49 1   
    47   24   25 1   
    48   24   50 1   
    49   24   51 1   
    50   25   52 1   
    51   25   53 1   
@<TRIPOS>SUBSTRUCTURE
     1 EP0         1 TEMP              0 ****  ****    0 ROOT
