@<TRIPOS>MOLECULE
EP0
   54    54     1     0     0
SMALL
bcc


@<TRIPOS>ATOM
      1 O1          2.7780    1.9610   -1.5670 o         1 EP0     -0.513000
      2 C1          2.4870    1.1310   -0.7060 c         1 EP0      0.601100
      3 C2          2.4540    1.3890    0.7870 c3        1 EP0      0.097100
      4 O2          2.5230    2.7700    1.0710 oh        1 EP0     -0.610800
      5 C3          3.6160    0.6470    1.4520 c3        1 EP0     -0.193400
      6 C4          3.5370    0.7070    2.9510 c         1 EP0      0.557100
      7 O4          3.3660   -0.2550    3.6920 o         1 EP0     -0.435100
      8 C5          2.1210   -0.4370   -2.4610 c3        1 EP0      0.139400
      9 C6          1.7000   -1.8810   -2.5680 c3        1 EP0     -0.105100
     10 O5          2.1530   -0.1370   -1.0450 os        1 EP0     -0.428900
     11 N           3.6820    2.0460    3.5880 n4        1 EP0     -0.665800
     12 CA          4.9870    2.2110    4.3320 c3        1 EP0      0.042500
     13 C           4.7450    3.1640    5.5540 c         1 EP0      0.679100
     14 O           3.7480    3.9130    5.4970 o         1 EP0     -0.615100
     15 CB          6.1420    2.7500    3.4700 c3        1 EP0     -0.120700
     16 CG1         5.7680    3.6680    2.3150 c3        1 EP0     -0.066400
     17 CG2         6.9770    1.5930    2.9620 c3        1 EP0     -0.100100
     18 CD1         5.1110    4.9520    2.7480 c3        1 EP0     -0.133100
     19 N2          5.5230    3.0050    6.6710 n         1 EP0     -0.382800
     20 CA1         5.9240    4.2010    7.4380 c3        1 EP0     -0.056300
     21 C7          6.6120    5.3130    6.5670 c         1 EP0      0.919600
     22 O3          6.9250    6.3680    7.1630 o         1 EP0     -0.817300
     23 CB1         6.9200    3.6980    8.4970 c3        1 EP0     -0.073400
     24 CG3         7.4260    2.3470    7.9980 c3        1 EP0     -0.079400
     25 CD3         6.5590    1.9860    6.7780 c3        1 EP0      0.065000
     26 OXT         6.8140    5.0700    5.3400 o         1 EP0     -0.817300
     27 H2          1.4650    1.0380    1.2040 h1        1 EP0      0.117700
     28 HO2         2.9610    3.2310    0.3350 ho        1 EP0      0.458000
     29 H3          4.5970    1.0790    1.1100 hc        1 EP0      0.123200
     30 H3A         3.5770   -0.4360    1.1460 hc        1 EP0      0.123200
     31 H5          1.3910    0.2570   -2.9520 h1        1 EP0      0.062700
     32 H5A         3.1450   -0.2590   -2.8810 h1        1 EP0      0.062700
     33 H6          0.6950   -2.0340   -2.1070 hc        1 EP0      0.056367
     34 H6A         1.6530   -2.1620   -3.6480 hc        1 EP0      0.056367
     35 H6B         2.4310   -2.5460   -2.0490 hc        1 EP0      0.056367
     36 HN          2.9230    2.1940    4.2770 hn        1 EP0      0.484300
     37 HA          5.2540    1.1800    4.7180 hx        1 EP0      0.098700
     38 HB          6.7820    3.3890    4.1750 hc        1 EP0      0.189700
     39 HG1         6.7260    3.9280    1.7840 hc        1 EP0      0.024700
     40 HG1A        5.1330    3.1280    1.5590 hc        1 EP0      0.024700
     41 HG2         6.3830    0.9270    2.2890 hc        1 EP0      0.037033
     42 HG2A        7.3670    0.9800    3.8110 hc        1 EP0      0.037033
     43 HG2B        7.8530    1.9830    2.3880 hc        1 EP0      0.037033
     44 HD1         4.1180    4.7800    3.2290 hc        1 EP0      0.065700
     45 HD1A        4.9670    5.6210    1.8660 hc        1 EP0      0.065700
     46 HD1B        5.7560    5.4810    3.5040 hc        1 EP0      0.065700
     47 HA1         5.0020    4.6420    7.9020 h1        1 EP0      0.086700
     48 HB1         7.7490    4.4400    8.6100 hc        1 EP0      0.065200
     49 HB1A        6.4140    3.5870    9.4880 hc        1 EP0      0.065200
     50 HG3         8.4990    2.4100    7.6950 hc        1 EP0      0.049200
     51 HG3A        7.3310    1.5630    8.7870 hc        1 EP0      0.049200
     52 HD3         7.1990    1.9400    5.8530 h1        1 EP0      0.033700
     53 HD3A        6.0640    0.9860    6.9190 h1        1 EP0      0.033700
     54 H21         3.5970    2.7990    2.8820 hn        1 EP0      0.484300
@<TRIPOS>BOND
     1    1    2 2   
     2    2    3 1   
     3    2   10 1   
     4    3    4 1   
     5    3    5 1   
     6    3   27 1   
     7    4   28 1   
     8    5    6 1   
     9    5   29 1   
    10    5   30 1   
    11    6    7 2   
    12    6   11 1   
    13    8    9 1   
    14    8   10 1   
    15    8   31 1   
    16    8   32 1   
    17    9   33 1   
    18    9   34 1   
    19    9   35 1   
    20   11   12 1   
    21   11   36 1   
    22   11   54 1   
    23   12   13 1   
    24   12   15 1   
    25   12   37 1   
    26   13   14 2   
    27   13   19 1   
    28   15   16 1   
    29   15   17 1   
    30   15   38 1   
    31   16   18 1   
    32   16   39 1   
    33   16   40 1   
    34   17   41 1   
    35   17   42 1   
    36   17   43 1   
    37   18   44 1   
    38   18   45 1   
    39   18   46 1   
    40   19   20 1   
    41   19   25 1   
    42   20   21 1   
    43   20   23 1   
    44   20   47 1   
    45   21   22 1   
    46   21   26 1   
    47   23   24 1   
    48   23   48 1   
    49   23   49 1   
    50   24   25 1   
    51   24   50 1   
    52   24   51 1   
    53   25   52 1   
    54   25   53 1   
@<TRIPOS>SUBSTRUCTURE
     1 EP0         1 TEMP              0 ****  ****    0 ROOT
