@<TRIPOS>MOLECULE
EP0
   54    54     1     0     0
SMALL
bcc


@<TRIPOS>ATOM
      1 O1          2.7760    1.9390   -1.5670 o         1 EP0     -0.513000
      2 C1          2.5170    1.0890   -0.7150 c         1 EP0      0.601100
      3 C2          2.4760    1.3300    0.7820 c3        1 EP0      0.097100
      4 O2          2.4960    2.7100    1.0790 oh        1 EP0     -0.610800
      5 C3          3.6630    0.6230    1.4380 c3        1 EP0     -0.193400
      6 C4          3.5830    0.6650    2.9380 c         1 EP0      0.557100
      7 O4          3.4440   -0.3090    3.6690 o         1 EP0     -0.435100
      8 C5          2.2110   -0.4740   -2.4860 c3        1 EP0      0.139400
      9 C6          1.8510   -1.9330   -2.6070 c3        1 EP0     -0.105100
     10 O5          2.2320   -0.1880   -1.0660 os        1 EP0     -0.428900
     11 N           3.6820    2.0030    3.5880 n4        1 EP0     -0.665800
     12 CA          4.9830    2.2040    4.3320 c3        1 EP0      0.042500
     13 C           4.7100    3.1350    5.5650 c         1 EP0      0.679100
     14 O           3.6870    3.8510    5.5170 o         1 EP0     -0.615100
     15 CB          6.1170    2.7910    3.4750 c3        1 EP0     -0.120700
     16 CG1         5.7100    3.7070    2.3300 c3        1 EP0     -0.066400
     17 CG2         6.9910    1.6690    2.9540 c3        1 EP0     -0.100100
     18 CD1         5.0100    4.9640    2.7760 c3        1 EP0     -0.133100
     19 N2          5.4940    2.9920    6.6790 n         1 EP0     -0.382800
     20 CA1         5.8550    4.1930    7.4580 c3        1 EP0     -0.056300
     21 C7          6.5030    5.3370    6.5980 c         1 EP0      0.919600
     22 O3          6.7800    6.3960    7.2040 o         1 EP0     -0.817300
     23 CB1         6.8690    3.7130    8.5110 c3        1 EP0     -0.073400
     24 CG3         7.4200    2.3860    7.9970 c3        1 EP0     -0.079400
     25 CD3         6.5640    2.0070    6.7740 c3        1 EP0      0.065000
     26 OXT         6.7110    5.1140    5.3680 o         1 EP0     -0.817300
     27 H2          1.5000    0.9400    1.1940 h1        1 EP0      0.117700
     28 HO2         2.9150    3.1940    0.3480 ho        1 EP0      0.458000
     29 H3          4.6280    1.0920    1.1010 hc        1 EP0      0.123200
     30 H3A         3.6620   -0.4590    1.1220 hc        1 EP0      0.123200
     31 H5          1.4510    0.1940   -2.9690 h1        1 EP0      0.062700
     32 H5A         3.2260   -0.2480   -2.9050 h1        1 EP0      0.062700
     33 H6          0.8550   -2.1330   -2.1460 hc        1 EP0      0.056367
     34 H6A         2.6110   -2.5720   -2.0970 hc        1 EP0      0.056367
     35 H6B         1.8140   -2.2040   -3.6900 hc        1 EP0      0.056367
     36 HN          2.9200    2.1170    4.2790 hn        1 EP0      0.484300
     37 HA          5.2850    1.1790    4.7070 hx        1 EP0      0.098700
     38 HB          6.7360    3.4450    4.1860 hc        1 EP0      0.189700
     39 HG1         5.0920    3.1540    1.5690 hc        1 EP0      0.024700
     40 HG1A        6.6570    4.0060    1.8000 hc        1 EP0      0.024700
     41 HG2         6.4190    0.9900    2.2750 hc        1 EP0      0.037033
     42 HG2A        7.8520    2.0950    2.3830 hc        1 EP0      0.037033
     43 HG2B        7.4030    1.0620    3.7970 hc        1 EP0      0.037033
     44 HD1         5.6380    5.5070    3.5370 hc        1 EP0      0.065700
     45 HD1A        4.0240    4.7520    3.2570 hc        1 EP0      0.065700
     46 HD1B        4.8410    5.6370    1.9020 hc        1 EP0      0.065700
     47 HA1         4.9190    4.5970    7.9280 h1        1 EP0      0.086700
     48 HB1         6.3690    3.5750    9.5010 hc        1 EP0      0.065200
     49 HB1A        7.6730    4.4820    8.6300 hc        1 EP0      0.065200
     50 HG3         8.4910    2.4890    7.6930 hc        1 EP0      0.049200
     51 HG3A        7.3540    1.5900    8.7770 hc        1 EP0      0.049200
     52 HD3         7.2040    1.9940    5.8480 h1        1 EP0      0.033700
     53 HD3A        6.1040    0.9900    6.9050 h1        1 EP0      0.033700
     54 H21         3.5710    2.7590    2.8900 hn        1 EP0      0.484300
@<TRIPOS>BOND
     1    1    2 2   
     2    2    3 1   
     3    2   10 1   
     4    3    4 1   
     5    3    5 1   
     6    3   27 1   
     7    4   28 1   
     8    5    6 1   
     9    5   29 1   
    10    5   30 1   
    11    6    7 2   
    12    6   11 1   
    13    8    9 1   
    14    8   10 1   
    15    8   31 1   
    16    8   32 1   
    17    9   33 1   
    18    9   34 1   
    19    9   35 1   
    20   11   12 1   
    21   11   36 1   
    22   11   54 1   
    23   12   13 1   
    24   12   15 1   
    25   12   37 1   
    26   13   14 2   
    27   13   19 1   
    28   15   16 1   
    29   15   17 1   
    30   15   38 1   
    31   16   18 1   
    32   16   39 1   
    33   16   40 1   
    34   17   41 1   
    35   17   42 1   
    36   17   43 1   
    37   18   44 1   
    38   18   45 1   
    39   18   46 1   
    40   19   20 1   
    41   19   25 1   
    42   20   21 1   
    43   20   23 1   
    44   20   47 1   
    45   21   22 1   
    46   21   26 1   
    47   23   24 1   
    48   23   48 1   
    49   23   49 1   
    50   24   25 1   
    51   24   50 1   
    52   24   51 1   
    53   25   52 1   
    54   25   53 1   
@<TRIPOS>SUBSTRUCTURE
     1 EP0         1 TEMP              0 ****  ****    0 ROOT
