@<TRIPOS>MOLECULE
EP0
   54    54     1     0     0
SMALL
bcc


@<TRIPOS>ATOM
      1 O1          2.7330    1.9570   -1.5480 o         1 EP0     -0.513000
      2 C1          2.4560    1.1220   -0.6860 c         1 EP0      0.601100
      3 C2          2.4360    1.3760    0.8080 c3        1 EP0      0.097100
      4 O2          2.4980    2.7570    1.0940 oh        1 EP0     -0.610800
      5 C3          3.6090    0.6400    1.4590 c3        1 EP0     -0.193400
      6 C4          3.5440    0.6960    2.9590 c         1 EP0      0.557100
      7 O4          3.3870   -0.2690    3.6990 o         1 EP0     -0.435100
      8 C5          2.0850   -0.4440   -2.4430 c3        1 EP0      0.139400
      9 C6          1.6740   -1.8900   -2.5490 c3        1 EP0     -0.105100
     10 O5          2.1280   -0.1470   -1.0260 os        1 EP0     -0.428900
     11 N           3.6860    2.0350    3.5990 ny        1 EP0     -0.665800
     12 CA          4.9970    2.2060    4.3300 c3        1 EP0      0.042500
     13 C           4.7600    3.1540    5.5570 c         1 EP0      0.679100
     14 O           3.7570    3.8970    5.5120 o         1 EP0     -0.615100
     15 CB          6.1390    2.7550    3.4590 c3        1 EP0     -0.120700
     16 CG1         5.7480    3.6740    2.3100 c3        1 EP0     -0.066400
     17 CG2         6.9780    1.6050    2.9390 c3        1 EP0     -0.100100
     18 CD1         5.0870    4.9520    2.7530 c3        1 EP0     -0.133100
     19 N2          5.5490    2.9980    6.6660 n         1 EP0     -0.382800
     20 CA1         5.9490    4.1950    7.4330 c3        1 EP0     -0.056300
     21 C7          6.6210    5.3140    6.5580 c         1 EP0      0.919600
     22 O3          6.9320    6.3700    7.1540 o         1 EP0     -0.817300
     23 CB1         6.9580    3.6960    8.4810 c3        1 EP0     -0.073400
     24 CG3         7.4690    2.3500    7.9730 c3        1 EP0     -0.079400
     25 CD3         6.5930    1.9860    6.7610 c3        1 EP0      0.065000
     26 OXT         6.8130    5.0750    5.3290 o         1 EP0     -0.817300
     27 H2          1.4530    1.0160    1.2330 h1        1 EP0      0.117700
     28 HO2         2.9250    3.2230    0.3560 ho        1 EP0      0.458000
     29 H3          4.5840    1.0800    1.1090 hc        1 EP0      0.123200
     30 H3A         3.5750   -0.4430    1.1500 hc        1 EP0      0.123200
     31 H5          3.1030   -0.2570   -2.8720 h1        1 EP0      0.062700
     32 H5A         1.3440    0.2460   -2.9250 h1        1 EP0      0.062700
     33 H6          1.6190   -2.1690   -3.6290 hc        1 EP0      0.056367
     34 H6A         2.4150   -2.5510   -2.0390 hc        1 EP0      0.056367
     35 H6B         0.6740   -2.0530   -2.0790 hc        1 EP0      0.056367
     36 HN          3.5890    2.7880    2.8960 hn        1 EP0      0.484300
     37 HA          5.2740    1.1760    4.7110 hx        1 EP0      0.098700
     38 HB          6.7820    3.3970    4.1600 hc        1 EP0      0.189700
     39 HG1         5.1090    3.1320    1.5590 hc        1 EP0      0.024700
     40 HG1A        6.6990    3.9420    1.7700 hc        1 EP0      0.024700
     41 HG2         7.8460    2.0030    2.3580 hc        1 EP0      0.037033
     42 HG2A        7.3800    0.9940    3.7830 hc        1 EP0      0.037033
     43 HG2B        6.3820    0.9380    2.2710 hc        1 EP0      0.037033
     44 HD1         4.0990    4.7720    3.2420 hc        1 EP0      0.065700
     45 HD1A        4.9290    5.6230    1.8740 hc        1 EP0      0.065700
     46 HD1B        5.7350    5.4840    3.5040 hc        1 EP0      0.065700
     47 HA1         5.0290    4.6280    7.9060 h1        1 EP0      0.086700
     48 HB1         7.7840    4.4440    8.5880 hc        1 EP0      0.065200
     49 HB1A        6.4630    3.5790    9.4760 hc        1 EP0      0.065200
     50 HG3         7.3880    1.5630    8.7610 hc        1 EP0      0.049200
     51 HG3A        8.5390    2.4210    7.6600 hc        1 EP0      0.049200
     52 HD3         6.1060    0.9820    6.9040 h1        1 EP0      0.033700
     53 HD3A        7.2240    1.9470    5.8300 h1        1 EP0      0.033700
     54 H21         2.9320    2.1750    4.2950 hn        1 EP0      0.484300
@<TRIPOS>BOND
     1    1    2 2   
     2    2    3 1   
     3    2   10 1   
     4    3    4 1   
     5    3    5 1   
     6    3   27 1   
     7    4   28 1   
     8    5    6 1   
     9    5   29 1   
    10    5   30 1   
    11    6    7 2   
    12    6   11 1   
    13    8    9 1   
    14    8   10 1   
    15    8   31 1   
    16    8   32 1   
    17    9   33 1   
    18    9   34 1   
    19    9   35 1   
    20   11   12 1   
    21   11   36 1   
    22   11   54 1   
    23   12   13 1   
    24   12   15 1   
    25   12   37 1   
    26   13   14 2   
    27   13   19 1   
    28   15   16 1   
    29   15   17 1   
    30   15   38 1   
    31   16   18 1   
    32   16   39 1   
    33   16   40 1   
    34   17   41 1   
    35   17   42 1   
    36   17   43 1   
    37   18   44 1   
    38   18   45 1   
    39   18   46 1   
    40   19   20 1   
    41   19   25 1   
    42   20   21 1   
    43   20   23 1   
    44   20   47 1   
    45   21   22 1   
    46   21   26 1   
    47   23   24 1   
    48   23   48 1   
    49   23   49 1   
    50   24   25 1   
    51   24   50 1   
    52   24   51 1   
    53   25   52 1   
    54   25   53 1   
@<TRIPOS>SUBSTRUCTURE
     1 EP0         1 TEMP              0 ****  ****    0 ROOT
