@<TRIPOS>MOLECULE
EP0
   53    53     1     0     0
SMALL
bcc


@<TRIPOS>ATOM
      1 O1         -5.7330   -0.1410    2.0930 o         1 EP0     -0.555000
      2 C1         -5.1350   -0.2800    1.0230 c         1 EP0      0.596100
      3 C2         -3.7960   -0.9610    0.7990 c3        1 EP0      0.111100
      4 O2         -3.6100   -1.9480    1.7880 oh        1 EP0     -0.569800
      5 C3         -2.6950    0.0960    0.8070 c3        1 EP0     -0.185400
      6 C4         -1.5140   -0.3370   -0.0560 c         1 EP0      0.667100
      7 O4         -1.6800   -1.1190   -1.0180 o         1 EP0     -0.635100
      8 C5         -6.9690    0.8680    0.0240 c3        1 EP0      0.137400
      9 C6         -7.3630    1.3230   -1.3600 c3        1 EP0     -0.100100
     10 O5         -5.6960    0.2110   -0.1160 os        1 EP0     -0.428900
     11 N          -0.2990    0.2080    0.2560 n         1 EP0     -0.538900
     12 CA          0.9200   -0.0800   -0.4630 c3        1 EP0      0.031700
     13 C           2.1120   -0.2290    0.5270 c         1 EP0      0.673100
     14 O           2.0790    0.3520    1.6330 o         1 EP0     -0.627100
     15 CB          1.3140    0.9770   -1.5270 c3        1 EP0     -0.097700
     16 CG1         0.9380    2.4120   -1.1920 c3        1 EP0     -0.052400
     17 CG2         0.6990    0.5820   -2.8560 c3        1 EP0     -0.090100
     18 CD1         1.7080    2.9610   -0.0190 c3        1 EP0     -0.121100
     19 N2          3.1410   -1.0870    0.1940 n         1 EP0     -0.422800
     20 CA1         4.5220   -0.8050    0.6060 c3        1 EP0     -0.038300
     21 C7          5.1060    0.5660    0.1210 c         1 EP0      0.912600
     22 O3          4.4430    1.2710   -0.6910 o         1 EP0     -0.833800
     23 CB1         5.3710   -1.9390   -0.0050 c3        1 EP0     -0.071400
     24 CG3         4.5410   -2.5120   -1.1520 c3        1 EP0     -0.081400
     25 CD3         3.1440   -1.8770   -1.0250 c3        1 EP0      0.081000
     26 OXT         6.2440    0.8650    0.5720 o         1 EP0     -0.833800
     27 H2         -3.8000   -1.5270   -0.1810 h1        1 EP0      0.145700
     28 HO2        -3.6540   -1.5160    2.6530 ho        1 EP0      0.412000
     29 H3         -3.0880    1.0520    0.3680 hc        1 EP0      0.076200
     30 H3A        -2.3770    0.2950    1.8630 hc        1 EP0      0.076200
     31 H5         -6.8540    1.7290    0.7330 h1        1 EP0      0.049200
     32 H5A        -7.7040    0.1370    0.4520 h1        1 EP0      0.049200
     33 H6         -6.6010    2.0260   -1.7720 hc        1 EP0      0.047700
     34 H6A        -7.4440    0.4510   -2.0510 hc        1 EP0      0.047700
     35 H6B        -8.3500    1.8420   -1.3050 hc        1 EP0      0.047700
     36 HN         -0.2040    0.8160    1.0400 hn        1 EP0      0.330500
     37 HA          0.7540   -1.0660   -0.9990 h1        1 EP0      0.082700
     38 HB          2.4470    0.9480   -1.6160 hc        1 EP0      0.133700
     39 HG1         1.1680    3.0410   -2.0960 hc        1 EP0      0.017200
     40 HG1A       -0.1650    2.5030   -1.0160 hc        1 EP0      0.017200
     41 HG2        -0.4080    0.4680   -2.7600 hc        1 EP0      0.028700
     42 HG2A        0.9170    1.3560   -3.6310 hc        1 EP0      0.028700
     43 HG2B        1.1230   -0.3910   -3.2060 hc        1 EP0      0.028700
     44 HD1         1.5580    4.0640    0.0570 hc        1 EP0      0.051033
     45 HD1A        1.3750    2.4900    0.9370 hc        1 EP0      0.051033
     46 HD1B        2.8040    2.7440   -0.1380 hc        1 EP0      0.051033
     47 HA1         4.5600   -0.8160    1.7280 h1        1 EP0      0.070700
     48 HB1         6.3470   -1.5270   -0.3600 hc        1 EP0      0.047700
     49 HB1A        5.5800   -2.7260    0.7600 hc        1 EP0      0.047700
     50 HG3         4.9910   -2.2490   -2.1400 hc        1 EP0      0.033200
     51 HG3A        4.4720   -3.6240   -1.0860 hc        1 EP0      0.033200
     52 HD3         2.3510   -2.6710   -0.9470 h1        1 EP0      0.032700
     53 HD3A        2.9230   -1.2470   -1.9320 h1        1 EP0      0.032700
@<TRIPOS>BOND
     1    1    2 2   
     2    2    3 1   
     3    2   10 1   
     4    3    4 1   
     5    3    5 1   
     6    3   27 1   
     7    4   28 1   
     8    5    6 1   
     9    5   29 1   
    10    5   30 1   
    11    6    7 2   
    12    6   11 1   
    13    8    9 1   
    14    8   10 1   
    15    8   31 1   
    16    8   32 1   
    17    9   33 1   
    18    9   34 1   
    19    9   35 1   
    20   11   12 1   
    21   11   36 1   
    22   12   13 1   
    23   12   15 1   
    24   12   37 1   
    25   13   14 2   
    26   13   19 1   
    27   15   16 1   
    28   15   17 1   
    29   15   38 1   
    30   16   18 1   
    31   16   39 1   
    32   16   40 1   
    33   17   41 1   
    34   17   42 1   
    35   17   43 1   
    36   18   44 1   
    37   18   45 1   
    38   18   46 1   
    39   19   20 1   
    40   19   25 1   
    41   20   21 1   
    42   20   23 1   
    43   20   47 1   
    44   21   22 1   
    45   21   26 1   
    46   23   24 1   
    47   23   48 1   
    48   23   49 1   
    49   24   25 1   
    50   24   50 1   
    51   24   51 1   
    52   25   52 1   
    53   25   53 1   
@<TRIPOS>SUBSTRUCTURE
     1 EP0         1 TEMP              0 ****  ****    0 ROOT
