@<TRIPOS>MOLECULE
EP1
   35    35     1     0     0
SMALL
bcc


@<TRIPOS>ATOM
      1 O2S         0.0610    0.0510    0.0750 o         1 EP1     -0.751867
      2 S           1.4430   -0.1570   -0.1410 s6        1 EP1      1.427800
      3 O3S         2.2420    0.0590    1.0080 o         1 EP1     -0.751867
      4 O1S         1.7410   -1.3600   -0.8270 o         1 EP1     -0.751867
      5 C11         1.9310    1.1160   -1.2940 c3        1 EP1     -0.291600
      6 C10         1.8890    2.4880   -0.6860 c3        1 EP1     -0.040400
      7 C9          2.4740    3.5180   -1.6490 c3        1 EP1      0.170800
      8 N1          2.3180    4.9110   -1.2370 n3        1 EP1     -0.729600
      9 C2          2.7600    5.1660    0.1240 c3        1 EP1      0.167800
     10 C3          2.6240    6.6450    0.5330 c3        1 EP1      0.167800
     11 N4          3.2200    7.5700   -0.4220 n3        1 EP1     -0.740600
     12 C5          2.7990    7.2980   -1.7900 c3        1 EP1      0.167800
     13 C6          2.9490    5.8170   -2.1850 c3        1 EP1      0.167800
     14 C7          3.0140    8.9630   -0.0550 c3        1 EP1      0.128800
     15 C8          3.9540    9.4370    1.0620 c3        1 EP1      0.135400
     16 O8          5.2960    9.5280    0.6330 oh        1 EP1     -0.611800
     17 H111        2.9630    0.8860   -1.6530 h1        1 EP1      0.062200
     18 H112        1.2580    1.0680   -2.1820 h1        1 EP1      0.062200
     19 H101        0.8280    2.7520   -0.4330 hc        1 EP1      0.054700
     20 H102        2.4780    2.4790    0.2720 hc        1 EP1      0.054700
     21 H91         3.5630    3.2650   -1.8180 h1        1 EP1      0.024200
     22 H92         1.9470    3.4200   -2.6410 h1        1 EP1      0.024200
     23 H21         2.1070    4.5630    0.8160 h1        1 EP1      0.039700
     24 H22         3.8290    4.8420    0.2860 h1        1 EP1      0.039700
     25 H31         1.5300    6.8730    0.6990 h1        1 EP1      0.030450
     26 H32         3.1560    6.7790    1.5160 h1        1 EP1      0.030450
     27 H51         1.7280    7.6110   -1.9630 h1        1 EP1      0.030450
     28 H52         3.4510    7.9050   -2.4780 h1        1 EP1      0.030450
     29 H61         4.0480    5.5910   -2.3200 h1        1 EP1      0.039700
     30 H62         2.4460    5.6770   -3.1830 h1        1 EP1      0.039700
     31 H71         1.9540    9.1600    0.2800 h1        1 EP1      0.037200
     32 H72         3.2130    9.6060   -0.9590 h1        1 EP1      0.037200
     33 H81         3.6770   10.4870    1.3510 h1        1 EP1      0.039700
     34 H82         3.8830    8.7730    1.9650 h1        1 EP1      0.039700
     35 HO8         5.5480    8.6610    0.2900 ho        1 EP1      0.417000
@<TRIPOS>BOND
     1    1    2 1   
     2    2    3 1   
     3    2    4 1   
     4    2    5 1   
     5    5    6 1   
     6    5   17 1   
     7    5   18 1   
     8    6    7 1   
     9    6   19 1   
    10    6   20 1   
    11    7    8 1   
    12    7   21 1   
    13    7   22 1   
    14    8    9 1   
    15    8   13 1   
    16    9   10 1   
    17    9   23 1   
    18    9   24 1   
    19   10   11 1   
    20   10   25 1   
    21   10   26 1   
    22   11   12 1   
    23   11   14 1   
    24   12   13 1   
    25   12   27 1   
    26   12   28 1   
    27   13   29 1   
    28   13   30 1   
    29   14   15 1   
    30   14   31 1   
    31   14   32 1   
    32   15   16 1   
    33   15   33 1   
    34   15   34 1   
    35   16   35 1   
@<TRIPOS>SUBSTRUCTURE
     1 EP1         1 TEMP              0 ****  ****    0 ROOT
