@<TRIPOS>MOLECULE
EP1
   35    35     1     0     0
SMALL
bcc


@<TRIPOS>ATOM
      1 O2S         0.1160    0.0190    0.0870 o         1 EP1     -0.751867
      2 S           1.4960   -0.1710   -0.1580 s6        1 EP1      1.427800
      3 O3S         2.3150    0.0460    0.9770 o         1 EP1     -0.751867
      4 O1S         1.7950   -1.3650   -0.8580 o         1 EP1     -0.751867
      5 C11         1.9470    1.1160   -1.3100 c3        1 EP1     -0.291600
      6 C10         1.9060    2.4820   -0.6900 c3        1 EP1     -0.040400
      7 C9          2.4600    3.5260   -1.6570 c3        1 EP1      0.170800
      8 N1          2.3030    4.9140   -1.2290 n3        1 EP1     -0.729600
      9 C2          2.7770    5.1610    0.1230 c3        1 EP1      0.167800
     10 C3          2.6400    6.6350    0.5480 c3        1 EP1      0.167800
     11 N4          3.2040    7.5730   -0.4140 n3        1 EP1     -0.740600
     12 C5          2.7490    7.3090   -1.7730 c3        1 EP1      0.167800
     13 C6          2.9020    5.8330   -2.1850 c3        1 EP1      0.167800
     14 C7          2.9960    8.9610   -0.0290 c3        1 EP1      0.128800
     15 C8          3.9590    9.4340    1.0670 c3        1 EP1      0.135400
     16 O8          5.2900    9.5400    0.6040 oh        1 EP1     -0.611800
     17 H111        1.2540    1.0700   -2.1830 h1        1 EP1      0.062700
     18 H112        2.9710    0.8990   -1.6950 h1        1 EP1      0.062700
     19 H101        0.8490    2.7350   -0.4100 hc        1 EP1      0.054700
     20 H102        2.5180    2.4710    0.2540 hc        1 EP1      0.054700
     21 H91         3.5470    3.2830   -1.8540 h1        1 EP1      0.024200
     22 H92         1.9110    3.4320   -2.6370 h1        1 EP1      0.024200
     23 H21         2.1470    4.5470    0.8260 h1        1 EP1      0.039700
     24 H22         3.8530    4.8450    0.2550 h1        1 EP1      0.039700
     25 H31         3.1950    6.7650    1.5180 h1        1 EP1      0.030450
     26 H32         1.5490    6.8520    0.7430 h1        1 EP1      0.030450
     27 H51         3.3790    7.9280   -2.4720 h1        1 EP1      0.030450
     28 H52         1.6720    7.6150   -1.9160 h1        1 EP1      0.030450
     29 H61         3.9990    5.6180   -2.3500 h1        1 EP1      0.039700
     30 H62         2.3750    5.6970   -3.1710 h1        1 EP1      0.039700
     31 H71         3.1650    9.6140   -0.9320 h1        1 EP1      0.037200
     32 H72         1.9420    9.1460    0.3350 h1        1 EP1      0.037200
     33 H81         3.9180    8.7610    1.9650 h1        1 EP1      0.039700
     34 H82         3.6820   10.4780    1.3730 h1        1 EP1      0.039700
     35 HO8         5.5400    8.6780    0.2470 ho        1 EP1      0.417000
@<TRIPOS>BOND
     1    1    2 1   
     2    2    3 1   
     3    2    4 1   
     4    2    5 1   
     5    5    6 1   
     6    5   17 1   
     7    5   18 1   
     8    6    7 1   
     9    6   19 1   
    10    6   20 1   
    11    7    8 1   
    12    7   21 1   
    13    7   22 1   
    14    8    9 1   
    15    8   13 1   
    16    9   10 1   
    17    9   23 1   
    18    9   24 1   
    19   10   11 1   
    20   10   25 1   
    21   10   26 1   
    22   11   12 1   
    23   11   14 1   
    24   12   13 1   
    25   12   27 1   
    26   12   28 1   
    27   13   29 1   
    28   13   30 1   
    29   14   15 1   
    30   14   31 1   
    31   14   32 1   
    32   15   16 1   
    33   15   33 1   
    34   15   34 1   
    35   16   35 1   
@<TRIPOS>SUBSTRUCTURE
     1 EP1         1 TEMP              0 ****  ****    0 ROOT
