@<TRIPOS>MOLECULE
EP1
   35    35     1     0     0
SMALL
bcc


@<TRIPOS>ATOM
      1 O2S         0.0250   -1.3460   -4.4530 o         1 EP1     -0.751867
      2 S           0.2790    0.0360   -4.2910 s6        1 EP1      1.427800
      3 O3S         1.5970    0.3310   -3.8650 o         1 EP1     -0.751867
      4 O1S        -0.1630    0.8310   -5.3770 o         1 EP1     -0.751867
      5 C11        -0.7710    0.5470   -2.9410 c3        1 EP1     -0.291600
      6 C10        -0.3370   -0.0290   -1.6250 c3        1 EP1     -0.040400
      7 C9         -1.1550    0.5680   -0.4820 c3        1 EP1      0.170800
      8 N1         -0.9430   -0.0530    0.8230 n3        1 EP1     -0.729600
      9 C2          0.4590   -0.1610    1.1930 c3        1 EP1      0.167800
     10 C3          0.6670   -0.7830    2.5870 c3        1 EP1      0.167800
     11 N4         -0.1320   -0.1520    3.6300 n3        1 EP1     -0.740600
     12 C5         -1.5320   -0.0200    3.2490 c3        1 EP1      0.167800
     13 C6         -1.7220    0.6110    1.8570 c3        1 EP1      0.167800
     14 C7          0.0230   -0.8040    4.9220 c3        1 EP1      0.128800
     15 C8          1.3310   -0.4310    5.6320 c3        1 EP1      0.135400
     16 O8          1.3420    0.9110    6.0700 oh        1 EP1     -0.611800
     17 H111       -1.8190    0.2390   -3.1690 h1        1 EP1      0.062200
     18 H112       -0.7630    1.6630   -2.8930 h1        1 EP1      0.062200
     19 H101        0.7540    0.1940   -1.4730 hc        1 EP1      0.054700
     20 H102       -0.4590   -1.1450   -1.6470 hc        1 EP1      0.054700
     21 H91        -2.2490    0.4390   -0.7210 h1        1 EP1      0.024200
     22 H92        -0.9470    1.6780   -0.4420 h1        1 EP1      0.024200
     23 H21         0.9610   -0.8360    0.4430 h1        1 EP1      0.039700
     24 H22         0.9800    0.8410    1.1610 h1        1 EP1      0.039700
     25 H31         1.7510   -0.6550    2.8610 h1        1 EP1      0.030450
     26 H32         0.4560   -1.8910    2.5200 h1        1 EP1      0.030450
     27 H51        -2.0620   -1.0160    3.2690 h1        1 EP1      0.030450
     28 H52        -2.0300    0.6520    4.0020 h1        1 EP1      0.030450
     29 H61        -2.8100    0.5160    1.5850 h1        1 EP1      0.039700
     30 H62        -1.4810    1.7130    1.9270 h1        1 EP1      0.039700
     31 H71        -0.0140   -1.9290    4.8360 h1        1 EP1      0.037200
     32 H72        -0.8260   -0.4840    5.5900 h1        1 EP1      0.037200
     33 H81         2.2220   -0.6290    4.9780 h1        1 EP1      0.039700
     34 H82         1.4210   -1.0370    6.5740 h1        1 EP1      0.039700
     35 HO8         1.1770    1.4670    5.2970 ho        1 EP1      0.417000
@<TRIPOS>BOND
     1    1    2 1   
     2    2    3 1   
     3    2    4 1   
     4    2    5 1   
     5    5    6 1   
     6    5   17 1   
     7    5   18 1   
     8    6    7 1   
     9    6   19 1   
    10    6   20 1   
    11    7    8 1   
    12    7   21 1   
    13    7   22 1   
    14    8    9 1   
    15    8   13 1   
    16    9   10 1   
    17    9   23 1   
    18    9   24 1   
    19   10   11 1   
    20   10   25 1   
    21   10   26 1   
    22   11   12 1   
    23   11   14 1   
    24   12   13 1   
    25   12   27 1   
    26   12   28 1   
    27   13   29 1   
    28   13   30 1   
    29   14   15 1   
    30   14   31 1   
    31   14   32 1   
    32   15   16 1   
    33   15   33 1   
    34   15   34 1   
    35   16   35 1   
@<TRIPOS>SUBSTRUCTURE
     1 EP1         1 TEMP              0 ****  ****    0 ROOT
