@<TRIPOS>MOLECULE
EP1
   35    33     1     0     0
SMALL
bcc


@<TRIPOS>ATOM
      1 O2S        -1.8470   -3.6360    3.9750 o         1 EP1     -1.074500
      2 S          -0.3600   -3.6400    3.6960 ss        1 EP1      2.857000
      3 O3S         0.2020   -3.5780    5.0990 o         1 EP1     -1.074500
      4 O1S         0.0610   -4.9140    2.9920 os        1 EP1     -1.073000
      5 C11         0.1230   -2.2170    2.7410 c2        1 EP1     -0.831000
      6 C10        -0.4530   -2.3260    1.3540 c3        1 EP1     -0.118000
      7 C9         -0.1910   -1.0350    0.5880 c3        1 EP1     -0.063000
      8 N1         -0.3680   -1.2720   -0.8250 n3        1 EP1     -0.260000
      9 C2          0.8660   -0.7100   -1.6050 c3        1 EP1     -0.096500
     10 C3          1.1810    0.7300   -1.2490 c3        1 EP1     -0.071500
     11 N4          0.1690    1.3120   -0.7140 n3        1 EP1     -0.251000
     12 C5         -1.0580    1.1890   -1.0510 c3        1 EP1     -0.071500
     13 C6         -1.3910   -0.2630   -1.4050 c3        1 EP1     -0.096500
     14 C7          0.4680    2.6980   -0.5070 c3        1 EP1     -0.065000
     15 C8          0.5750    3.3950   -1.8500 c3        1 EP1     -0.057000
     16 O8          0.5100    4.7990   -1.6630 oh        1 EP1     -0.343000
     17 H111       -0.2100   -1.4140    3.1660 ha        1 EP1      0.101500
     18 H112        1.1040   -2.1770    2.6860 ha        1 EP1      0.101500
     19 H101       -1.4070   -2.4790    1.4120 hc        1 EP1      0.094000
     20 H102       -0.0280   -3.0800    0.8820 hc        1 EP1      0.094000
     21 H91         0.7410   -0.7320    0.7580 h1        1 EP1      0.062500
     22 H92        -0.8190   -0.3440    0.8880 h1        1 EP1      0.062500
     23 H21         1.6680   -1.2770   -1.3960 h1        1 EP1      0.075000
     24 H22         0.6810   -0.7630   -2.5660 h1        1 EP1      0.075000
     25 H31         1.9450    0.7480   -0.6080 h1        1 EP1      0.082750
     26 H32         1.4340    1.2100   -2.0580 h1        1 EP1      0.082750
     27 H51        -1.6390    1.4830   -0.2920 h1        1 EP1      0.082750
     28 H52        -1.2370    1.7670   -1.8430 h1        1 EP1      0.082750
     29 H61        -1.4060   -0.3550   -2.3880 h1        1 EP1      0.075000
     30 H62        -2.2980   -0.4830   -1.0480 h1        1 EP1      0.075000
     31 H71         1.3190    2.7800   -0.0250 h1        1 EP1      0.091000
     32 H72        -0.2320    3.1030    0.0080 h1        1 EP1      0.091000
     33 H81         1.4340    3.1590   -2.2760 h1        1 EP1      0.080500
     34 H82        -0.1590    3.1110   -2.4220 h1        1 EP1      0.080500
     35 HO8         0.6200    5.2110   -2.4510 ho        1 EP1      0.199000
@<TRIPOS>BOND
     1    1    2 1   
     2    2    3 1   
     3    5    6 1   
     4    5   17 1   
     5    5   18 1   
     6    6    7 1   
     7    6   19 1   
     8    6   20 1   
     9    7    8 1   
    10    7   21 1   
    11    7   22 1   
    12    8    9 1   
    13    8   13 1   
    14    9   10 1   
    15    9   23 1   
    16    9   24 1   
    17   10   11 1   
    18   10   25 1   
    19   10   26 1   
    20   11   12 1   
    21   11   14 1   
    22   12   13 1   
    23   12   27 1   
    24   12   28 1   
    25   13   29 1   
    26   13   30 1   
    27   14   15 1   
    28   14   31 1   
    29   14   32 1   
    30   15   16 1   
    31   15   33 1   
    32   15   34 1   
    33   16   35 1   
@<TRIPOS>SUBSTRUCTURE
     1 EP1         1 TEMP              0 ****  ****    0 ROOT
