@<TRIPOS>MOLECULE
EP1
   35    35     1     0     0
SMALL
bcc


@<TRIPOS>ATOM
      1 O2S         0.0870    0.0350    0.0670 o         1 EP1     -0.751867
      2 S           1.4690   -0.1650   -0.1610 s6        1 EP1      1.427800
      3 O3S         2.2760    0.0500    0.9830 o         1 EP1     -0.751867
      4 O1S         1.7680   -1.3620   -0.8560 o         1 EP1     -0.751867
      5 C11         1.9410    1.1170   -1.3110 c3        1 EP1     -0.291600
      6 C10         1.8980    2.4850   -0.6940 c3        1 EP1     -0.040400
      7 C9          2.4700    3.5240   -1.6560 c3        1 EP1      0.170800
      8 N1          2.3120    4.9130   -1.2350 n3        1 EP1     -0.729600
      9 C2          2.7660    5.1620    0.1240 c3        1 EP1      0.167800
     10 C3          2.6280    6.6380    0.5420 c3        1 EP1      0.167800
     11 N4          3.2120    7.5710   -0.4130 n3        1 EP1     -0.740600
     12 C5          2.7770    7.3060   -1.7780 c3        1 EP1      0.167800
     13 C6          2.9300    5.8270   -2.1830 c3        1 EP1      0.167800
     14 C7          3.0030    8.9610   -0.0350 c3        1 EP1      0.128800
     15 C8          3.9520    9.4330    1.0750 c3        1 EP1      0.135400
     16 O8          5.2900    9.5310    0.6330 oh        1 EP1     -0.611800
     17 H111        2.9700    0.8940   -1.6800 h1        1 EP1      0.062200
     18 H112        1.2600    1.0720   -2.1930 h1        1 EP1      0.062200
     19 H101        0.8380    2.7440   -0.4300 hc        1 EP1      0.054700
     20 H102        2.4950    2.4740    0.2580 hc        1 EP1      0.054700
     21 H91         3.5590    3.2760   -1.8370 h1        1 EP1      0.024200
     22 H92         1.9350    3.4300   -2.6440 h1        1 EP1      0.024200
     23 H21         3.8390    4.8420    0.2740 h1        1 EP1      0.039700
     24 H22         2.1220    4.5530    0.8180 h1        1 EP1      0.039700
     25 H31         3.1690    6.7690    1.5210 h1        1 EP1      0.030450
     26 H32         1.5350    6.8610    0.7200 h1        1 EP1      0.030450
     27 H51         1.7040    7.6150   -1.9390 h1        1 EP1      0.030450
     28 H52         3.4210    7.9190   -2.4690 h1        1 EP1      0.030450
     29 H61         2.4180    5.6910   -3.1770 h1        1 EP1      0.039700
     30 H62         4.0280    5.6070   -2.3300 h1        1 EP1      0.039700
     31 H71         3.1900    9.6110   -0.9370 h1        1 EP1      0.037200
     32 H72         1.9460    9.1520    0.3120 h1        1 EP1      0.037200
     33 H81         3.6740   10.4790    1.3740 h1        1 EP1      0.039700
     34 H82         3.8940    8.7630    1.9740 h1        1 EP1      0.039700
     35 HO8         5.5410    8.6680    0.2820 ho        1 EP1      0.417000
@<TRIPOS>BOND
     1    1    2 1   
     2    2    3 1   
     3    2    4 1   
     4    2    5 1   
     5    5    6 1   
     6    5   17 1   
     7    5   18 1   
     8    6    7 1   
     9    6   19 1   
    10    6   20 1   
    11    7    8 1   
    12    7   21 1   
    13    7   22 1   
    14    8    9 1   
    15    8   13 1   
    16    9   10 1   
    17    9   23 1   
    18    9   24 1   
    19   10   11 1   
    20   10   25 1   
    21   10   26 1   
    22   11   12 1   
    23   11   14 1   
    24   12   13 1   
    25   12   27 1   
    26   12   28 1   
    27   13   29 1   
    28   13   30 1   
    29   14   15 1   
    30   14   31 1   
    31   14   32 1   
    32   15   16 1   
    33   15   33 1   
    34   15   34 1   
    35   16   35 1   
@<TRIPOS>SUBSTRUCTURE
     1 EP1         1 TEMP              0 ****  ****    0 ROOT
