@<TRIPOS>MOLECULE
EP2
   81    82     1     0     0
SMALL
bcc


@<TRIPOS>ATOM
      1 CB         10.3400    1.8880    0.0950 c3        1 EP2      0.127700
      2 OXT         9.4960    0.7910   -0.2520 os        1 EP2     -0.446900
      3 N           6.1260   -0.5070    0.3920 n         1 EP2     -0.551900
      4 CA          7.4490   -0.4340   -0.1390 c3        1 EP2      0.048000
      5 C           8.2430    0.7800    0.3030 c         1 EP2      0.598100
      6 O           7.9280    1.7100    1.0450 o         1 EP2     -0.533000
      7 N1          3.3610   -1.5090    1.1370 n         1 EP2     -0.568900
      8 CA1         4.3980   -1.1820    2.0620 c3        1 EP2      0.031000
      9 C1          5.8270   -1.2830    1.4980 c         1 EP2      0.634100
     10 O1          6.6620   -2.0510    2.0140 o         1 EP2     -0.613100
     11 N2          0.5360   -1.3910    0.0620 n         1 EP2     -0.553900
     12 CA2         1.7240   -1.0950   -0.7020 c3        1 EP2      0.048700
     13 C2          2.8730   -0.6030    0.2190 c         1 EP2      0.647100
     14 O2          3.3510    0.5470    0.1370 o         1 EP2     -0.628100
     15 CB1         1.4660   -0.0510   -1.8000 c3        1 EP2     -0.089400
     16 CG          2.5410   -0.0900   -2.8770 c3        1 EP2     -0.061700
     17 CD1         2.3490   -1.2620   -3.8170 c3        1 EP2     -0.093100
     18 CD2         2.5210    1.2100   -3.6580 c3        1 EP2     -0.093100
     19 O11         1.2190   -3.5010    0.6840 o         1 EP2     -0.622100
     20 C21        -1.0690   -2.8490    1.1450 cx        1 EP2      0.004100
     21 O21        -1.2830   -3.8470    2.1500 os        1 EP2     -0.340600
     22 C31        -1.4310   -2.4770    2.5440 cx        1 EP2     -0.021900
     23 C41        -2.8310   -1.9400    2.7330 c         1 EP2      0.647100
     24 O41        -3.7940   -2.6610    3.0330 o         1 EP2     -0.545100
     25 N3         -2.9410   -0.5480    2.5710 n         1 EP2     -0.500900
     26 CA3        -3.9840   -0.0500    1.6840 c3        1 EP2      0.002700
     27 C3         -3.6400   -0.3310    0.1900 c         1 EP2      0.661100
     28 O3         -2.4380   -0.5070   -0.1330 o         1 EP2     -0.685100
     29 CB2        -4.1650    1.4710    1.8080 c3        1 EP2     -0.092400
     30 CG1        -5.0020    1.8580    3.0170 c3        1 EP2     -0.065700
     31 CD11       -4.7590    3.3150    3.3610 c3        1 EP2     -0.090100
     32 CD21       -6.4780    1.6280    2.7630 c3        1 EP2     -0.090100
     33 N4         -4.6550   -0.4910   -0.7220 n         1 EP2     -0.407800
     34 CA4        -4.4790   -0.0680   -2.1180 c3        1 EP2     -0.045300
     35 C4         -4.0360    1.4280   -2.3020 c         1 EP2      0.913600
     36 O4         -4.0530    2.1960   -1.3020 o         1 EP2     -0.827300
     37 CB3        -5.8510   -0.2670   -2.7910 c3        1 EP2     -0.071400
     38 CG2        -6.8710   -0.3520   -1.6600 c3        1 EP2     -0.081400
     39 CD         -6.0600   -0.4130   -0.3530 c3        1 EP2      0.076000
     40 OXT1       -3.7070    1.7560   -3.4710 o         1 EP2     -0.827300
     41 HB1         9.8710    2.8480   -0.2320 h1        1 EP2      0.048033
     42 HB2        10.5100    1.9040    1.1980 h1        1 EP2      0.048033
     43 HB3        11.2860    1.6830   -0.4630 h1        1 EP2      0.048033
     44 H           5.4890    0.2220    0.1410 hn        1 EP2      0.348500
     45 HA1         8.0350   -1.3500    0.1680 h1        1 EP2      0.095700
     46 HA2         7.3910   -0.3980   -1.2660 h1        1 EP2      0.095700
     47 H1          3.0210   -2.4470    1.1280 hn        1 EP2      0.350500
     48 HA21        4.2580   -0.1230    2.4320 h1        1 EP2      0.084200
     49 HA3         4.3460   -1.8900    2.9370 h1        1 EP2      0.084200
     50 H2         -0.2430   -0.7710   -0.0530 hn        1 EP2      0.365500
     51 HA          2.0910   -2.0550   -1.1870 h1        1 EP2      0.078700
     52 HB21        0.4630   -0.2280   -2.2740 hc        1 EP2      0.080700
     53 HB31        1.4440    0.9700   -1.3320 hc        1 EP2      0.080700
     54 HG          3.5450   -0.1860   -2.3730 hc        1 EP2      0.044700
     55 HD11        3.1500   -1.2650   -4.5950 hc        1 EP2      0.036200
     56 HD12        2.3930   -2.2300   -3.2640 hc        1 EP2      0.036200
     57 HD13        1.3590   -1.1930   -4.3300 hc        1 EP2      0.036200
     58 HD21        2.7490    2.0710   -2.9850 hc        1 EP2      0.036200
     59 HD22        3.2840    1.1820   -4.4720 hc        1 EP2      0.036200
     60 HD23        1.5160    1.3750   -4.1170 hc        1 EP2      0.036200
     61 H21        -1.8460   -2.8210    0.3460 h1        1 EP2      0.145700
     62 H31        -0.6830   -2.1320    3.2830 h1        1 EP2      0.114700
     63 H3         -2.0630   -0.1050    2.3680 hn        1 EP2      0.285500
     64 HA4        -4.9410   -0.5800    1.9660 h1        1 EP2      0.088700
     65 HB22       -3.1590    1.9670    1.8730 hc        1 EP2      0.092200
     66 HB32       -4.6340    1.8610    0.8580 hc        1 EP2      0.092200
     67 HG1        -4.6890    1.2280    3.8970 hc        1 EP2      0.047700
     68 HD14       -4.9970    3.9660    2.4850 hc        1 EP2      0.031033
     69 HD15       -5.4000    3.6230    4.2210 hc        1 EP2      0.031033
     70 HD16       -3.6900    3.4760    3.6400 hc        1 EP2      0.031033
     71 HD24       -6.6790    0.5480    2.5610 hc        1 EP2      0.031033
     72 HD25       -7.0760    1.9370    3.6530 hc        1 EP2      0.031033
     73 HD26       -6.8190    2.2230    1.8810 hc        1 EP2      0.031033
     74 HA5        -3.6930   -0.7200   -2.5830 h1        1 EP2      0.066700
     75 HB23       -6.0590    0.5920   -3.4760 hc        1 EP2      0.049700
     76 HB33       -5.8560   -1.2050   -3.3970 hc        1 EP2      0.049700
     77 HG2        -7.5360    0.5460   -1.6530 hc        1 EP2      0.036200
     78 HG3        -7.5130   -1.2600   -1.7610 hc        1 EP2      0.036200
     79 HD2        -6.3290   -1.3260    0.2450 h1        1 EP2      0.036700
     80 HD3        -6.2740    0.4960    0.2770 h1        1 EP2      0.036700
     81 C11         0.3220   -2.6340    0.6200 c         1 EP2      0.672100
@<TRIPOS>BOND
     1    1    2 1   
     2    1   41 1   
     3    1   42 1   
     4    1   43 1   
     5    2    5 1   
     6    3    4 1   
     7    3    9 1   
     8    3   44 1   
     9    4    5 1   
    10    4   45 1   
    11    4   46 1   
    12    5    6 2   
    13    7    8 1   
    14    7   13 1   
    15    7   47 1   
    16    8    9 1   
    17    8   48 1   
    18    8   49 1   
    19    9   10 2   
    20   11   12 1   
    21   11   50 1   
    22   11   81 1   
    23   12   13 1   
    24   12   15 1   
    25   12   51 1   
    26   13   14 2   
    27   15   16 1   
    28   15   52 1   
    29   15   53 1   
    30   16   17 1   
    31   16   18 1   
    32   16   54 1   
    33   17   55 1   
    34   17   56 1   
    35   17   57 1   
    36   18   58 1   
    37   18   59 1   
    38   18   60 1   
    39   19   81 2   
    40   20   21 1   
    41   20   22 1   
    42   20   61 1   
    43   20   81 1   
    44   21   22 1   
    45   22   23 1   
    46   22   62 1   
    47   23   24 2   
    48   23   25 1   
    49   25   26 1   
    50   25   63 1   
    51   26   27 1   
    52   26   29 1   
    53   26   64 1   
    54   27   28 2   
    55   27   33 1   
    56   29   30 1   
    57   29   65 1   
    58   29   66 1   
    59   30   31 1   
    60   30   32 1   
    61   30   67 1   
    62   31   68 1   
    63   31   69 1   
    64   31   70 1   
    65   32   71 1   
    66   32   72 1   
    67   32   73 1   
    68   33   34 1   
    69   33   39 1   
    70   34   35 1   
    71   34   37 1   
    72   34   74 1   
    73   35   36 1   
    74   35   40 1   
    75   37   38 1   
    76   37   75 1   
    77   37   76 1   
    78   38   39 1   
    79   38   77 1   
    80   38   78 1   
    81   39   79 1   
    82   39   80 1   
@<TRIPOS>SUBSTRUCTURE
     1 EP2         1 TEMP              0 ****  ****    0 ROOT
