@<TRIPOS>MOLECULE
EP4
   41    43     1     0     0
SMALL
bcc


@<TRIPOS>ATOM
      1 CG         -0.2180   -0.1070   -0.1030 c3        1 EP4      0.080600
      2 N2          1.1870    0.3010   -0.3750 n4        1 EP4     -0.677400
      3 CE          1.7870    0.9240    0.8370 c3        1 EP4      0.080600
      4 C5'         2.0190   -0.8580   -0.8390 c3        1 EP4      0.105800
      5 C4'         1.7790   -1.2160   -2.3060 c3        1 EP4      0.074100
      6 O4'         2.2410   -0.1320   -3.1190 os        1 EP4     -0.448600
      7 C1'         2.7760   -0.6500   -4.3640 c3        1 EP4      0.249800
      8 N9          3.9180    0.1320   -4.7620 na        1 EP4     -0.272000
      9 C4          3.9270    1.0720   -5.8110 ca        1 EP4      0.469800
     10 N3          2.9580    1.4910   -6.6620 nb        1 EP4     -0.621000
     11 C2          3.3800    2.4100   -7.5690 ca        1 EP4      0.691900
     12 N1          4.6290    2.9420   -7.7230 nb        1 EP4     -0.664000
     13 C6          5.5890    2.5160   -6.8670 ca        1 EP4      0.543200
     14 N6          6.9610    3.0410   -7.0050 n4        1 EP4     -0.819300
     15 C5          5.3160    1.5740   -5.8570 ca        1 EP4     -0.143200
     16 N7          6.0790    0.9630   -4.8530 nc        1 EP4     -0.555100
     17 C8          5.2320    0.1290   -4.2290 cd        1 EP4      0.492700
     18 C2'         3.0740   -2.1710   -4.1410 c3        1 EP4      0.081100
     19 O2'         2.2920   -2.8500   -5.0980 oh        1 EP4     -0.581800
     20 C3'         2.5550   -2.4870   -2.7180 c3        1 EP4      0.105100
     21 O3'         1.7430   -3.6240   -2.6590 oh        1 EP4     -0.557800
     22 H1         -0.6610   -0.5700   -1.0250 hx        1 EP4      0.110867
     23 H2         -0.2390   -0.8510    0.7390 hx        1 EP4      0.110867
     24 H3         -0.8160    0.7990    0.1860 hx        1 EP4      0.110867
     25 H5          1.8640    0.1570    1.6540 hx        1 EP4      0.110867
     26 H6          2.8090    1.3180    0.5900 hx        1 EP4      0.110867
     27 H7          1.1320    1.7700    1.1800 hx        1 EP4      0.110867
     28 H8          1.7740   -1.7590   -0.2040 hx        1 EP4      0.119200
     29 H9          3.1030   -0.5850   -0.6910 hx        1 EP4      0.119200
     30 H10         0.6800   -1.3590   -2.5190 h1        1 EP4      0.092700
     31 H11         1.9620   -0.5230   -5.1470 h2        1 EP4      0.151700
     32 H12         2.6110    2.7820   -8.2900 h5        1 EP4      0.114100
     33 H13         7.3120    3.3020   -6.0740 hn        1 EP4      0.485467
     34 H14         7.5590    2.3010   -7.3970 hn        1 EP4      0.485467
     35 H15         5.5100   -0.5190   -3.3830 h5        1 EP4      0.099800
     36 H16         4.1610   -2.4240   -4.2380 h1        1 EP4      0.086700
     37 H17         2.7050   -3.7110   -5.2650 ho        1 EP4      0.452000
     38 H18         3.4050   -2.6990   -2.0120 h1        1 EP4      0.105700
     39 H19         1.1350   -3.6190   -3.4170 ho        1 EP4      0.439000
     40 H21         1.1810    1.0010   -1.1330 hn        1 EP4      0.462800
     41 H63         6.9840    3.8620   -7.6280 hn        1 EP4      0.485467
@<TRIPOS>BOND
     1    1    2 1   
     2    1   22 1   
     3    1   23 1   
     4    1   24 1   
     5    2    3 1   
     6    2    4 1   
     7    2   40 1   
     8    3   25 1   
     9    3   26 1   
    10    3   27 1   
    11    4    5 1   
    12    4   28 1   
    13    4   29 1   
    14    5    6 1   
    15    5   20 1   
    16    5   30 1   
    17    6    7 1   
    18    7    8 1   
    19    7   18 1   
    20    7   31 1   
    21    8    9 1   
    22    8   17 1   
    23    9   10 ar  
    24    9   15 ar  
    25   10   11 ar  
    26   11   12 ar  
    27   11   32 1   
    28   12   13 ar  
    29   13   14 1   
    30   13   15 ar  
    31   14   33 1   
    32   14   34 1   
    33   14   41 1   
    34   15   16 1   
    35   16   17 2   
    36   17   35 1   
    37   18   19 1   
    38   18   20 1   
    39   18   36 1   
    40   19   37 1   
    41   20   21 1   
    42   20   38 1   
    43   21   39 1   
@<TRIPOS>SUBSTRUCTURE
     1 EP4         1 TEMP              0 ****  ****    0 ROOT
