@<TRIPOS>MOLECULE
EP4
   40    42     1     0     0
SMALL
bcc


@<TRIPOS>ATOM
      1 CG          0.3980    0.6020   -0.4820 c3        1 EP4      0.083100
      2 N2          1.7030    0.6450   -1.1890 n4        1 EP4     -0.675400
      3 CE          2.6550    1.5450   -0.4870 c3        1 EP4      0.083100
      4 C5'         2.2860   -0.7280   -1.3490 c3        1 EP4      0.086800
      5 C4'         1.5970   -1.5260   -2.4680 c3        1 EP4      0.069100
      6 O4'         1.5060   -0.7140   -3.6340 os        1 EP4     -0.436600
      7 C1'         2.4040   -1.1870   -4.6700 c3        1 EP4      0.230800
      8 N9          3.5850   -0.3780   -4.7240 na        1 EP4     -0.310000
      9 C4          3.6900    0.8650   -5.3840 ca        1 EP4      0.474800
     10 N3          2.8260    1.4950   -6.2260 nb        1 EP4     -0.743000
     11 C2          3.3210    2.6740   -6.6910 ca        1 EP4      0.706900
     12 N1          4.5020    3.2840   -6.4340 nb        1 EP4     -0.775000
     13 C6          5.3800    2.6580   -5.5720 ca        1 EP4      0.771200
     14 N6          6.5730    3.2340   -5.2410 nh        1 EP4     -0.936500
     15 C5          4.9890    1.4000   -4.9960 ca        1 EP4     -0.258200
     16 N7          5.6280    0.5160   -4.1120 nc        1 EP4     -0.506100
     17 C8          4.7820   -0.5050   -3.9580 cd        1 EP4      0.358700
     18 C2'         2.6750   -2.6890   -4.3370 c3        1 EP4      0.086100
     19 O2'         1.7070   -3.4610   -5.0120 oh        1 EP4     -0.583800
     20 C3'         2.3970   -2.8060   -2.8160 c3        1 EP4      0.131100
     21 O3'         1.6970   -3.9580   -2.4440 oh        1 EP4     -0.565800
     22 H1         -0.3050   -0.0690   -1.0450 hx        1 EP4      0.105367
     23 H2         -0.0310    1.6390   -0.4350 hx        1 EP4      0.105367
     24 H3          0.5440    0.2090    0.5590 hx        1 EP4      0.105367
     25 H5          3.5960    1.6420   -1.0930 hx        1 EP4      0.105367
     26 H6          2.8980    1.1200    0.5230 hx        1 EP4      0.105367
     27 H7          2.1830    2.5570   -0.3660 hx        1 EP4      0.105367
     28 H8          3.3800   -0.6030   -1.6010 hx        1 EP4      0.108200
     29 H9          2.1890   -1.2850   -0.3760 hx        1 EP4      0.108200
     30 H10         0.5400   -1.7890   -2.1830 h1        1 EP4      0.105700
     31 H11         1.8110   -1.0590   -5.6270 h2        1 EP4      0.156700
     32 H12         2.6540    3.2220   -7.3960 h5        1 EP4      0.070100
     33 H13         7.2350    2.6980   -4.7340 hn        1 EP4      0.456300
     34 H14         6.8760    4.0560   -5.7070 hn        1 EP4      0.456300
     35 H15         4.9810   -1.4050   -3.3640 h5        1 EP4      0.067800
     36 H16         3.7180   -3.0100   -4.5880 h1        1 EP4      0.093700
     37 H17         2.1450   -3.9170   -5.7430 ho        1 EP4      0.443000
     38 H18         3.3640   -2.8550   -2.2410 h1        1 EP4      0.089700
     39 H19         1.0180   -4.1460   -3.1120 ho        1 EP4      0.444000
     40 H21         1.5410    1.0140   -2.1440 hn        1 EP4      0.475800
@<TRIPOS>BOND
     1    1    2 1   
     2    1   22 1   
     3    1   23 1   
     4    1   24 1   
     5    2    3 1   
     6    2    4 1   
     7    2   40 1   
     8    3   25 1   
     9    3   26 1   
    10    3   27 1   
    11    4    5 1   
    12    4   28 1   
    13    4   29 1   
    14    5    6 1   
    15    5   20 1   
    16    5   30 1   
    17    6    7 1   
    18    7    8 1   
    19    7   18 1   
    20    7   31 1   
    21    8    9 1   
    22    8   17 1   
    23    9   10 ar  
    24    9   15 ar  
    25   10   11 ar  
    26   11   12 ar  
    27   11   32 1   
    28   12   13 ar  
    29   13   14 1   
    30   13   15 ar  
    31   14   33 1   
    32   14   34 1   
    33   15   16 1   
    34   16   17 2   
    35   17   35 1   
    36   18   19 1   
    37   18   20 1   
    38   18   36 1   
    39   19   37 1   
    40   20   21 1   
    41   20   38 1   
    42   21   39 1   
@<TRIPOS>SUBSTRUCTURE
     1 EP4         1 TEMP              0 ****  ****    0 ROOT
