@<TRIPOS>MOLECULE
EP4
   39    36     1     0     0
SMALL
bcc


@<TRIPOS>ATOM
      1 CG         -3.8750   -0.1180    3.1590 c3        1 EP4      0.163600
      2 N2         -2.4990    0.3330    2.8190 n3        1 EP4     -0.743600
      3 CE         -1.8260    0.7220    3.9940 c3        1 EP4      0.163600
      4 C5'        -1.7850   -0.7410    2.1920 c3        1 EP4      0.166800
      5 C4'        -1.6570   -0.4680    0.7150 c3        1 EP4      0.097100
      6 O4'        -0.6090    0.2740    0.4790 os        1 EP4     -0.392600
      7 C1'        -0.0380   -0.2020   -0.9300 c3        1 EP4      0.425300
      8 N9          1.3200    0.1190   -1.0320 n3        1 EP4     -0.468800
      9 C4          1.8710    0.8580   -2.0440 c1        1 EP4      0.395600
     10 N3          1.3430    1.3770   -3.1860 n1        1 EP4     -0.482800
     11 C2          2.1360    2.1030   -4.0410 c1        1 EP4      0.411300
     12 N1          3.4550    2.3050   -3.7470 n1        1 EP4     -0.594800
     13 C6          3.9800    1.7940   -2.6200 c1        1 EP4      0.298800
     14 N6          5.4110    2.1330   -2.6360 n3        1 EP4     -0.824400
     15 C5          3.1790    1.0570   -1.7510 c1        1 EP4     -0.249000
     16 N7          3.4430    0.4430   -0.5570 n1        1 EP4     -0.482800
     17 C8          2.2930   -0.1350   -0.1180 c1        1 EP4      0.395600
     18 C2'        -0.2030   -1.5350   -0.9740 c3        1 EP4      0.074100
     19 O2'        -0.5000   -1.9690   -2.3630 oh        1 EP4     -0.585800
     20 C3'        -1.3940   -1.8150   -0.0670 c3        1 EP4      0.078100
     21 O3'        -2.4680   -2.1440   -0.7980 oh        1 EP4     -0.588800
     22 H1         -3.8340   -1.0090    3.5760 h1        1 EP4      0.032867
     23 H2         -4.4170   -0.1630    2.3380 h1        1 EP4      0.032867
     24 H3         -4.2900    0.5300    3.7970 h1        1 EP4      0.032867
     25 H5         -1.0120    1.2240    3.7530 h1        1 EP4      0.032867
     26 H6         -1.5760   -0.0780    4.5120 h1        1 EP4      0.032867
     27 H7         -2.4050    1.2820    4.5260 h1        1 EP4      0.032867
     28 H8         -0.8780   -0.8170    2.5950 h1        1 EP4      0.040200
     29 H9         -2.2660   -1.5660    2.3230 h1        1 EP4      0.040200
     30 H10        -2.4600   -0.0340    0.3800 h1        1 EP4      0.095700
     31 H11        -0.5400    0.2230   -1.6580 h2        1 EP4      0.143700
     32 H12         1.7550    2.4770   -4.8620 ha        1 EP4      0.132500
     33 H13         5.7230    2.8550   -2.1430 hn        1 EP4      0.448800
     34 H14         5.9970    1.6380   -3.1520 hn        1 EP4      0.448800
     35 H15         2.1730   -0.5910    0.7290 DU        1 EP4      0.195000
     36 H16         0.5910   -1.9860   -0.6400 h1        1 EP4      0.067700
     37 H17        -0.3050   -2.8370   -2.4530 ho        1 EP4      0.423000
     38 H18        -1.1770   -2.5390    0.5650 h1        1 EP4      0.092700
     39 H19        -2.6560   -3.0020   -0.6780 ho        1 EP4      0.420000
@<TRIPOS>BOND
     1    1    2 1   
     2    1   22 1   
     3    1   23 1   
     4    1   24 1   
     5    2    3 1   
     6    2    4 1   
     7    3   25 1   
     8    3   26 1   
     9    3   27 1   
    10    4    5 1   
    11    4   28 1   
    12    4   29 1   
    13    5    6 1   
    14    5   20 1   
    15    5   30 1   
    16    6    7 1   
    17    7    8 1   
    18    7   18 1   
    19    7   31 1   
    20    8    9 1   
    21    8   17 1   
    22    9   10 3   
    23   11   12 3   
    24   11   32 1   
    25   13   14 1   
    26   13   15 3   
    27   14   33 1   
    28   14   34 1   
    29   16   17 3   
    30   18   19 1   
    31   18   20 1   
    32   18   36 1   
    33   19   37 1   
    34   20   21 1   
    35   20   38 1   
    36   21   39 1   
@<TRIPOS>SUBSTRUCTURE
     1 EP4         1 TEMP              0 ****  ****    0 ROOT
