@<TRIPOS>MOLECULE
EP4
   39    41     1     0     0
SMALL
bcc


@<TRIPOS>ATOM
      1 CG          4.3840   -1.3360   -1.2160 c3        1 EP4      0.151100
      2 N2          3.4670   -1.6030   -0.1320 n3        1 EP4     -0.737600
      3 CE          3.9000   -2.6860    0.7250 c3        1 EP4      0.151100
      4 C5'         3.0900   -0.4290    0.6400 c3        1 EP4      0.152800
      5 C4'         2.7790    0.8320   -0.1770 c3        1 EP4      0.092100
      6 O4'         1.8030    0.5750   -1.1960 os        1 EP4     -0.394600
      7 C1'         0.5240    1.0880   -0.8210 c3        1 EP4      0.225800
      8 N9         -0.3800    0.0150   -0.4760 na        1 EP4     -0.294000
      9 C4         -1.7250    0.1910   -0.1150 ca        1 EP4      0.445800
     10 N3         -2.4580    1.3300    0.0770 nb        1 EP4     -0.759000
     11 C2         -3.7410    1.0670    0.4200 ca        1 EP4      0.687900
     12 N1         -4.3750   -0.1220    0.5950 nb        1 EP4     -0.795000
     13 C6         -3.6390   -1.2720    0.4140 ca        1 EP4      0.761200
     14 N6         -4.1990   -2.5060    0.6100 nh        1 EP4     -0.957500
     15 C5         -2.2590   -1.1560    0.0370 ca        1 EP4     -0.225200
     16 N7         -1.2580   -2.1020   -0.2350 nc        1 EP4     -0.555100
     17 C8         -0.1670   -1.3840   -0.5380 cd        1 EP4      0.431700
     18 C2'         0.7490    2.1140    0.3400 c3        1 EP4      0.081100
     19 O2'         0.5630    3.4200   -0.1590 oh        1 EP4     -0.594800
     20 C3'         2.2320    1.9480    0.7420 c3        1 EP4      0.128100
     21 O3'         2.9890    3.1270    0.6270 oh        1 EP4     -0.575800
     22 H1          5.3250   -0.8160   -0.8860 h1        1 EP4      0.035700
     23 H2          4.6670   -2.3050   -1.7060 h1        1 EP4      0.035700
     24 H3          3.8610   -0.6940   -1.9740 h1        1 EP4      0.035700
     25 H5          4.8590   -2.4650    1.2690 h1        1 EP4      0.035700
     26 H6          3.1010   -2.8940    1.4840 h1        1 EP4      0.035700
     27 H7          4.0470   -3.6030    0.0980 h1        1 EP4      0.035700
     28 H8          2.1660   -0.7160    1.2210 h1        1 EP4      0.042200
     29 H9          3.8930   -0.1390    1.3810 h1        1 EP4      0.042200
     30 H10         3.6910    1.1860   -0.7340 h1        1 EP4      0.091700
     31 H11         0.1260    1.6120   -1.7440 h2        1 EP4      0.102700
     32 H12        -4.3830    1.9600    0.5830 h5        1 EP4      0.050100
     33 H13        -5.1670   -2.5960    0.7980 hn        1 EP4      0.448800
     34 H14        -3.6670   -3.3090    0.3850 hn        1 EP4      0.448800
     35 H15         0.8230   -1.7840   -0.8110 h5        1 EP4      0.105800
     36 H16         0.0760    1.9230    1.2170 h1        1 EP4      0.083700
     37 H17        -0.3910    3.5760   -0.1830 ho        1 EP4      0.434000
     38 H18         2.3170    1.6640    1.8270 h1        1 EP4      0.093700
     39 H19         2.7510    3.5610   -0.2040 ho        1 EP4      0.425000
@<TRIPOS>BOND
     1    1    2 1   
     2    1   22 1   
     3    1   23 1   
     4    1   24 1   
     5    2    3 1   
     6    2    4 1   
     7    3   25 1   
     8    3   26 1   
     9    3   27 1   
    10    4    5 1   
    11    4   28 1   
    12    4   29 1   
    13    5    6 1   
    14    5   20 1   
    15    5   30 1   
    16    6    7 1   
    17    7    8 1   
    18    7   18 1   
    19    7   31 1   
    20    8    9 1   
    21    8   17 1   
    22    9   10 ar  
    23    9   15 ar  
    24   10   11 ar  
    25   11   12 ar  
    26   11   32 1   
    27   12   13 ar  
    28   13   14 1   
    29   13   15 ar  
    30   14   33 1   
    31   14   34 1   
    32   15   16 1   
    33   16   17 2   
    34   17   35 1   
    35   18   19 1   
    36   18   20 1   
    37   18   36 1   
    38   19   37 1   
    39   20   21 1   
    40   20   38 1   
    41   21   39 1   
@<TRIPOS>SUBSTRUCTURE
     1 EP4         1 TEMP              0 ****  ****    0 ROOT
