@<TRIPOS>MOLECULE
EP4
   40    42     1     0     0
SMALL
bcc


@<TRIPOS>ATOM
      1 CG          0.3230    0.6260   -0.5560 c3        1 EP4      0.083100
      2 N2          1.6470    0.6650   -1.2290 nx        1 EP4     -0.675400
      3 CE          2.5770    1.5750   -0.5120 c3        1 EP4      0.083100
      4 C5'         2.2370   -0.7080   -1.3590 c3        1 EP4      0.086800
      5 C4'         1.5800   -1.5200   -2.4870 c3        1 EP4      0.069100
      6 O4'         1.5170   -0.7210   -3.6630 os        1 EP4     -0.436600
      7 C1'         2.4430   -1.2030   -4.6700 c3        1 EP4      0.230800
      8 N9          3.6230   -0.3900   -4.7030 na        1 EP4     -0.310000
      9 C4          3.7410    0.8450   -5.3740 ca        1 EP4      0.474800
     10 N3          2.8980    1.4630   -6.2450 nb        1 EP4     -0.743000
     11 C2          3.4010    2.6380   -6.7100 ca        1 EP4      0.706900
     12 N1          4.5740    3.2550   -6.4300 nb        1 EP4     -0.775000
     13 C6          5.4300    2.6410   -5.5380 ca        1 EP4      0.771200
     14 N6          6.6130    3.2240   -5.1820 nv        1 EP4     -0.936500
     15 C5          5.0280    1.3890   -4.9580 ca        1 EP4     -0.258200
     16 N7          5.6470    0.5170   -4.0480 nc        1 EP4     -0.506100
     17 C8          4.7990   -0.5060   -3.9050 cd        1 EP4      0.358700
     18 C2'         2.7090   -2.7010   -4.3130 c3        1 EP4      0.086100
     19 O2'         1.7620   -3.4830   -5.0050 oh        1 EP4     -0.583800
     20 C3'         2.3930   -2.8010   -2.7990 c3        1 EP4      0.131100
     21 O3'         1.6860   -3.9520   -2.4330 oh        1 EP4     -0.565800
     22 H1          0.4430    0.2440    0.4920 hx        1 EP4      0.105367
     23 H2         -0.1100    1.6620   -0.5320 hx        1 EP4      0.105367
     24 H3         -0.3630   -0.0530   -1.1310 hx        1 EP4      0.105367
     25 H5          2.1000    2.5870   -0.4150 hx        1 EP4      0.105367
     26 H6          3.5340    1.6680   -1.0940 hx        1 EP4      0.105367
     27 H7          2.7940    1.1620    0.5080 hx        1 EP4      0.105367
     28 H8          2.1160   -1.2540   -0.3820 hx        1 EP4      0.108200
     29 H9          3.3370   -0.5820   -1.5830 hx        1 EP4      0.108200
     30 H10         0.5170   -1.7830   -2.2260 h1        1 EP4      0.105700
     31 H11         1.8750   -1.0870   -5.6440 h2        1 EP4      0.156700
     32 H12         2.7520    3.1760   -7.4380 h5        1 EP4      0.070100
     33 H13         6.9260    4.0430   -5.6500 hn        1 EP4      0.456300
     34 H14         7.2630    2.6960   -4.6520 hn        1 EP4      0.456300
     35 H15         4.9860   -1.3980   -3.2950 h5        1 EP4      0.066800
     36 H16         3.7600   -3.0210   -4.5340 h1        1 EP4      0.093700
     37 H17         2.2200   -3.9460   -5.7200 ho        1 EP4      0.443000
     38 H18         3.3440   -2.8410   -2.1990 h1        1 EP4      0.089700
     39 H19         1.0260   -4.1490   -3.1170 ho        1 EP4      0.444000
     40 H21         1.5090    1.0230   -2.1920 hn        1 EP4      0.475800
@<TRIPOS>BOND
     1    1    2 1   
     2    1   22 1   
     3    1   23 1   
     4    1   24 1   
     5    2    3 1   
     6    2    4 1   
     7    2   40 1   
     8    3   25 1   
     9    3   26 1   
    10    3   27 1   
    11    4    5 1   
    12    4   28 1   
    13    4   29 1   
    14    5    6 1   
    15    5   20 1   
    16    5   30 1   
    17    6    7 1   
    18    7    8 1   
    19    7   18 1   
    20    7   31 1   
    21    8    9 1   
    22    8   17 1   
    23    9   10 ar  
    24    9   15 ar  
    25   10   11 ar  
    26   11   12 ar  
    27   11   32 1   
    28   12   13 ar  
    29   13   14 1   
    30   13   15 ar  
    31   14   33 1   
    32   14   34 1   
    33   15   16 1   
    34   16   17 2   
    35   17   35 1   
    36   18   19 1   
    37   18   20 1   
    38   18   36 1   
    39   19   37 1   
    40   20   21 1   
    41   20   38 1   
    42   21   39 1   
@<TRIPOS>SUBSTRUCTURE
     1 EP4         1 TEMP              0 ****  ****    0 ROOT
