@<TRIPOS>MOLECULE
EP6
   84    83     1     0     0
SMALL
bcc


@<TRIPOS>ATOM
      1 C2          2.7320    2.2020    1.7590 c1        1 EP6      0.008000
      2 C4          3.8690    0.2470    2.4690 c2        1 EP6      0.132000
      3 C5          3.0790    0.2410    3.6790 c2        1 EP6     -0.281000
      4 C6          2.0930    1.2920    3.8480 c2        1 EP6      0.284000
      5 C8          4.4000   -1.4930    3.8280 c2        1 EP6     -0.109000
      6 NAV        13.1770   -3.9900    6.9040 na        1 EP6     -0.220000
      7 CBB        12.5390   -5.2340    6.9480 ca        1 EP6     -0.024000
      8 CAK        12.8980   -6.4660    7.5110 ca        1 EP6     -0.113000
      9 CAI        12.0060   -7.5150    7.3650 ca        1 EP6     -0.104000
     10 CAZ        10.7760   -7.3700    6.6830 ca        1 EP6     -0.061000
     11 CBO         9.8740   -8.5510    6.5690 c3        1 EP6     -0.127000
     12 CAD        16.1130   -6.4240    9.2030 c2        1 EP6     -0.224500
     13 CAE        16.8300   -5.3090    9.2460 c2        1 EP6     -0.224500
     14 CAC         9.2430   -8.9130    7.8930 c3        1 EP6     -0.210000
     15 CAM        10.4090   -6.1530    6.1200 ca        1 EP6     -0.107000
     16 CBC        11.2860   -5.0640    6.2390 ca        1 EP6     -0.082000
     17 NAW        11.1900   -3.7370    5.7800 n2        1 EP6     -0.250000
     18 CBA        12.3250   -3.1230    6.1930 c2        1 EP6      0.035000
     19 CAO        11.5830   -0.9430    5.3250 c2        1 EP6     -0.159000
     20 CBG        11.6140   -0.4630    4.0790 c2        1 EP6     -0.166000
     21 CAQ        10.4660    0.2450    3.4570 c3        1 EP6     -0.103000
     22 CAP        10.5990    0.2670    0.9930 c2        1 EP6     -0.219000
     23 CBH        10.1280   -0.3310    2.1020 c2        1 EP6     -0.035000
     24 NBM         9.2390   -1.4550    2.0950 n3        1 EP6     -0.252000
     25 CBF         9.7740   -2.6570    2.6970 c3        1 EP6     -0.126000
     26 CAB         8.3000   -2.1210    5.7650 c3        1 EP6     -0.152000
     27 CAA         8.8520   -3.3080    3.6630 c2        1 EP6      0.162000
     28 CBK         7.3490   -2.6210    0.8900 c3        1 EP6      0.002000
     29 OAX         6.4050   -2.2770    1.9230 os        1 EP6     -0.291000
     30 CBI         6.2520    0.2100   -2.3780 c2        1 EP6     -0.102000
     31 OAG         6.6040   -0.5050   -1.2600 oh        1 EP6     -0.301500
     32 CBJ         5.1320    0.9470   -2.5060 c2        1 EP6     -0.102000
     33 OAH         4.2470    0.9910   -1.4440 oh        1 EP6     -0.301500
     34 CBL         5.6470   -1.1950    1.6030 c1        1 EP6      0.116000
     35 N9          4.7420   -0.8810    2.5620 na        1 EP6     -0.204000
     36 N7          3.4410   -0.8570    4.4880 n2        1 EP6     -0.053000
     37 N3          3.7030    1.2150    1.5250 nu        1 EP6     -0.189000
     38 N1          1.9760    2.2390    2.8530 n2        1 EP6     -0.293000
     39 N6          1.3230    1.3250    4.9660 n8        1 EP6     -0.331000
     40 H1          4.2320    1.2170    0.6780 hn        1 EP6      0.278000
     41 H2          4.9000   -2.4140    4.1430 h5        1 EP6      0.195000
     42 H5         12.2550   -8.5000    7.7950 ha        1 EP6      0.150000
     43 H6          9.0670   -8.3480    5.8160 hc        1 EP6      0.089500
     44 H7         15.3800   -6.6880    9.9770 ha        1 EP6      0.112750
     45 H8         16.2220   -7.1680    8.4020 ha        1 EP6      0.112750
     46 H9         17.5790   -5.0550    8.4840 ha        1 EP6      0.112750
     47 H10        10.4680   -9.4270    6.1880 hc        1 EP6      0.089500
     48 H11        16.7370   -4.5750   10.0590 ha        1 EP6      0.112750
     49 H12         8.6100   -8.0760    8.2730 hc        1 EP6      0.081333
     50 H13        10.0280   -9.1350    8.6560 hc        1 EP6      0.081333
     51 H14         8.6000   -9.8190    7.7730 hc        1 EP6      0.081333
     52 H15         9.4480   -6.0430    5.5990 ha        1 EP6      0.119000
     53 H19         7.3120   -4.9740    5.1260 ha        1 EP6      0.001000
     54 H20         7.0430   -5.4920    5.4720 ha        1 EP6      0.001000
     55 H21        10.6950   -0.8170    5.9680 ha        1 EP6      0.123000
     56 H22        10.7400    1.3290    3.3220 hc        1 EP6      0.109500
     57 H23        12.5100   -0.5620    3.4420 ha        1 EP6      0.140000
     58 H24         9.5650    0.2200    4.1280 hc        1 EP6      0.109500
     59 H25        11.2090    1.1790    1.0590 ha        1 EP6      0.138500
     60 H26        10.4000   -0.0800   -0.0300 ha        1 EP6      0.138500
     61 H28        10.7700   -2.4560    3.2080 h1        1 EP6      0.170500
     62 H29         7.9930   -1.0690    5.5820 hc        1 EP6      0.107500
     63 H30         8.9720   -2.2290    6.6450 hc        1 EP6      0.107500
     64 H31         7.4350   -2.8130    5.8190 hc        1 EP6      0.107500
     65 H32         9.2220   -4.2260    4.1730 ha        1 EP6      0.175000
     66 H33         8.9850   -2.4050    4.8420 hc        1 EP6      0.107500
     67 H34         7.7530   -3.2080    3.5140 ha        1 EP6      0.175000
     68 H37         7.6520   -3.6670    1.1630 h1        1 EP6      0.116500
     69 H38         6.8410   -2.6030   -0.1120 h1        1 EP6      0.116500
     70 H39         5.9180   -0.3870   -0.5790 ho        1 EP6      0.239500
     71 H40         7.0090    0.0970   -3.1670 h4        1 EP6      0.163500
     72 H41         3.5500    1.6210   -1.6750 ho        1 EP6      0.239500
     73 H42         4.8720    1.5090   -3.4120 h4        1 EP6      0.163500
     74 H43         0.6340    2.0300    5.0830 hn        1 EP6      0.252500
     75 H44         1.4120    0.6140    5.6490 hn        1 EP6      0.252500
     76 H3         14.0500   -3.7650    7.3030 hn        1 EP6      0.271000
     77 HBM1        9.9830   -3.4780    1.9280 h1        1 EP6      0.170500
     78 CAR         8.5320   -1.6540    0.8390 c3        1 EP6     -0.106000
     79 CAN        12.7020   -1.6930    5.9460 c3        1 EP6     -0.079000
     80 H4         13.8510   -6.5920    8.0470 ha        1 EP6      0.157000
     81 H17        13.6170   -1.6710    5.2920 hc        1 EP6      0.120500
     82 H18        12.9740   -1.2100    6.9270 hc        1 EP6      0.120500
     83 H35         8.1290   -0.6460    0.5170 h1        1 EP6      0.125500
     84 H36         9.2210   -2.0310    0.0260 h1        1 EP6      0.125500
@<TRIPOS>BOND
     1    1   37 1   
     2    1   38 1   
     3    2    3 1   
     4    2   35 1   
     5    2   37 1   
     6    3    4 1   
     7    3   36 1   
     8    4   38 1   
     9    4   39 1   
    10    5   35 1   
    11    5   36 1   
    12    5   41 1   
    13    6    7 1   
    14    6   18 1   
    15    6   76 1   
    16    7    8 1   
    17    7   16 1   
    18    8    9 1   
    19    8   80 1   
    20    9   10 1   
    21    9   42 1   
    22   10   11 1   
    23   10   15 1   
    24   11   14 1   
    25   11   43 1   
    26   11   47 1   
    27   12   13 1   
    28   12   44 1   
    29   12   45 1   
    30   13   46 1   
    31   13   48 1   
    32   14   49 1   
    33   14   50 1   
    34   14   51 1   
    35   15   16 1   
    36   15   52 1   
    37   16   17 1   
    38   17   18 1   
    39   18   79 1   
    40   19   20 1   
    41   19   55 1   
    42   19   79 1   
    43   20   21 1   
    44   20   57 1   
    45   21   23 1   
    46   21   56 1   
    47   21   58 1   
    48   22   23 1   
    49   22   59 1   
    50   22   60 1   
    51   23   24 1   
    52   24   25 1   
    53   24   78 1   
    54   25   27 1   
    55   25   61 1   
    56   25   77 1   
    57   26   62 1   
    58   26   63 1   
    59   26   64 1   
    60   26   66 1   
    61   27   65 1   
    62   27   67 1   
    63   28   29 1   
    64   28   68 1   
    65   28   69 1   
    66   28   78 1   
    67   29   34 1   
    68   30   31 1   
    69   30   32 1   
    70   30   71 1   
    71   31   70 1   
    72   32   33 1   
    73   32   73 1   
    74   33   72 1   
    75   34   35 1   
    76   37   40 1   
    77   39   74 1   
    78   39   75 1   
    79   53   54 1   
    80   78   83 1   
    81   78   84 1   
    82   79   81 1   
    83   79   82 1   
@<TRIPOS>SUBSTRUCTURE
     1 EP6         1 TEMP              0 ****  ****    0 ROOT
