@<TRIPOS>MOLECULE
EP6
   83    88     1     0     0
SMALL
bcc


@<TRIPOS>ATOM
      1 C2          9.1550    1.1190    0.2350 ca        1 EP6      0.686900
      2 C4          6.9210    0.9380   -0.0890 ca        1 EP6      0.455800
      3 C5          6.7100    2.1740    0.6570 ca        1 EP6     -0.231200
      4 C6          7.8740    2.8300    1.1840 ca        1 EP6      0.761200
      5 C8          4.7410    1.4960    0.0200 cc        1 EP6      0.415700
      6 NAV        -5.1990   -0.6720   -0.4640 na        1 EP6     -0.288300
      7 CBB        -6.3750    0.0580   -0.6470 ca        1 EP6     -0.073200
      8 CAK        -6.9560    0.6750   -1.7580 ca        1 EP6     -0.139000
      9 CAI        -8.1650    1.3310   -1.5740 ca        1 EP6     -0.109000
     10 CAZ        -8.8110    1.3910   -0.3220 ca        1 EP6     -0.088300
     11 CBO       -10.1250    2.1110   -0.1480 c3        1 EP6     -0.005700
     12 CAD       -10.6330    2.7320   -1.4430 c3        1 EP6     -0.086433
     13 CAE       -11.1800    1.1250    0.3490 c3        1 EP6     -0.086433
     14 CAC        -9.9580    3.2290    0.8790 c3        1 EP6     -0.086433
     15 CAM        -8.2390    0.7780    0.7940 ca        1 EP6     -0.070000
     16 CBC        -7.0200    0.1060    0.6530 ca        1 EP6      0.067400
     17 NAW        -6.2300   -0.5890    1.5920 nc        1 EP6     -0.566100
     18 CBA        -5.1600   -1.0380    0.9040 cd        1 EP6      0.418800
     19 CAO        -2.7680   -1.0010    1.5730 c3        1 EP6     -0.069400
     20 CBG        -1.6260   -1.8110    2.1260 cy        1 EP6     -0.084700
     21 CAQ        -0.2940   -1.0400    2.2650 cy        1 EP6     -0.108900
     22 CAP        -0.9600   -2.8040    1.1460 cy        1 EP6     -0.108900
     23 CBH         0.4230   -2.1050    1.3690 cy        1 EP6      0.196500
     24 NBM         1.1630   -1.7170    0.1970 n3        1 EP6     -0.763600
     25 CBF         0.4970   -0.7770   -0.7030 c3        1 EP6      0.202500
     26 CAB         0.9860    0.6720   -0.6510 c3        1 EP6     -0.111600
     27 CAA         0.5580   -1.2400   -2.1630 c3        1 EP6     -0.111600
     28 CBK         3.4550   -1.9420   -0.7730 c3        1 EP6      0.093100
     29 OAX         3.9130   -0.7610   -1.4590 os        1 EP6     -0.417600
     30 CBI         4.6920   -2.7630   -0.3570 c3        1 EP6      0.092100
     31 OAG         4.6790   -4.0590   -0.9080 oh        1 EP6     -0.584800
     32 CBJ         5.9140   -1.9560   -0.8540 c3        1 EP6      0.077100
     33 OAH         6.4680   -2.5790   -1.9980 oh        1 EP6     -0.589800
     34 CBL         5.3300   -0.5980   -1.3470 c3        1 EP6      0.261800
     35 N9          5.6380    0.5160   -0.4730 na        1 EP6     -0.293000
     36 N7          5.3430    2.4820    0.6990 nd        1 EP6     -0.548100
     37 N3          8.1540    0.3880   -0.3090 nb        1 EP6     -0.743000
     38 N1          9.1110    2.2760    0.9470 nb        1 EP6     -0.795000
     39 N6          7.7440    3.9720    1.9300 nh        1 EP6     -0.957500
     40 H1         10.1780    0.7140    0.0740 h5        1 EP6      0.052100
     41 H2          3.6620    1.4120   -0.1670 h5        1 EP6      0.085800
     42 H4         -6.4750    0.6430   -2.7450 ha        1 EP6      0.133000
     43 H5         -8.6210    1.8160   -2.4510 ha        1 EP6      0.134000
     44 H6        -10.8000    1.9470   -2.2190 hc        1 EP6      0.036700
     45 H7        -11.6050    3.2490   -1.2550 hc        1 EP6      0.036700
     46 H8         -9.9060    3.4850   -1.8320 hc        1 EP6      0.036700
     47 H9        -10.8790    0.6880    1.3310 hc        1 EP6      0.036700
     48 H10       -12.1580    1.6470    0.4780 hc        1 EP6      0.036700
     49 H11       -11.3100    0.2960   -0.3860 hc        1 EP6      0.036700
     50 H12        -9.1850    3.9560    0.5350 hc        1 EP6      0.036700
     51 H13       -10.9250    3.7710    1.0120 hc        1 EP6      0.036700
     52 H14        -9.6440    2.8140    1.8660 hc        1 EP6      0.036700
     53 H15        -8.7290    0.8160    1.7780 ha        1 EP6      0.148000
     54 H19        -2.4950   -0.5910    0.5650 hc        1 EP6      0.050200
     55 H20        -2.9570   -0.1240    2.2480 hc        1 EP6      0.050200
     56 H21        -1.9310   -2.3030    3.0810 hc        1 EP6      0.061700
     57 H22        -0.3240   -0.0170    1.8330 hc        1 EP6      0.055450
     58 H23         0.1000   -0.9980    3.3010 hc        1 EP6      0.055450
     59 H24        -0.9670   -3.8590    1.4900 hc        1 EP6      0.055450
     60 H25        -1.3530   -2.7500    0.1080 hc        1 EP6      0.055450
     61 H26         1.0780   -2.7660    2.0000 h1        1 EP6      0.061700
     62 H28        -0.5990   -0.7620   -0.4110 h1        1 EP6      0.046700
     63 H29         1.9900    0.7610   -1.1330 hc        1 EP6      0.041033
     64 H30         0.2690    1.3150   -1.2150 hc        1 EP6      0.041033
     65 H31         1.0490    1.0470    0.3980 hc        1 EP6      0.041033
     66 H32         0.2460   -2.3070   -2.2590 hc        1 EP6      0.041033
     67 H33        -0.1350   -0.6070   -2.7670 hc        1 EP6      0.041033
     68 H34         1.5900   -1.1270   -2.5730 hc        1 EP6      0.041033
     69 H37         2.8570   -2.5110   -1.5400 h1        1 EP6      0.100700
     70 H38         4.7400   -2.9300    0.7530 h1        1 EP6      0.095700
     71 H39         4.7050   -3.9690   -1.8730 ho        1 EP6      0.419000
     72 H40         6.6830   -1.8410   -0.0490 h1        1 EP6      0.090700
     73 H41         7.0470   -3.2830   -1.6770 ho        1 EP6      0.424000
     74 H42         5.6980   -0.3570   -2.3910 h2        1 EP6      0.115700
     75 H43         6.8510    4.3940    1.9980 hn        1 EP6      0.448300
     76 H44         8.5450    4.4700    2.2290 hn        1 EP6      0.448300
     77 CAR         2.5800   -1.5180    0.4240 c3        1 EP6      0.190800
     78 CAN        -4.0290   -1.8380    1.4650 c3        1 EP6     -0.097700
     79 H3         -4.5260   -0.8850   -1.1470 hn        1 EP6      0.302700
     80 H17        -4.3170   -2.2220    2.4810 hc        1 EP6      0.070200
     81 H18        -3.8390   -2.7290    0.8080 hc        1 EP6      0.070200
     82 H35         2.8250   -0.4420    0.6670 h1        1 EP6      0.042700
     83 H36         2.8920   -2.1360    1.3140 h1        1 EP6      0.042700
@<TRIPOS>BOND
     1    1   37 ar  
     2    1   38 ar  
     3    1   40 1   
     4    2    3 ar  
     5    2   35 1   
     6    2   37 ar  
     7    3    4 ar  
     8    3   36 1   
     9    4   38 ar  
    10    4   39 1   
    11    5   35 1   
    12    5   36 2   
    13    5   41 1   
    14    6    7 1   
    15    6   18 1   
    16    6   79 1   
    17    7    8 ar  
    18    7   16 ar  
    19    8    9 ar  
    20    8   42 1   
    21    9   10 ar  
    22    9   43 1   
    23   10   11 1   
    24   10   15 ar  
    25   11   12 1   
    26   11   13 1   
    27   11   14 1   
    28   12   44 1   
    29   12   45 1   
    30   12   46 1   
    31   13   47 1   
    32   13   48 1   
    33   13   49 1   
    34   14   50 1   
    35   14   51 1   
    36   14   52 1   
    37   15   16 ar  
    38   15   53 1   
    39   16   17 1   
    40   17   18 2   
    41   18   78 1   
    42   19   20 1   
    43   19   54 1   
    44   19   55 1   
    45   19   78 1   
    46   20   21 1   
    47   20   22 1   
    48   20   56 1   
    49   21   23 1   
    50   21   57 1   
    51   21   58 1   
    52   22   23 1   
    53   22   59 1   
    54   22   60 1   
    55   23   24 1   
    56   23   61 1   
    57   24   25 1   
    58   24   77 1   
    59   25   26 1   
    60   25   27 1   
    61   25   62 1   
    62   26   63 1   
    63   26   64 1   
    64   26   65 1   
    65   27   66 1   
    66   27   67 1   
    67   27   68 1   
    68   28   29 1   
    69   28   30 1   
    70   28   69 1   
    71   28   77 1   
    72   29   34 1   
    73   30   31 1   
    74   30   32 1   
    75   30   70 1   
    76   31   71 1   
    77   32   33 1   
    78   32   34 1   
    79   32   72 1   
    80   33   73 1   
    81   34   35 1   
    82   34   74 1   
    83   39   75 1   
    84   39   76 1   
    85   77   82 1   
    86   77   83 1   
    87   78   80 1   
    88   78   81 1   
@<TRIPOS>SUBSTRUCTURE
     1 EP6         1 TEMP              0 ****  ****    0 ROOT
