@<TRIPOS>MOLECULE
EP6
   83    76     1     0     0
SMALL
bcc


@<TRIPOS>ATOM
      1 C2          0.7650   -6.7350   -2.5090 c1        1 EP6      0.027000
      2 C4          0.8080   -5.1720   -4.2880 c1        1 EP6      0.085000
      3 C5          0.0060   -5.9800   -5.0150 c1        1 EP6     -0.247000
      4 C6         -0.4270   -7.1880   -4.4830 c1        1 EP6      0.243000
      5 C8          0.5470   -4.2580   -6.2730 c1        1 EP6     -0.056000
      6 NAV        -1.9320   -0.5780    4.4930 n2        1 EP6     -0.244000
      7 CBB        -1.7290    0.3350    5.4830 c1        1 EP6     -0.029000
      8 CAK        -2.5920    0.7530    6.5220 c1        1 EP6     -0.138000
      9 CAI        -2.3580    1.9530    7.1790 c1        1 EP6     -0.109000
     10 CAZ        -1.2730    2.7460    6.8150 c1        1 EP6     -0.081000
     11 CBO        -1.6900    4.1940    6.4620 c3        1 EP6     -0.013000
     12 CAD        -1.0230    4.6130    5.1430 c3        1 EP6     -0.204333
     13 CAE        -3.2160    4.2640    6.3080 c3        1 EP6     -0.204333
     14 CAC        -1.2450    5.1430    7.5840 c3        1 EP6     -0.204333
     15 CAM        -0.4250    2.3360    5.7940 c1        1 EP6     -0.071000
     16 CBC        -0.6630    1.1140    5.1260 c1        1 EP6     -0.072000
     17 NAW        -0.2130    0.6800    3.9170 n1        1 EP6     -0.143000
     18 CBA        -0.9970   -0.3660    3.5250 c1        1 EP6      0.020000
     19 CAN        -0.8700    0.7070    2.4270 c2        1 EP6     -0.103000
     20 CAO        -1.2850    0.1090    1.0760 c3        1 EP6     -0.146000
     21 CBG        -0.7080    0.9230   -0.0230 cy        1 EP6     -0.125000
     22 CAQ        -0.6730    0.2020   -1.3150 cy        1 EP6     -0.181500
     23 CAP         0.7820    0.9520    0.0010 cy        1 EP6     -0.181500
     24 CBH         0.8170    0.2080   -1.2780 cy        1 EP6     -0.011000
     25 NBM         1.3880    0.9510   -2.3290 n3        1 EP6     -0.277000
     26 CBF         0.7830    2.2940   -2.3740 c3        1 EP6      0.008000
     27 CAB        -0.2080    2.4420   -1.2420 c3        1 EP6     -0.232000
     28 CAA         1.8860    3.3580   -2.2320 c3        1 EP6     -0.232000
     29 CAR         1.1520    0.2730   -3.5830 c3        1 EP6     -0.058000
     30 CBK         2.0520   -0.9870   -3.6680 c3        1 EP6     -0.053000
     31 OAX         1.3250   -2.0630   -3.6490 os        1 EP6     -0.266000
     32 CBI         2.7920   -1.0260   -5.0200 c3        1 EP6     -0.028000
     33 OAG         4.1090   -0.7960   -4.8390 oh        1 EP6     -0.315000
     34 CBJ         2.5670   -2.4560   -5.5750 c3        1 EP6     -0.038000
     35 OAH         3.8650   -3.0520   -6.0090 oh        1 EP6     -0.313000
     36 CBL         2.0760   -3.1260   -4.5850 c3        1 EP6      0.159000
     37 N9          1.1450   -4.1040   -5.0650 n2        1 EP6     -0.202000
     38 N7         -0.1570   -5.4140   -6.2470 n1        1 EP6     -0.109000
     39 N3          1.1920   -5.5450   -3.0310 n1        1 EP6     -0.208000
     40 N1         -0.0470   -7.5520   -3.2440 n2        1 EP6     -0.269000
     41 N6         -1.1020   -8.3510   -4.9680 n2        1 EP6     -0.357000
     42 H1          1.0410   -7.0020   -1.6050 ha        1 EP6      0.190000
     43 H2          0.6110   -3.6380   -7.0320 DU        1 EP6      0.226000
     44 H3         -2.5860   -1.2230    4.4790 DU        1 EP6      0.226000
     45 H4         -3.3580    0.1950    6.7790 ha        1 EP6      0.133000
     46 H5         -2.9240    2.2150    7.9390 ha        1 EP6      0.134000
     47 H6         -0.0990    4.9000    5.3190 hc        1 EP6      0.075667
     48 H7         -1.5260    5.3570    4.7430 hc        1 EP6      0.075667
     49 H8         -1.0160    3.8510    4.5230 hc        1 EP6      0.075667
     50 H9         -3.4720    5.1530    5.9730 hc        1 EP6      0.075667
     51 H10        -3.6420    4.1080    7.1810 hc        1 EP6      0.075667
     52 H11        -3.5130    3.5770    5.6730 hc        1 EP6      0.075667
     53 H12        -1.4580    6.0710    7.3330 hc        1 EP6      0.075667
     54 H13        -1.7170    4.9110    8.4160 hc        1 EP6      0.075667
     55 H14        -0.2770    5.0550    7.7220 hc        1 EP6      0.075667
     56 H15         0.3400    2.8950    5.5380 ha        1 EP6      0.147000
     57 H17        -1.4550    1.4670    2.6430 ha        1 EP6      0.110000
     58 H18         0.0630    1.0150    2.3770 ha        1 EP6      0.110000
     59 H19        -2.2670    0.1100    1.0040 hc        1 EP6      0.084000
     60 H20        -0.9530   -0.8140    1.0090 hc        1 EP6      0.084000
     61 H21        -1.1050    1.8210   -0.0990 hc        1 EP6      0.110000
     62 H22        -1.0360    0.7320   -2.0560 hc        1 EP6      0.094500
     63 H23        -1.0530   -0.7080   -1.2560 hc        1 EP6      0.094500
     64 H24         1.1460    1.8610   -0.0780 hc        1 EP6      0.094500
     65 H25         1.1620    0.4380    0.7520 hc        1 EP6      0.094500
     66 H26         1.1990   -0.6960   -1.1820 h1        1 EP6      0.109000
     67 H28         0.3190    2.4150   -3.2340 h1        1 EP6      0.081000
     68 H29        -0.2110    1.6400   -0.7120 hc        1 EP6      0.081167
     69 H30         0.0500    3.2080   -0.6770 hc        1 EP6      0.081167
     70 H31        -1.1110    2.5950   -1.6120 hc        1 EP6      0.081167
     71 H32         1.9290    3.8990   -3.0540 hc        1 EP6      0.081167
     72 H33         1.6830    3.9410   -1.4680 hc        1 EP6      0.081167
     73 H34         2.7520    2.9150   -2.0860 hc        1 EP6      0.081167
     74 H35         0.2070    0.0050   -3.6370 h1        1 EP6      0.097500
     75 H36         1.3640    0.8780   -4.3280 h1        1 EP6      0.097500
     76 H37         2.6960   -0.9990   -2.9260 h1        1 EP6      0.134000
     77 H38         2.4110   -0.3590   -5.6350 h1        1 EP6      0.134000
     78 H39         4.4330   -1.3750   -4.2470 ho        1 EP6      0.219000
     79 H40         1.9300   -2.4370   -6.3240 h1        1 EP6      0.110000
     80 H41         4.0620   -2.7690   -6.8340 ho        1 EP6      0.223000
     81 H42         2.7980   -3.5640   -4.0830 h2        1 EP6      0.183000
     82 H43        -0.6240   -9.0320   -5.3530 hn        1 EP6      0.244500
     83 H44        -2.0150   -8.4150   -4.9000 hn        1 EP6      0.244500
@<TRIPOS>BOND
     1    1   40 1   
     2    1   42 1   
     3    2   39 1   
     4    3    4 1   
     5    4   40 1   
     6    5   37 1   
     7    5   38 1   
     8    6    7 1   
     9    6   18 1   
    10    7    8 1   
    11    8   45 1   
    12    9   10 1   
    13    9   46 1   
    14   10   11 1   
    15   11   12 1   
    16   11   13 1   
    17   11   14 1   
    18   12   47 1   
    19   12   48 1   
    20   12   49 1   
    21   13   50 1   
    22   13   51 1   
    23   13   52 1   
    24   14   53 1   
    25   14   54 1   
    26   14   55 1   
    27   15   16 1   
    28   15   56 1   
    29   17   18 1   
    30   19   20 1   
    31   19   57 1   
    32   19   58 1   
    33   20   21 1   
    34   20   59 1   
    35   20   60 1   
    36   21   22 1   
    37   21   23 1   
    38   21   61 1   
    39   22   24 1   
    40   22   62 1   
    41   22   63 1   
    42   23   24 1   
    43   23   64 1   
    44   23   65 1   
    45   24   25 1   
    46   24   66 1   
    47   25   26 1   
    48   25   29 1   
    49   26   27 1   
    50   26   28 1   
    51   26   67 1   
    52   27   68 1   
    53   27   69 1   
    54   27   70 1   
    55   28   71 1   
    56   28   72 1   
    57   28   73 1   
    58   29   30 1   
    59   29   74 1   
    60   29   75 1   
    61   30   31 1   
    62   30   32 1   
    63   30   76 1   
    64   31   36 1   
    65   32   33 1   
    66   32   34 1   
    67   32   77 1   
    68   33   78 1   
    69   34   35 1   
    70   34   36 1   
    71   34   79 1   
    72   35   80 1   
    73   36   37 1   
    74   36   81 1   
    75   41   82 1   
    76   41   83 1   
@<TRIPOS>SUBSTRUCTURE
     1 EP6         1 TEMP              0 ****  ****    0 ROOT
