@<TRIPOS>MOLECULE
EP6
   85    84     1     0     0
SMALL
bcc


@<TRIPOS>ATOM
      1 C2          1.0540   -1.2190   -3.2310 c1        1 EP6      0.167000
      2 C4          1.2470   -0.9570   -0.8560 c2        1 EP6      0.189000
      3 C5         -0.2760   -0.5700   -0.7980 c3        1 EP6     -0.123000
      4 C6         -1.0000   -1.1220   -2.0400 c2        1 EP6      0.267000
      5 C8          0.3720   -1.2990    1.2180 c2        1 EP6      0.036000
      6 NAV        13.2530   -4.4110    3.9540 na        1 EP6     -0.159000
      7 CBB        14.4710   -4.7520    4.5790 ca        1 EP6     -0.035000
      8 CAK        15.1390   -5.9680    4.7650 ca        1 EP6     -0.100000
      9 CAI        16.3530   -5.9330    5.4350 ca        1 EP6     -0.107000
     10 CAZ        16.9120   -4.7290    5.9240 ca        1 EP6     -0.015000
     11 CBO        18.2220   -4.7790    6.6340 c3        1 EP6     -0.139000
     12 CAD        18.2610   -8.4940    5.7740 c1        1 EP6     -0.055000
     13 CAE        17.6370   -3.6600    8.8150 c3        1 EP6     -0.216000
     14 CAC        18.0640   -4.9360    8.1370 c3        1 EP6     -0.157000
     15 CAM        16.2640   -3.5060    5.7450 ca        1 EP6     -0.104000
     16 CBC        15.0400   -3.5180    5.0710 ca        1 EP6     -0.029000
     17 NAW        14.1410   -2.4890    4.7180 na        1 EP6     -0.150000
     18 CBA        13.0720   -3.0470    4.0520 c2        1 EP6      0.155000
     19 CAO        10.7080   -3.0800    3.2770 c2        1 EP6     -0.228000
     20 CBG         9.5270   -2.7610    3.8200 c2        1 EP6     -0.103000
     21 CAQ         6.3470   -2.6680    4.8300 c2        1 EP6     -0.247000
     22 CAP         8.3020   -3.5750    3.6150 c3        1 EP6     -0.125000
     23 CBH         7.0430   -2.7410    3.6780 c2        1 EP6      0.001000
     24 NBM         6.7060   -2.0460    2.5020 n3        1 EP6     -0.267000
     25 CBF         1.2320   -3.1360    5.9560 c3        1 EP6     -0.162000
     26 CAB         2.4570   -2.4560    6.5110 c3        1 EP6     -0.214500
     27 CAA         0.7890   -2.5160    4.6560 c3        1 EP6     -0.214500
     28 CBK         4.2760   -2.2420    2.6110 c2        1 EP6     -0.166000
     29 OAX         3.0160   -1.8800    2.1020 os        1 EP6     -0.162000
     30 CBI        12.2210    0.6490    6.4750 c2        1 EP6      0.184000
     31 OAG        12.8960    0.0120    5.6600 o         1 EP6     -0.359000
     32 CBJ        10.7510    0.8940    6.2720 c3        1 EP6     -0.097000
     33 OAH        10.2700    0.2770    5.0950 oh        1 EP6     -0.325000
     34 CBL         2.9230   -1.5820    0.8090 c1        1 EP6      0.136000
     35 N9          1.6070   -1.2850    0.4530 n3        1 EP6     -0.251000
     36 N7         -0.7030   -0.9640    0.5470 n2        1 EP6     -0.149000
     37 N3          1.8650   -1.0300   -2.0300 n3        1 EP6     -0.180000
     38 N1         -0.2550   -1.2880   -3.1830 n2        1 EP6     -0.326000
     39 N6         -2.3130   -1.3370   -1.9830 n3        1 EP6     -0.227000
     40 H1          2.8510   -1.2110   -2.1100 hn        1 EP6      0.295000
     41 H2          0.4060   -1.5940    2.2890 h5        1 EP6      0.260000
     42 H5         16.9230   -6.8860    5.5880 ha        1 EP6      0.224000
     43 H6         18.8140   -5.6510    6.2410 hc        1 EP6      0.106500
     44 H7         19.3120   -8.3620    6.0630 ha        1 EP6      0.039000
     45 H8         17.9990   -9.5480    5.6060 ha        1 EP6      0.039000
     46 H9         17.5160   -3.8300    9.9120 hc        1 EP6      0.076667
     47 H10        18.8080   -3.8460    6.4160 hc        1 EP6      0.106500
     48 H11        18.4000   -2.8580    8.6660 hc        1 EP6      0.076667
     49 H12        19.0510   -5.2650    8.5600 hc        1 EP6      0.093500
     50 H13        16.6630   -3.2990    8.4040 hc        1 EP6      0.076667
     51 H14        17.3220   -5.7490    8.3530 hc        1 EP6      0.093500
     52 H15        16.7010   -2.5670    6.1190 ha        1 EP6      0.168000
     53 H19        15.7410   -0.3330    5.9720 ha        1 EP6      0.002000
     54 H20        15.2740    0.1580    5.9600 ha        1 EP6      0.002000
     55 H21        10.8130   -3.9410    2.5960 ha        1 EP6      0.127000
     56 H22         6.6690   -3.2260    5.7190 ha        1 EP6      0.137500
     57 H23         9.4160   -1.8770    4.4770 ha        1 EP6      0.163000
     58 H24         8.3520   -4.1400    2.6440 hc        1 EP6      0.117000
     59 H25         5.4460   -2.0570    4.9630 ha        1 EP6      0.137500
     60 H26         8.2540   -4.3460    4.4360 hc        1 EP6      0.117000
     61 H28         1.4460   -4.2270    5.7970 hc        1 EP6      0.090500
     62 H29         3.3090   -2.5280    5.7900 hc        1 EP6      0.068833
     63 H30         0.3970   -3.0710    6.7040 hc        1 EP6      0.090500
     64 H31         2.7660   -2.9370    7.4710 hc        1 EP6      0.068833
     65 H32         2.2540   -1.3760    6.7070 hc        1 EP6      0.068833
     66 H33         0.5120   -1.4450    4.8080 hc        1 EP6      0.068833
     67 H34        -0.0990   -3.0590    4.2500 hc        1 EP6      0.068833
     68 H37         4.1070   -2.8410    3.5150 h4        1 EP6      0.204000
     69 H38         5.3990   -1.2310    1.0970 h4        1 EP6      0.163000
     70 H39        14.2360   -1.5220    4.9570 hn        1 EP6      0.322000
     71 H40        10.1680    0.4180    7.1100 h1        1 EP6      0.134000
     72 H41        10.6680    0.7410    4.3470 ho        1 EP6      0.210000
     73 H42        10.5500    2.0000    6.2620 h1        1 EP6      0.134000
     74 H43        -0.3530    0.5660   -0.8750 h1        1 EP6      0.216000
     75 H44        -2.8200   -1.2120   -1.1290 hn        1 EP6      0.288500
     76 H3         12.6190   -5.0450    3.5290 hn        1 EP6      0.295000
     77 HBM1        1.6150   -2.5640    3.9020 hc        1 EP6      0.068833
     78 H63        -2.8250   -1.6240   -2.7980 hn        1 EP6      0.288500
     79 CAR         5.4330   -1.8230    2.0390 c2        1 EP6      0.013000
     80 CAN        11.9270   -2.2620    3.4890 c3        1 EP6     -0.102000
     81 H4         14.7210   -6.9140    4.3910 ha        1 EP6      0.164000
     82 H17        12.2690   -1.8340    2.5010 hc        1 EP6      0.152500
     83 H18        11.7130   -1.3910    4.1810 hc        1 EP6      0.152500
     84 H35        12.6650    1.0740    7.4030 h4        1 EP6      0.127000
     85 H36         7.4470   -1.8980    1.8530 hn        1 EP6      0.243000
@<TRIPOS>BOND
     1    1   37 1   
     2    1   38 1   
     3    2    3 1   
     4    2   35 1   
     5    2   37 1   
     6    3    4 1   
     7    3   36 1   
     8    3   74 1   
     9    4   38 1   
    10    4   39 1   
    11    5   35 1   
    12    5   36 1   
    13    5   41 1   
    14    6    7 1   
    15    6   18 1   
    16    6   76 1   
    17    7    8 1   
    18    7   16 1   
    19    8    9 1   
    20    8   81 1   
    21    9   10 1   
    22    9   42 1   
    23   10   11 1   
    24   10   15 1   
    25   11   14 1   
    26   11   43 1   
    27   11   47 1   
    28   12   44 1   
    29   12   45 1   
    30   13   14 1   
    31   13   46 1   
    32   13   48 1   
    33   13   50 1   
    34   14   49 1   
    35   14   51 1   
    36   15   16 1   
    37   15   52 1   
    38   16   17 1   
    39   17   18 1   
    40   17   70 1   
    41   18   80 1   
    42   19   20 1   
    43   19   55 1   
    44   19   80 1   
    45   20   22 1   
    46   20   57 1   
    47   21   23 1   
    48   21   56 1   
    49   21   59 1   
    50   22   23 1   
    51   22   58 1   
    52   22   60 1   
    53   23   24 1   
    54   24   79 1   
    55   24   85 1   
    56   25   26 1   
    57   25   27 1   
    58   25   61 1   
    59   25   63 1   
    60   26   62 1   
    61   26   64 1   
    62   26   65 1   
    63   27   66 1   
    64   27   67 1   
    65   27   77 1   
    66   28   29 1   
    67   28   68 1   
    68   28   79 1   
    69   29   34 1   
    70   30   31 1   
    71   30   32 1   
    72   30   84 1   
    73   32   33 1   
    74   32   71 1   
    75   32   73 1   
    76   33   72 1   
    77   34   35 1   
    78   37   40 1   
    79   39   75 1   
    80   39   78 1   
    81   53   54 1   
    82   69   79 1   
    83   80   82 1   
    84   80   83 1   
@<TRIPOS>SUBSTRUCTURE
     1 EP6         1 TEMP              0 ****  ****    0 ROOT
