@<TRIPOS>MOLECULE
EPA
   51    50     1     0     0
SMALL
bcc


@<TRIPOS>ATOM
      1 C1         -7.0970    2.4260    0.9610 c         1 EPA      0.909600
      2 OA         -8.0990    3.0780    1.3770 o         1 EPA     -0.850300
      3 OB         -6.7100    1.3350    1.4680 o         1 EPA     -0.850300
      4 C2         -6.2990    3.0150   -0.2160 c3        1 EPA     -0.196400
      5 C3         -5.9700    1.9520   -1.2350 c3        1 EPA     -0.065400
      6 C4         -5.0100    2.4620   -2.2920 c3        1 EPA     -0.059200
      7 C5         -4.6680    1.4250   -3.2950 c2        1 EPA     -0.132200
      8 C6         -3.8510    1.6060   -4.3380 c2        1 EPA     -0.214200
      9 C7         -3.1500    2.8780   -4.6420 c3        1 EPA     -0.015000
     10 C8         -2.9740    3.0860   -6.1010 c2        1 EPA     -0.159200
     11 C9         -3.3390    4.1800   -6.7770 c2        1 EPA     -0.177200
     12 C10        -4.0080    5.3550   -6.1680 c3        1 EPA     -0.021000
     13 C11        -4.3710    6.4090   -7.1460 c2        1 EPA     -0.172200
     14 C12        -5.2380    7.3930   -6.8830 c2        1 EPA     -0.171200
     15 C13        -5.9510    7.5280   -5.5900 c3        1 EPA     -0.021000
     16 C14        -6.7410    8.7760   -5.4660 c2        1 EPA     -0.186200
     17 C15        -7.5210    9.0490   -4.4130 c2        1 EPA     -0.159200
     18 C16        -7.6890    8.1330   -3.2600 c3        1 EPA     -0.017000
     19 C17        -8.5120    8.6950   -2.1630 c2        1 EPA     -0.208200
     20 C18        -8.8380    8.0080   -1.0620 c2        1 EPA     -0.146200
     21 C19        -8.4310    6.6070   -0.7990 c3        1 EPA     -0.052200
     22 C20        -8.8700    6.1150    0.5560 c3        1 EPA     -0.122100
     23 H21        -5.3560    3.4540    0.1980 hc        1 EPA      0.019700
     24 H22        -6.8860    3.8440   -0.6850 hc        1 EPA      0.019700
     25 H31        -6.9140    1.5990   -1.7260 hc        1 EPA      0.047700
     26 H32        -5.5240    1.0700   -0.7020 hc        1 EPA      0.047700
     27 H41        -5.4660    3.3500   -2.8120 hc        1 EPA      0.038700
     28 H42        -4.0690    2.8250   -1.7970 hc        1 EPA      0.038700
     29 H51        -5.1380    0.4400   -3.1320 ha        1 EPA      0.123000
     30 H61        -3.6500    0.7800   -5.0380 ha        1 EPA      0.108000
     31 H71        -2.1290    2.8500   -4.1630 hc        1 EPA      0.051700
     32 H72        -3.7000    3.7430   -4.1780 hc        1 EPA      0.051700
     33 H81        -2.4970    2.2450   -6.6320 ha        1 EPA      0.112000
     34 H91        -3.1520    4.2420   -7.8610 ha        1 EPA      0.112000
     35 H101       -3.3330    5.8090   -5.3860 hc        1 EPA      0.061700
     36 H102       -4.9360    5.0140   -5.6240 hc        1 EPA      0.061700
     37 H111       -3.8750    6.3530   -8.1290 ha        1 EPA      0.116000
     38 H121       -5.4630    8.1550   -7.6470 ha        1 EPA      0.116000
     39 H131       -6.6360    6.6410   -5.4530 hc        1 EPA      0.061200
     40 H132       -5.2050    7.4790   -4.7450 hc        1 EPA      0.061200
     41 H141       -6.6570    9.4940   -6.2970 ha        1 EPA      0.114000
     42 H151       -8.0850    9.9950   -4.3720 ha        1 EPA      0.117000
     43 H161       -8.1550    7.1690   -3.6190 hc        1 EPA      0.059700
     44 H162       -6.6740    7.8520   -2.8540 hc        1 EPA      0.059700
     45 H171       -8.8520    9.7350   -2.2920 ha        1 EPA      0.108000
     46 H181       -9.4510    8.4820   -0.2770 ha        1 EPA      0.116000
     47 H191       -8.8630    5.9410   -1.5970 hc        1 EPA      0.048200
     48 H192       -7.3130    6.5200   -0.8840 hc        1 EPA      0.048200
     49 H201       -9.9820    6.1460    0.6460 hc        1 EPA      0.055700
     50 H202       -8.5300    5.0520    0.7180 hc        1 EPA      0.055700
     51 H203       -8.4350    6.7500    1.3650 hc        1 EPA      0.055700
@<TRIPOS>BOND
     1    1    2 1   
     2    1    3 1   
     3    1    4 1   
     4    4    5 1   
     5    4   23 1   
     6    4   24 1   
     7    5    6 1   
     8    5   25 1   
     9    5   26 1   
    10    6    7 1   
    11    6   27 1   
    12    6   28 1   
    13    7    8 2   
    14    7   29 1   
    15    8    9 1   
    16    8   30 1   
    17    9   10 1   
    18    9   31 1   
    19    9   32 1   
    20   10   11 2   
    21   10   33 1   
    22   11   12 1   
    23   11   34 1   
    24   12   13 1   
    25   12   35 1   
    26   12   36 1   
    27   13   14 2   
    28   13   37 1   
    29   14   15 1   
    30   14   38 1   
    31   15   16 1   
    32   15   39 1   
    33   15   40 1   
    34   16   17 2   
    35   16   41 1   
    36   17   18 1   
    37   17   42 1   
    38   18   19 1   
    39   18   43 1   
    40   18   44 1   
    41   19   20 2   
    42   19   45 1   
    43   20   21 1   
    44   20   46 1   
    45   21   22 1   
    46   21   47 1   
    47   21   48 1   
    48   22   49 1   
    49   22   50 1   
    50   22   51 1   
@<TRIPOS>SUBSTRUCTURE
     1 EPA         1 TEMP              0 ****  ****    0 ROOT
