@<TRIPOS>MOLECULE
EPA
   51    44     1     0     0
SMALL
bcc


@<TRIPOS>ATOM
      1 C1          7.5070   -3.3700    7.3410 c1        1 EPA      0.328000
      2 OA          7.3780   -3.4060    8.5930 os        1 EPA     -0.589000
      3 OB          8.6550   -3.3990    6.8250 o         1 EPA     -0.584000
      4 C2          6.2810   -3.2980    6.4570 c3        1 EPA     -0.224000
      5 C3          5.9180   -1.8500    6.2140 c3        1 EPA     -0.143000
      6 C4          4.6650   -1.7790    5.3700 c3        1 EPA     -0.143000
      7 C5          4.2970   -0.3300    5.1340 c2        1 EPA     -0.127000
      8 C6          3.2890   -0.0190    4.2970 c1        1 EPA     -0.217000
      9 C7          2.5240   -1.1170    3.5930 c2        1 EPA     -0.102250
     10 C8          1.2010   -0.5740    3.0980 c2        1 EPA     -0.150000
     11 C9          0.7970   -0.8290    1.8380 c1        1 EPA     -0.178000
     12 C10        -0.5250   -0.2850    1.3430 c2        1 EPA     -0.102250
     13 C11        -0.5360   -0.2850   -0.1700 c2        1 EPA     -0.150000
     14 C12        -1.6410    0.1040   -0.8360 c1        1 EPA     -0.178000
     15 C13        -1.6510    0.1040   -2.3490 c2        1 EPA     -0.102250
     16 C14        -3.0220    0.5100   -2.8440 c2        1 EPA     -0.150000
     17 C15        -3.1810    0.9430   -4.1100 c1        1 EPA     -0.178000
     18 C16        -4.5520    1.3490   -4.6040 c2        1 EPA     -0.102250
     19 C17        -4.4340    1.9320   -5.9950 c2        1 EPA     -0.150000
     20 C18        -5.5360    2.3620   -6.6410 c1        1 EPA     -0.178000
     21 C19        -5.4180    2.9450   -8.0320 c2        1 EPA     -0.131000
     22 C20        -6.7340    3.5810   -8.4250 c3        1 EPA     -0.207000
     23 H21         5.5350   -3.7520    6.8970 hc        1 EPA      0.058500
     24 H22         6.4700   -3.7350    5.6030 hc        1 EPA      0.058500
     25 H31         5.7600   -1.4050    7.0710 hc        1 EPA      0.086000
     26 H32         6.6520   -1.4040    5.7460 hc        1 EPA      0.086000
     27 H41         4.8250   -2.2190    4.5110 hc        1 EPA      0.078500
     28 H42         3.9320   -2.2290    5.8360 hc        1 EPA      0.078500
     29 H51         4.7910    0.3790    5.5890 ha        1 EPA      0.124000
     30 H61         3.0520    0.9160    4.1450 ha        1 EPA      0.110000
     31 H71         2.3610   -1.8530    4.2170 ha        1 EPA      0.091000
     32 H72         3.0470   -1.4440    2.8330 ha        1 EPA      0.091000
     33 H81         0.6420   -0.0370    3.6900 ha        1 EPA      0.120750
     34 H91         1.3560   -1.3670    1.2450 ha        1 EPA      0.120500
     35 H101       -1.2530   -0.8480    1.6740 ha        1 EPA      0.091000
     36 H102       -0.6450    0.6290    1.6700 ha        1 EPA      0.091000
     37 H111        0.2560   -0.5730   -0.6640 ha        1 EPA      0.120750
     38 H121       -2.4360    0.3810   -0.3420 ha        1 EPA      0.120500
     39 H131       -0.9850    0.7390   -2.6800 ha        1 EPA      0.091000
     40 H132       -1.4380   -0.7930   -2.6770 ha        1 EPA      0.091000
     41 H141       -3.7930    0.4540   -2.2470 ha        1 EPA      0.120750
     42 H151       -2.4110    0.9950   -4.7080 ha        1 EPA      0.120500
     43 H161       -4.9310    2.0180   -4.0010 ha        1 EPA      0.091000
     44 H162       -5.1350    0.5640   -4.6280 ha        1 EPA      0.091000
     45 H171       -3.5610    1.9930   -6.4260 ha        1 EPA      0.120750
     46 H181       -6.4110    2.2900   -6.2140 ha        1 EPA      0.120500
     47 H191       -4.7130    3.6230   -8.0420 ha        1 EPA      0.084000
     48 H192       -5.1970    2.2350   -8.6660 ha        1 EPA      0.084000
     49 H201       -7.0180    4.2040   -7.7240 hc        1 EPA      0.072000
     50 H202       -7.4130    2.8830   -8.5370 hc        1 EPA      0.072000
     51 H203       -6.6220    4.0670   -9.2690 hc        1 EPA      0.072000
@<TRIPOS>BOND
     1    1    3 1   
     2    1    4 1   
     3    4    5 1   
     4    4   23 1   
     5    4   24 1   
     6    5    6 1   
     7    5   25 1   
     8    5   26 1   
     9    6    7 1   
    10    6   27 1   
    11    6   28 1   
    12    7    8 1   
    13    7   29 1   
    14    8   30 1   
    15    9   10 1   
    16    9   31 1   
    17    9   32 1   
    18   10   11 1   
    19   10   33 1   
    20   11   34 1   
    21   12   13 1   
    22   12   35 1   
    23   12   36 1   
    24   13   14 1   
    25   13   37 1   
    26   14   38 1   
    27   15   16 1   
    28   15   39 1   
    29   15   40 1   
    30   16   17 1   
    31   16   41 1   
    32   17   42 1   
    33   18   19 1   
    34   18   43 1   
    35   18   44 1   
    36   19   20 1   
    37   19   45 1   
    38   20   46 1   
    39   21   22 1   
    40   21   47 1   
    41   21   48 1   
    42   22   49 1   
    43   22   50 1   
    44   22   51 1   
@<TRIPOS>SUBSTRUCTURE
     1 EPA         1 TEMP              0 ****  ****    0 ROOT
