@<TRIPOS>MOLECULE
EPA
   51    50     1     0     0
SMALL
bcc


@<TRIPOS>ATOM
      1 C1         -0.0790    4.6600   -1.4720 c         1 EPA      0.909600
      2 OA         -0.4060    5.4320   -0.5230 o         1 EPA     -0.850300
      3 OB          0.2590    5.0660   -2.6210 o         1 EPA     -0.850300
      4 C2         -0.1210    3.1450   -1.2070 c3        1 EPA     -0.198400
      5 C3          1.0830    2.4520   -1.7950 c3        1 EPA     -0.065400
      6 C4          0.9580    0.9440   -1.7090 c3        1 EPA     -0.059200
      7 C5          2.1300    0.2400   -2.2790 c2        1 EPA     -0.136200
      8 C6          2.3690   -1.0680   -2.1250 c2        1 EPA     -0.216200
      9 C7          1.4840   -1.9640   -1.3420 c3        1 EPA     -0.016000
     10 C8          1.8450   -3.3990   -1.4450 c2        1 EPA     -0.145200
     11 C9          1.2740   -4.3800   -0.7390 c2        1 EPA     -0.190200
     12 C10         0.1800   -4.2010    0.2480 c3        1 EPA     -0.017000
     13 C11         0.5370   -4.7780    1.5680 c2        1 EPA     -0.173200
     14 C12         0.4750   -4.1330    2.7370 c2        1 EPA     -0.161200
     15 C13         0.0520   -2.7210    2.9040 c3        1 EPA     -0.019000
     16 C14         0.1710   -2.2300    4.2990 c2        1 EPA     -0.186200
     17 C15        -0.1330   -0.9850    4.6810 c2        1 EPA     -0.158200
     18 C16        -0.6130    0.0810    3.7690 c3        1 EPA     -0.017000
     19 C17        -1.3110    1.1790    4.4810 c2        1 EPA     -0.210200
     20 C18        -1.4980    2.4020    3.9730 c2        1 EPA     -0.143200
     21 C19        -1.0250    2.8500    2.6420 c3        1 EPA     -0.053200
     22 C20        -1.4260    4.2700    2.3300 c3        1 EPA     -0.122100
     23 H21        -1.0580    2.7450   -1.6710 hc        1 EPA      0.020200
     24 H22        -0.1800    2.9620   -0.1030 hc        1 EPA      0.020200
     25 H31         2.0070    2.7830   -1.2540 hc        1 EPA      0.048200
     26 H32         1.1950    2.7720   -2.8660 hc        1 EPA      0.048200
     27 H41         0.0330    0.6130   -2.2580 hc        1 EPA      0.038200
     28 H42         0.8200    0.6390   -0.6350 hc        1 EPA      0.038200
     29 H51         2.8240    0.8670   -2.8650 ha        1 EPA      0.125000
     30 H61         3.2580   -1.5320   -2.5780 ha        1 EPA      0.109000
     31 H71         0.4180   -1.8250   -1.6850 hc        1 EPA      0.056700
     32 H72         1.5110   -1.6460   -0.2600 hc        1 EPA      0.056700
     33 H81         2.6430   -3.6410   -2.1670 ha        1 EPA      0.117000
     34 H91         1.6080   -5.4230   -0.8700 ha        1 EPA      0.110000
     35 H101       -0.7380   -4.7310   -0.1360 hc        1 EPA      0.052700
     36 H102       -0.0910   -3.1140    0.3480 hc        1 EPA      0.052700
     37 H111        0.8750   -5.8270    1.5340 ha        1 EPA      0.112000
     38 H121        0.7540   -4.6630    3.6640 ha        1 EPA      0.114000
     39 H131       -1.0180   -2.6120    2.5640 hc        1 EPA      0.061200
     40 H132        0.6680   -2.0610    2.2280 hc        1 EPA      0.061200
     41 H141        0.5380   -2.9580    5.0410 ha        1 EPA      0.113000
     42 H151       -0.0160   -0.6910    5.7370 ha        1 EPA      0.117000
     43 H161       -1.3110   -0.3560    2.9990 hc        1 EPA      0.059200
     44 H162        0.2680    0.4940    3.1980 hc        1 EPA      0.059200
     45 H171       -1.6970    0.9290    5.4820 ha        1 EPA      0.108000
     46 H181       -2.0400    3.1610    4.5630 ha        1 EPA      0.114000
     47 H191       -1.4330    2.1640    1.8500 hc        1 EPA      0.049700
     48 H192        0.0950    2.7610    2.5940 hc        1 EPA      0.049700
     49 H201       -1.0430    4.5720    1.3140 hc        1 EPA      0.055033
     50 H202       -2.5370    4.3750    2.3340 hc        1 EPA      0.055033
     51 H203       -1.0040    4.9730    3.0880 hc        1 EPA      0.055033
@<TRIPOS>BOND
     1    1    2 1   
     2    1    3 1   
     3    1    4 1   
     4    4    5 1   
     5    4   23 1   
     6    4   24 1   
     7    5    6 1   
     8    5   25 1   
     9    5   26 1   
    10    6    7 1   
    11    6   27 1   
    12    6   28 1   
    13    7    8 2   
    14    7   29 1   
    15    8    9 1   
    16    8   30 1   
    17    9   10 1   
    18    9   31 1   
    19    9   32 1   
    20   10   11 2   
    21   10   33 1   
    22   11   12 1   
    23   11   34 1   
    24   12   13 1   
    25   12   35 1   
    26   12   36 1   
    27   13   14 2   
    28   13   37 1   
    29   14   15 1   
    30   14   38 1   
    31   15   16 1   
    32   15   39 1   
    33   15   40 1   
    34   16   17 2   
    35   16   41 1   
    36   17   18 1   
    37   17   42 1   
    38   18   19 1   
    39   18   43 1   
    40   18   44 1   
    41   19   20 2   
    42   19   45 1   
    43   20   21 1   
    44   20   46 1   
    45   21   22 1   
    46   21   47 1   
    47   21   48 1   
    48   22   49 1   
    49   22   50 1   
    50   22   51 1   
@<TRIPOS>SUBSTRUCTURE
     1 EPA         1 TEMP              0 ****  ****    0 ROOT
