@<TRIPOS>MOLECULE
EPA
   51    50     1     0     0
SMALL
bcc


@<TRIPOS>ATOM
      1 C1         -7.0510    2.4950    1.0160 c         1 EPA      0.909600
      2 OA         -8.0260    3.1760    1.4510 o         1 EPA     -0.850300
      3 OB         -6.6790    1.4000    1.5250 o         1 EPA     -0.850300
      4 C2         -6.2700    3.0520   -0.1870 c3        1 EPA     -0.196400
      5 C3         -5.9950    1.9710   -1.2040 c3        1 EPA     -0.065400
      6 C4         -5.0520    2.4460   -2.2910 c3        1 EPA     -0.059200
      7 C5         -4.7610    1.3910   -3.2910 c2        1 EPA     -0.132200
      8 C6         -3.9700    1.5410   -4.3580 c2        1 EPA     -0.214200
      9 C7         -3.2480    2.7930   -4.6960 c3        1 EPA     -0.015000
     10 C8         -3.1080    2.9810   -6.1610 c2        1 EPA     -0.159200
     11 C9         -3.4660    4.0750   -6.8390 c2        1 EPA     -0.177200
     12 C10        -4.0910    5.2720   -6.2260 c3        1 EPA     -0.021000
     13 C11        -4.4560    6.3230   -7.2070 c2        1 EPA     -0.172200
     14 C12        -5.2910    7.3310   -6.9300 c2        1 EPA     -0.171200
     15 C13        -5.9620    7.4990   -5.6190 c3        1 EPA     -0.021000
     16 C14        -6.7180    8.7670   -5.4870 c2        1 EPA     -0.186200
     17 C15        -7.4590    9.0710   -4.4150 c2        1 EPA     -0.159200
     18 C16        -7.6150    8.1730   -3.2470 c3        1 EPA     -0.017000
     19 C17        -8.3900    8.7680   -2.1320 c2        1 EPA     -0.208200
     20 C18        -8.7020    8.1010   -1.0160 c2        1 EPA     -0.146200
     21 C19        -8.3270    6.6920   -0.7490 c3        1 EPA     -0.052200
     22 C20        -8.7340    6.2260    0.6250 c3        1 EPA     -0.122100
     23 H21        -5.3050    3.4710    0.1970 hc        1 EPA      0.019700
     24 H22        -6.8490    3.8910   -0.6500 hc        1 EPA      0.019700
     25 H31        -6.9600    1.6370   -1.6650 hc        1 EPA      0.047700
     26 H32        -5.5570    1.0830   -0.6730 hc        1 EPA      0.047700
     27 H41        -5.4990    3.3390   -2.8080 hc        1 EPA      0.038700
     28 H42        -4.0890    2.7910   -1.8250 hc        1 EPA      0.038700
     29 H51        -5.2490    0.4180   -3.1040 ha        1 EPA      0.123000
     30 H61        -3.8080    0.7030   -5.0540 ha        1 EPA      0.108000
     31 H71        -2.2150    2.7460   -4.2440 hc        1 EPA      0.051700
     32 H72        -3.7640    3.6750   -4.2270 hc        1 EPA      0.051700
     33 H81        -2.6640    2.1230   -6.6960 ha        1 EPA      0.112000
     34 H91        -3.3070    4.1210   -7.9290 ha        1 EPA      0.112000
     35 H101       -3.3830    5.7180   -5.4690 hc        1 EPA      0.061700
     36 H102       -5.0110    4.9580   -5.6540 hc        1 EPA      0.061700
     37 H111       -3.9900    6.2440   -8.2030 ha        1 EPA      0.116000
     38 H121       -5.5190    8.0900   -7.6970 ha        1 EPA      0.116000
     39 H131       -6.6640    6.6300   -5.4510 hc        1 EPA      0.061200
     40 H132       -5.1940    7.4400   -4.7950 hc        1 EPA      0.061200
     41 H141       -6.6410    9.4730   -6.3290 ha        1 EPA      0.114000
     42 H151       -7.9980   10.0310   -4.3700 ha        1 EPA      0.117000
     43 H161       -8.1160    7.2170   -3.5790 hc        1 EPA      0.059700
     44 H162       -6.5960    7.8700   -2.8680 hc        1 EPA      0.059700
     45 H171       -8.7040    9.8160   -2.2610 ha        1 EPA      0.108000
     46 H181       -9.2780    8.6000   -0.2180 ha        1 EPA      0.116000
     47 H191       -8.8040    6.0300   -1.5250 hc        1 EPA      0.048200
     48 H192       -7.2150    6.5710   -0.8710 hc        1 EPA      0.048200
     49 H201       -9.8410    6.2920    0.7510 hc        1 EPA      0.055700
     50 H202       -8.4200    5.1560    0.7870 hc        1 EPA      0.055700
     51 H203       -8.2550    6.8570    1.4120 hc        1 EPA      0.055700
@<TRIPOS>BOND
     1    1    2 1   
     2    1    3 1   
     3    1    4 1   
     4    4    5 1   
     5    4   23 1   
     6    4   24 1   
     7    5    6 1   
     8    5   25 1   
     9    5   26 1   
    10    6    7 1   
    11    6   27 1   
    12    6   28 1   
    13    7    8 2   
    14    7   29 1   
    15    8    9 1   
    16    8   30 1   
    17    9   10 1   
    18    9   31 1   
    19    9   32 1   
    20   10   11 2   
    21   10   33 1   
    22   11   12 1   
    23   11   34 1   
    24   12   13 1   
    25   12   35 1   
    26   12   36 1   
    27   13   14 2   
    28   13   37 1   
    29   14   15 1   
    30   14   38 1   
    31   15   16 1   
    32   15   39 1   
    33   15   40 1   
    34   16   17 2   
    35   16   41 1   
    36   17   18 1   
    37   17   42 1   
    38   18   19 1   
    39   18   43 1   
    40   18   44 1   
    41   19   20 2   
    42   19   45 1   
    43   20   21 1   
    44   20   46 1   
    45   21   22 1   
    46   21   47 1   
    47   21   48 1   
    48   22   49 1   
    49   22   50 1   
    50   22   51 1   
@<TRIPOS>SUBSTRUCTURE
     1 EPA         1 TEMP              0 ****  ****    0 ROOT
