@<TRIPOS>MOLECULE
EPB
   76    78     1     0     0
SMALL
bcc


@<TRIPOS>ATOM
      1 O16         0.4620    0.5560   -0.5660 o         1 EPB     -0.542000
      2 C51         7.0170   -0.4720    0.3360 c3        1 EPB     -0.085100
      3 O41         5.3610    1.3700    0.3630 os        1 EPB     -0.404600
      4 C5          5.7270    0.0850   -0.1870 cx        1 EPB      0.079800
      5 C4          4.5710    0.2350    0.7560 cx        1 EPB      0.073100
      6 C16         0.3650   -0.6000   -0.1510 c         1 EPB      0.636100
      7 O1          1.1550   -1.0340    0.8740 os        1 EPB     -0.443900
      8 C2          2.1800   -0.1740    1.4150 c3        1 EPB      0.200300
      9 C3          3.1410    0.2430    0.3020 c3        1 EPB     -0.108400
     10 C20         1.6040    0.9510    2.2340 c2        1 EPB     -0.088400
     11 C21         2.4230    2.1750    2.3770 c3        1 EPB     -0.064900
     12 C22         0.4120    0.7680    2.8340 ce        1 EPB     -0.222800
     13 C23        -0.3170    1.6940    3.6780 cc        1 EPB      0.406100
     14 N26        -0.0810    3.0700    3.7180 nc        1 EPB     -0.624000
     15 C25        -0.9300    3.6490    4.5660 cd        1 EPB      0.401700
     16 C27        -0.9800    5.0950    4.8640 c3        1 EPB     -0.131400
     17 C24        -1.3570    1.2710    4.5120 cd        1 EPB     -0.259400
     18 S1         -2.0260    2.5560    5.3310 ss        1 EPB     -0.103300
     19 C15        -0.5380   -1.6790   -0.6800 c3        1 EPB     -0.168400
     20 C14        -0.4900   -1.6340   -2.2140 c3        1 EPB      0.148100
     21 O14        -1.4300   -0.6560   -2.6520 oh        1 EPB     -0.602800
     22 C13        -0.7880   -2.9640   -2.9390 c3        1 EPB     -0.121000
     23 C29        -1.1950   -4.0940   -2.0050 c3        1 EPB     -0.082600
     24 C30        -1.9550   -2.7620   -3.9150 c3        1 EPB     -0.082600
     25 C12         0.4330   -3.4030   -3.7610 c         1 EPB      0.567100
     26 O12         0.2640   -3.7070   -4.9500 o         1 EPB     -0.536100
     27 C11         1.8600   -3.5250   -3.2390 c3        1 EPB     -0.152700
     28 C28         2.0320   -3.7770   -1.7640 c3        1 EPB     -0.088100
     29 C10         2.7050   -2.3180   -3.7040 c3        1 EPB      0.152100
     30 O10         2.5830   -1.3140   -2.7050 oh        1 EPB     -0.611800
     31 C9          4.1740   -2.7300   -3.9300 c3        1 EPB     -0.097700
     32 C91         4.3560   -3.1740   -5.3670 c3        1 EPB     -0.097100
     33 C8          5.1610   -1.6190   -3.5950 c3        1 EPB     -0.074400
     34 C7          5.3830   -1.4860   -2.0990 c3        1 EPB     -0.085400
     35 C6          5.5320   -0.0400   -1.6730 c3        1 EPB     -0.063400
     36 H511        7.8710   -0.1250   -0.2950 hc        1 EPB      0.049367
     37 H512        7.1940   -0.1350    1.3860 hc        1 EPB      0.049367
     38 H513        6.9800   -1.5880    0.3130 hc        1 EPB      0.049367
     39 H3          2.6970   -0.8910    2.1260 h1        1 EPB      0.079700
     40 H31         3.0220   -0.4800   -0.5540 hc        1 EPB      0.088700
     41 H32         2.8590    1.2600   -0.0820 hc        1 EPB      0.088700
     42 H211        3.4750    2.0220    2.0310 hc        1 EPB      0.058367
     43 H212        2.4610    2.5030    3.4460 hc        1 EPB      0.058367
     44 H213        1.9720    3.0030    1.7730 hc        1 EPB      0.058367
     45 H22        -0.1180   -0.1940    2.6950 ha        1 EPB      0.130000
     46 H271       -0.0020    5.4430    5.2840 hc        1 EPB      0.058700
     47 H272       -1.1870    5.6800    3.9320 hc        1 EPB      0.058700
     48 H273       -1.7860    5.3090    5.6090 hc        1 EPB      0.058700
     49 H24        -1.6880    0.2400    4.6140 h4        1 EPB      0.180000
     50 H151       -0.2180   -2.6670   -0.2650 hc        1 EPB      0.091200
     51 H152       -1.5830   -1.4730   -0.3270 hc        1 EPB      0.091200
     52 H14         0.5400   -1.2890   -2.5260 h1        1 EPB      0.074700
     53 H2         -1.1130    0.1920   -2.3080 ho        1 EPB      0.422000
     54 H291       -0.3750   -4.3910   -1.3120 hc        1 EPB      0.047533
     55 H292       -2.0790   -3.7770   -1.4000 hc        1 EPB      0.047533
     56 H293       -1.4820   -4.9910   -2.6070 hc        1 EPB      0.047533
     57 H301       -2.1620   -3.7110   -4.4640 hc        1 EPB      0.047533
     58 H302       -2.8650   -2.4490   -3.3520 hc        1 EPB      0.047533
     59 H303       -1.7010   -1.9680   -4.6570 hc        1 EPB      0.047533
     60 H11         2.2830   -4.4230   -3.7880 hc        1 EPB      0.078700
     61 H281        3.1230   -3.8300   -1.5210 hc        1 EPB      0.045700
     62 H282        1.5650   -4.7470   -1.4690 hc        1 EPB      0.045700
     63 H283        1.5970   -2.9460   -1.1570 hc        1 EPB      0.045700
     64 H1          2.2810   -1.9260   -4.6740 h1        1 EPB      0.051700
     65 H10         2.9740   -0.5060   -3.0600 ho        1 EPB      0.413000
     66 H9          4.4050   -3.6040   -3.2560 hc        1 EPB      0.057700
     67 H911        4.2460   -2.3080   -6.0640 hc        1 EPB      0.041367
     68 H912        5.3720   -3.6140   -5.5100 hc        1 EPB      0.041367
     69 H913        3.5930   -3.9440   -5.6380 hc        1 EPB      0.041367
     70 H81         6.1410   -1.8450   -4.0930 hc        1 EPB      0.042200
     71 H82         4.8000   -0.6500   -4.0320 hc        1 EPB      0.042200
     72 H71         4.5170   -1.9390   -1.5420 hc        1 EPB      0.052200
     73 H72         6.3010   -2.0610   -1.8070 hc        1 EPB      0.052200
     74 H61         6.4120    0.4260   -2.1930 hc        1 EPB      0.054700
     75 H62         4.6190    0.5420   -1.9740 hc        1 EPB      0.054700
     76 H4          4.7270   -0.0580    1.8160 h1        1 EPB      0.083700
@<TRIPOS>BOND
     1    1    6 2   
     2    2    4 1   
     3    2   36 1   
     4    2   37 1   
     5    2   38 1   
     6    3    4 1   
     7    3    5 1   
     8    4    5 1   
     9    4   35 1   
    10    5    9 1   
    11    5   76 1   
    12    6    7 1   
    13    6   19 1   
    14    7    8 1   
    15    8    9 1   
    16    8   10 1   
    17    8   39 1   
    18    9   40 1   
    19    9   41 1   
    20   10   11 1   
    21   10   12 2   
    22   11   42 1   
    23   11   43 1   
    24   11   44 1   
    25   12   13 1   
    26   12   45 1   
    27   13   14 1   
    28   13   17 2   
    29   14   15 2   
    30   15   16 1   
    31   15   18 1   
    32   16   46 1   
    33   16   47 1   
    34   16   48 1   
    35   17   18 1   
    36   17   49 1   
    37   19   20 1   
    38   19   50 1   
    39   19   51 1   
    40   20   21 1   
    41   20   22 1   
    42   20   52 1   
    43   21   53 1   
    44   22   23 1   
    45   22   24 1   
    46   22   25 1   
    47   23   54 1   
    48   23   55 1   
    49   23   56 1   
    50   24   57 1   
    51   24   58 1   
    52   24   59 1   
    53   25   26 2   
    54   25   27 1   
    55   27   28 1   
    56   27   29 1   
    57   27   60 1   
    58   28   61 1   
    59   28   62 1   
    60   28   63 1   
    61   29   30 1   
    62   29   31 1   
    63   29   64 1   
    64   30   65 1   
    65   31   32 1   
    66   31   33 1   
    67   31   66 1   
    68   32   67 1   
    69   32   68 1   
    70   32   69 1   
    71   33   34 1   
    72   33   70 1   
    73   33   71 1   
    74   34   35 1   
    75   34   72 1   
    76   34   73 1   
    77   35   74 1   
    78   35   75 1   
@<TRIPOS>SUBSTRUCTURE
     1 EPB         1 TEMP              0 ****  ****    0 ROOT
