@<TRIPOS>MOLECULE
EPB
   76    78     1     0     0
SMALL
bcc


@<TRIPOS>ATOM
      1 O16        -0.8010   -0.9910   -0.6080 o         1 EPB     -0.539000
      2 C51         5.3230    0.8490    1.1550 c3        1 EPB     -0.087100
      3 O41         4.2760   -0.7260   -0.4430 os        1 EPB     -0.398600
      4 C5          4.1580   -0.0330    0.8190 cx        1 EPB      0.078800
      5 C4          3.3020    0.3270   -0.3590 cx        1 EPB      0.066100
      6 C16        -1.0450    0.1770   -0.2990 c         1 EPB      0.624100
      7 O1         -0.1950    1.1770   -0.6750 os        1 EPB     -0.442900
      8 C2          1.0480    0.8750   -1.3390 c3        1 EPB      0.201300
      9 C3          1.8690   -0.0990   -0.4910 c3        1 EPB     -0.095400
     10 C20         0.8800    0.4520   -2.7720 c2        1 EPB     -0.100400
     11 C21         2.1370    0.1190   -3.4830 c3        1 EPB     -0.064900
     12 C22        -0.3290    0.4470   -3.3590 ce        1 EPB     -0.203800
     13 C23        -0.6350    0.1170   -4.7390 cc        1 EPB      0.400100
     14 N26         0.2510    0.3190   -5.7990 nc        1 EPB     -0.628000
     15 C25        -0.3240   -0.0550   -6.9420 cd        1 EPB      0.399700
     16 C27         0.3100    0.0150   -8.2750 c3        1 EPB     -0.131400
     17 C24        -1.8730   -0.4080   -5.1200 cd        1 EPB     -0.251400
     18 S1         -1.9330   -0.6550   -6.7650 ss        1 EPB     -0.097300
     19 C15        -2.2030    0.6800    0.5150 c3        1 EPB     -0.172400
     20 C14        -2.4900   -0.3310    1.6350 c3        1 EPB      0.149100
     21 O14        -3.2880   -1.3710    1.0800 oh        1 EPB     -0.599800
     22 C13        -3.2170    0.2460    2.8680 c3        1 EPB     -0.122000
     23 C29        -3.7620    1.6510    2.6480 c3        1 EPB     -0.082600
     24 C30        -4.4170   -0.6500    3.2050 c3        1 EPB     -0.082600
     25 C12        -2.3050    0.2730    4.1030 c         1 EPB      0.574100
     26 O12        -2.8040   -0.0140    5.2010 o         1 EPB     -0.537100
     27 C11        -0.8320    0.6590    4.1260 c3        1 EPB     -0.191700
     28 C28        -0.3340    1.5490    3.0180 c3        1 EPB     -0.097100
     29 C10         0.0380   -0.6040    4.3140 c3        1 EPB      0.147100
     30 O10         0.1580   -1.3530    3.1220 oh        1 EPB     -0.591800
     31 C9          1.3990   -0.2440    4.9490 c3        1 EPB     -0.094700
     32 C91         1.3930   -0.6590    6.4070 c3        1 EPB     -0.093100
     33 C8          2.5820   -0.8770    4.2280 c3        1 EPB     -0.087400
     34 C7          3.0670   -0.0270    3.0670 c3        1 EPB     -0.083400
     35 C6          3.6440   -0.8760    1.9530 c3        1 EPB     -0.071400
     36 H511        6.0730    0.2840    1.7600 hc        1 EPB      0.050700
     37 H512        5.8210    1.2130    0.2240 hc        1 EPB      0.050700
     38 H513        4.9700    1.7280    1.7460 hc        1 EPB      0.050700
     39 H3          1.5320    1.9010   -1.3420 h1        1 EPB      0.084700
     40 H31         1.8120   -1.1300   -0.9330 hc        1 EPB      0.076700
     41 H32         1.4080   -0.1530    0.5340 hc        1 EPB      0.076700
     42 H211        2.9880   -0.0450   -2.7760 hc        1 EPB      0.056033
     43 H212        2.0100   -0.8140   -4.0880 hc        1 EPB      0.056033
     44 H213        2.4140    0.9500   -4.1800 hc        1 EPB      0.056033
     45 H22        -1.2300    0.6920   -2.7660 ha        1 EPB      0.127000
     46 H271       -0.3960   -0.3550   -9.0590 hc        1 EPB      0.058700
     47 H272        0.5960    1.0700   -8.5180 hc        1 EPB      0.058700
     48 H273        1.2370   -0.6130   -8.3010 hc        1 EPB      0.058700
     49 H24        -2.6870   -0.6360   -4.4350 h4        1 EPB      0.183000
     50 H151       -1.9650    1.6990    0.9110 hc        1 EPB      0.092700
     51 H152       -3.0970    0.7630   -0.1580 hc        1 EPB      0.092700
     52 H14        -1.5150   -0.7810    1.9830 h1        1 EPB      0.073700
     53 H2         -2.7070   -1.8630    0.4810 ho        1 EPB      0.423000
     54 H291       -4.4210    1.9340    3.5060 hc        1 EPB      0.048367
     55 H292       -2.9520    2.4140    2.5740 hc        1 EPB      0.048367
     56 H293       -4.3690    1.6770    1.7110 hc        1 EPB      0.048367
     57 H301       -4.9270   -0.2770    4.1250 hc        1 EPB      0.048367
     58 H302       -5.1380   -0.6480    2.3540 hc        1 EPB      0.048367
     59 H303       -4.0720   -1.6960    3.3820 hc        1 EPB      0.048367
     60 H11        -0.7200    1.2450    5.0920 hc        1 EPB      0.081700
     61 H281       -1.0210    2.4140    2.8610 hc        1 EPB      0.042700
     62 H282        0.6700    1.9630    3.2910 hc        1 EPB      0.042700
     63 H283       -0.2220    0.9970    2.0530 hc        1 EPB      0.042700
     64 H1         -0.5210   -1.3110    5.0000 h1        1 EPB      0.094700
     65 H10         0.7450   -0.8770    2.5200 ho        1 EPB      0.402000
     66 H9          1.5310    0.8750    4.9130 hc        1 EPB      0.049700
     67 H911        2.3210   -0.3020    6.9150 hc        1 EPB      0.041367
     68 H912        0.5090   -0.2200    6.9310 hc        1 EPB      0.041367
     69 H913        1.3440   -1.7710    6.4980 hc        1 EPB      0.041367
     70 H81         3.4270   -1.0100    4.9550 hc        1 EPB      0.057700
     71 H82         2.3000   -1.9050    3.8740 hc        1 EPB      0.057700
     72 H71         2.2240    0.5920    2.6550 hc        1 EPB      0.040700
     73 H72         3.8440    0.6940    3.4340 hc        1 EPB      0.040700
     74 H61         4.4910   -1.4990    2.3490 hc        1 EPB      0.062700
     75 H62         2.8630   -1.5880    1.5690 hc        1 EPB      0.062700
     76 H4          3.5820    1.2290   -0.9450 h1        1 EPB      0.086700
@<TRIPOS>BOND
     1    1    6 2   
     2    2    4 1   
     3    2   36 1   
     4    2   37 1   
     5    2   38 1   
     6    3    4 1   
     7    3    5 1   
     8    4    5 1   
     9    4   35 1   
    10    5    9 1   
    11    5   76 1   
    12    6    7 1   
    13    6   19 1   
    14    7    8 1   
    15    8    9 1   
    16    8   10 1   
    17    8   39 1   
    18    9   40 1   
    19    9   41 1   
    20   10   11 1   
    21   10   12 2   
    22   11   42 1   
    23   11   43 1   
    24   11   44 1   
    25   12   13 1   
    26   12   45 1   
    27   13   14 1   
    28   13   17 2   
    29   14   15 2   
    30   15   16 1   
    31   15   18 1   
    32   16   46 1   
    33   16   47 1   
    34   16   48 1   
    35   17   18 1   
    36   17   49 1   
    37   19   20 1   
    38   19   50 1   
    39   19   51 1   
    40   20   21 1   
    41   20   22 1   
    42   20   52 1   
    43   21   53 1   
    44   22   23 1   
    45   22   24 1   
    46   22   25 1   
    47   23   54 1   
    48   23   55 1   
    49   23   56 1   
    50   24   57 1   
    51   24   58 1   
    52   24   59 1   
    53   25   26 2   
    54   25   27 1   
    55   27   28 1   
    56   27   29 1   
    57   27   60 1   
    58   28   61 1   
    59   28   62 1   
    60   28   63 1   
    61   29   30 1   
    62   29   31 1   
    63   29   64 1   
    64   30   65 1   
    65   31   32 1   
    66   31   33 1   
    67   31   66 1   
    68   32   67 1   
    69   32   68 1   
    70   32   69 1   
    71   33   34 1   
    72   33   70 1   
    73   33   71 1   
    74   34   35 1   
    75   34   72 1   
    76   34   73 1   
    77   35   74 1   
    78   35   75 1   
@<TRIPOS>SUBSTRUCTURE
     1 EPB         1 TEMP              0 ****  ****    0 ROOT
