@<TRIPOS>MOLECULE
EPB
   76    78     1     0     0
SMALL
bcc


@<TRIPOS>ATOM
      1 O16         0.4640    0.5600   -0.5670 o         1 EPB     -0.542000
      2 C51         7.0190   -0.4720    0.3290 c3        1 EPB     -0.085100
      3 O41         5.3640    1.3710    0.3520 os        1 EPB     -0.404600
      4 C5          5.7290    0.0840   -0.1950 cx        1 EPB      0.079800
      5 C4          4.5740    0.2380    0.7490 cx        1 EPB      0.073100
      6 C16         0.3650   -0.5950   -0.1500 c         1 EPB      0.636100
      7 O1          1.1570   -1.0280    0.8750 os        1 EPB     -0.443900
      8 C2          2.1840   -0.1690    1.4120 c3        1 EPB      0.200300
      9 C3          3.1430    0.2440    0.2980 c3        1 EPB     -0.108400
     10 C20         1.6100    0.9580    2.2310 c2        1 EPB     -0.088400
     11 C21         2.4280    2.1830    2.3660 c3        1 EPB     -0.064900
     12 C22         0.4210    0.7740    2.8370 ce        1 EPB     -0.222800
     13 C23        -0.3050    1.7020    3.6820 cc        1 EPB      0.406100
     14 N26        -0.0740    3.0790    3.7120 nc        1 EPB     -0.623000
     15 C25        -0.9190    3.6590    4.5630 cd        1 EPB      0.401700
     16 C27        -0.9720    5.1070    4.8540 c3        1 EPB     -0.131400
     17 C24        -1.3370    1.2790    4.5250 cd        1 EPB     -0.259400
     18 S1         -2.0050    2.5660    5.3420 ss        1 EPB     -0.103300
     19 C15        -0.5400   -1.6740   -0.6750 c3        1 EPB     -0.168400
     20 C14        -0.4920   -1.6320   -2.2090 c3        1 EPB      0.148100
     21 O14        -1.4310   -0.6540   -2.6500 oh        1 EPB     -0.602800
     22 C13        -0.7940   -2.9630   -2.9310 c3        1 EPB     -0.121000
     23 C29        -1.2020   -4.0900   -1.9940 c3        1 EPB     -0.082600
     24 C30        -1.9610   -2.7620   -3.9070 c3        1 EPB     -0.082600
     25 C12         0.4260   -3.4070   -3.7530 c         1 EPB      0.567100
     26 O12         0.2550   -3.7140   -4.9410 o         1 EPB     -0.536100
     27 C11         1.8540   -3.5300   -3.2320 c3        1 EPB     -0.152700
     28 C28         2.0260   -3.7780   -1.7560 c3        1 EPB     -0.088100
     29 C10         2.7000   -2.3260   -3.7010 c3        1 EPB      0.152100
     30 O10         2.5810   -1.3190   -2.7060 oh        1 EPB     -0.611800
     31 C9          4.1680   -2.7410   -3.9270 c3        1 EPB     -0.097700
     32 C91         4.3480   -3.1900   -5.3630 c3        1 EPB     -0.097100
     33 C8          5.1570   -1.6300   -3.5960 c3        1 EPB     -0.074400
     34 C7          5.3810   -1.4930   -2.1010 c3        1 EPB     -0.085400
     35 C6          5.5320   -0.0450   -1.6800 c3        1 EPB     -0.063400
     36 H511        7.1970   -0.1330    1.3780 hc        1 EPB      0.049367
     37 H512        7.8720   -0.1270   -0.3040 hc        1 EPB      0.049367
     38 H513        6.9820   -1.5880    0.3090 hc        1 EPB      0.049367
     39 H3          2.7010   -0.8860    2.1230 h1        1 EPB      0.079700
     40 H31         2.8610    1.2610   -0.0890 hc        1 EPB      0.089200
     41 H32         3.0230   -0.4800   -0.5570 hc        1 EPB      0.089200
     42 H211        3.4790    2.0300    2.0190 hc        1 EPB      0.058367
     43 H212        1.9740    3.0080    1.7590 hc        1 EPB      0.058367
     44 H213        2.4670    2.5170    3.4330 hc        1 EPB      0.058367
     45 H22        -0.1070   -0.1890    2.7030 ha        1 EPB      0.130000
     46 H271       -1.7730    5.3220    5.6030 hc        1 EPB      0.058700
     47 H272       -1.1890    5.6860    3.9200 hc        1 EPB      0.058700
     48 H273        0.0080    5.4610    5.2640 hc        1 EPB      0.058700
     49 H24        -1.6630    0.2480    4.6360 h4        1 EPB      0.180000
     50 H151       -1.5850   -1.4640   -0.3230 hc        1 EPB      0.091200
     51 H152       -0.2210   -2.6610   -0.2580 hc        1 EPB      0.091200
     52 H14         0.5370   -1.2900   -2.5230 h1        1 EPB      0.074700
     53 H2         -1.1130    0.1950   -2.3070 ho        1 EPB      0.422000
     54 H291       -2.0850   -3.7710   -1.3890 hc        1 EPB      0.047533
     55 H292       -0.3820   -4.3880   -1.3010 hc        1 EPB      0.047533
     56 H293       -1.4910   -4.9890   -2.5940 hc        1 EPB      0.047533
     57 H301       -2.8710   -2.4460   -3.3440 hc        1 EPB      0.047533
     58 H302       -2.1700   -3.7120   -4.4530 hc        1 EPB      0.047533
     59 H303       -1.7060   -1.9700   -4.6510 hc        1 EPB      0.047533
     60 H11         2.2740   -4.4300   -3.7790 hc        1 EPB      0.078700
     61 H281        3.1170   -3.8320   -1.5140 hc        1 EPB      0.045700
     62 H282        1.5930   -2.9440   -1.1510 hc        1 EPB      0.045700
     63 H283        1.5580   -4.7460   -1.4580 hc        1 EPB      0.045700
     64 H1          2.2760   -1.9360   -4.6720 h1        1 EPB      0.051700
     65 H10         2.9730   -0.5120   -3.0630 ho        1 EPB      0.413000
     66 H9          4.3990   -3.6130   -3.2510 hc        1 EPB      0.057700
     67 H911        3.5840   -3.9600   -5.6300 hc        1 EPB      0.041367
     68 H912        5.3640   -3.6320   -5.5050 hc        1 EPB      0.041367
     69 H913        4.2390   -2.3260   -6.0620 hc        1 EPB      0.041367
     70 H81         4.7980   -0.6630   -4.0360 hc        1 EPB      0.042200
     71 H82         6.1360   -1.8590   -4.0950 hc        1 EPB      0.042200
     72 H71         6.2980   -2.0680   -1.8080 hc        1 EPB      0.052200
     73 H72         4.5150   -1.9430   -1.5420 hc        1 EPB      0.052200
     74 H61         4.6200    0.5370   -1.9820 hc        1 EPB      0.054700
     75 H62         6.4110    0.4180   -2.2020 hc        1 EPB      0.054700
     76 H4          4.7310   -0.0520    1.8100 h1        1 EPB      0.083700
@<TRIPOS>BOND
     1    1    6 2   
     2    2    4 1   
     3    2   36 1   
     4    2   37 1   
     5    2   38 1   
     6    3    4 1   
     7    3    5 1   
     8    4    5 1   
     9    4   35 1   
    10    5    9 1   
    11    5   76 1   
    12    6    7 1   
    13    6   19 1   
    14    7    8 1   
    15    8    9 1   
    16    8   10 1   
    17    8   39 1   
    18    9   40 1   
    19    9   41 1   
    20   10   11 1   
    21   10   12 2   
    22   11   42 1   
    23   11   43 1   
    24   11   44 1   
    25   12   13 1   
    26   12   45 1   
    27   13   14 1   
    28   13   17 2   
    29   14   15 2   
    30   15   16 1   
    31   15   18 1   
    32   16   46 1   
    33   16   47 1   
    34   16   48 1   
    35   17   18 1   
    36   17   49 1   
    37   19   20 1   
    38   19   50 1   
    39   19   51 1   
    40   20   21 1   
    41   20   22 1   
    42   20   52 1   
    43   21   53 1   
    44   22   23 1   
    45   22   24 1   
    46   22   25 1   
    47   23   54 1   
    48   23   55 1   
    49   23   56 1   
    50   24   57 1   
    51   24   58 1   
    52   24   59 1   
    53   25   26 2   
    54   25   27 1   
    55   27   28 1   
    56   27   29 1   
    57   27   60 1   
    58   28   61 1   
    59   28   62 1   
    60   28   63 1   
    61   29   30 1   
    62   29   31 1   
    63   29   64 1   
    64   30   65 1   
    65   31   32 1   
    66   31   33 1   
    67   31   66 1   
    68   32   67 1   
    69   32   68 1   
    70   32   69 1   
    71   33   34 1   
    72   33   70 1   
    73   33   71 1   
    74   34   35 1   
    75   34   72 1   
    76   34   73 1   
    77   35   74 1   
    78   35   75 1   
@<TRIPOS>SUBSTRUCTURE
     1 EPB         1 TEMP              0 ****  ****    0 ROOT
