@<TRIPOS>MOLECULE
EPC
   34    31     1     0     0
SMALL
bcc


@<TRIPOS>ATOM
      1 C           0.8750   -1.8020    1.1270 c3        1 EPC     -0.663000
      2 N2         -0.5520   -1.7680    1.1670 n2        1 EPC     -0.072000
      3 N1          0.7180    1.6510   -2.4450 n1        1 EPC     -0.177000
      4 C2          0.5370    0.3280   -2.7510 c1        1 EPC     -0.140000
      5 C2A         1.0000   -0.2140   -4.1050 c3        1 EPC     -0.122000
      6 C3         -0.0530   -0.5260   -1.8250 c1        1 EPC      0.047000
      7 O1         -0.3100   -1.8580   -2.1680 o         1 EPC     -0.305000
      8 C4         -0.4530   -0.0430   -0.6030 c2        1 EPC     -0.092000
      9 C4A        -1.2150   -0.9540    0.3680 c2        1 EPC     -0.145000
     10 C5         -0.2700    1.2860   -0.2980 c1        1 EPC     -0.051000
     11 C6          0.3190    2.1360   -1.2260 c1        1 EPC     -0.109000
     12 C5A        -0.8040    1.8460    1.0130 c3        1 EPC      0.078000
     13 O2         -1.8480    2.7620    0.7440 os        1 EPC     -0.744000
     14 P1         -2.5280    3.5070    1.9590 p5        1 EPC      1.556500
     15 O3         -1.4780    4.1980    2.7720 o         1 EPC     -0.939500
     16 O4         -3.5140    4.5290    1.4350 o         1 EPC     -0.939500
     17 O5         -3.2510    2.5060    2.8200 o         1 EPC     -0.939500
     18 P2          1.5370   -1.4690    2.7830 p5        1 EPC      1.609500
     19 O7          1.5780   -2.7580    3.5780 o         1 EPC     -0.934167
     20 O8          2.9290   -0.9090    2.6630 o         1 EPC     -0.934167
     21 O6          0.6520   -0.4700    3.4890 o         1 EPC     -0.934167
     22 CA          1.3330   -3.1620    0.6680 c3        1 EPC     -0.175000
     23 H1C1        1.2020   -1.1160    0.5000 h1        1 EPC      0.072000
     24 H2A1        1.4700    0.4920   -4.5960 hc        1 EPC      0.051667
     25 H2A2        1.6040   -0.9700   -3.9630 hc        1 EPC      0.051667
     26 H2A3        0.2240   -0.5090   -4.6200 hc        1 EPC      0.051667
     27 HO1        -1.0630   -1.9020   -2.6520 ho        1 EPC      0.254000
     28 H4A1       -2.1970   -0.9310    0.3950 h4        1 EPC      0.126000
     29 HC61        0.4840    3.0750   -0.9940 ha        1 EPC      0.202000
     30 H5A1       -0.0800    2.3060    1.4910 h1        1 EPC      0.075000
     31 H5A2       -1.1480    1.1110    1.5690 h1        1 EPC      0.075000
     32 HCA1        2.2640   -3.3070    0.9490 hc        1 EPC      0.056333
     33 HCA2        0.7620   -3.8490    1.0650 hc        1 EPC      0.056333
     34 HCA3        1.2740   -3.2130   -0.3080 hc        1 EPC      0.056333
@<TRIPOS>BOND
     1    1    2 1   
     2    1   18 1   
     3    1   22 1   
     4    1   23 1   
     5    2    9 1   
     6    3   11 1   
     7    4    5 1   
     8    4    6 1   
     9    5   24 1   
    10    5   25 1   
    11    5   26 1   
    12    6    8 1   
    13    7   27 1   
    14    8    9 1   
    15    8   10 1   
    16    9   28 1   
    17   10   12 1   
    18   11   29 1   
    19   12   13 1   
    20   12   30 1   
    21   12   31 1   
    22   13   14 1   
    23   14   15 1   
    24   14   16 1   
    25   14   17 1   
    26   18   19 1   
    27   18   20 1   
    28   18   21 1   
    29   22   32 1   
    30   22   33 1   
    31   22   34 1   
@<TRIPOS>SUBSTRUCTURE
     1 EPC         1 TEMP              0 ****  ****    0 ROOT
