@<TRIPOS>MOLECULE
EPC
   34    33     1     0     0
SMALL
bcc


@<TRIPOS>ATOM
      1 C           1.3040   -0.1960    0.0110 c2        1 EPC     -0.534000
      2 N2         -0.0170   -0.0860   -0.1760 n2        1 EPC     -0.095000
      3 N1         -4.9910    1.2090   -0.7210 n2        1 EPC     -0.218000
      4 C2         -4.3780    0.1170   -0.1970 c2        1 EPC     -0.135000
      5 C2A        -5.1950   -1.0340    0.2880 c3        1 EPC     -0.117000
      6 C3         -2.9690    0.0260   -0.0920 c2        1 EPC      0.002000
      7 O1         -2.5220   -1.1590    0.4540 oh        1 EPC     -0.326000
      8 C4         -2.1230    1.0920   -0.5230 c2        1 EPC      0.023000
      9 C4A        -0.6820    1.0460   -0.3530 c2        1 EPC     -0.326000
     10 C5         -2.7830    2.2100   -1.0950 c2        1 EPC     -0.107000
     11 C6         -4.1970    2.2000   -1.1490 c2        1 EPC     -0.098000
     12 C5A        -2.0820    3.4170   -1.6820 c3        1 EPC      0.093000
     13 O2         -2.9280    4.4960   -1.8270 os        1 EPC     -0.752000
     14 P1         -2.8830    5.4250   -3.2860 p5        1 EPC      1.559500
     15 O3         -2.1060    4.5770   -4.2610 o         1 EPC     -0.944167
     16 O4         -4.3520    5.5770   -3.6000 o         1 EPC     -0.944167
     17 O5         -2.2000    6.7030   -2.8660 o         1 EPC     -0.944167
     18 P2          2.7020   -0.6020    2.0760 p3        1 EPC      2.487000
     19 O7          2.5170   -2.0460    2.3820 o         1 EPC     -1.172333
     20 O8          3.9720   -0.2260    1.4000 o         1 EPC     -1.172333
     21 O6          2.1040    0.3690    3.0170 o         1 EPC     -1.172333
     22 CA          1.9540   -1.4960   -0.3100 c3        1 EPC     -0.170000
     23 H1C1        1.9680    0.6880   -0.0010 h4        1 EPC      0.090000
     24 H2A1       -6.2930   -0.8370    0.2300 hc        1 EPC      0.044333
     25 H2A2       -4.9250   -1.2600    1.3490 hc        1 EPC      0.044333
     26 H2A3       -4.9610   -1.9410   -0.3240 hc        1 EPC      0.044333
     27 HO1        -1.5490   -1.1150    0.5200 ho        1 EPC      0.264000
     28 H4A1       -0.1730    2.0250   -0.4050 h4        1 EPC      0.106000
     29 HC61       -4.7090    3.0850   -1.5810 h4        1 EPC      0.191000
     30 H5A1       -1.6400    3.1300   -2.6820 h1        1 EPC      0.062500
     31 H5A2       -1.2400    3.6870   -0.9740 h1        1 EPC      0.062500
     32 HCA1        3.0670   -1.3960   -0.2550 hc        1 EPC      0.052000
     33 HCA2        1.7090   -1.8360   -1.3530 hc        1 EPC      0.052000
     34 HCA3        1.6270   -2.3100    0.3860 hc        1 EPC      0.052000
@<TRIPOS>BOND
     1    1    2 1   
     2    1   22 1   
     3    1   23 1   
     4    2    9 1   
     5    3    4 1   
     6    3   11 1   
     7    4    5 1   
     8    4    6 1   
     9    5   24 1   
    10    5   25 1   
    11    5   26 1   
    12    6    7 1   
    13    6    8 1   
    14    7   27 1   
    15    8    9 1   
    16    8   10 1   
    17    9   28 1   
    18   10   11 1   
    19   10   12 1   
    20   11   29 1   
    21   12   13 1   
    22   12   30 1   
    23   12   31 1   
    24   13   14 1   
    25   14   15 1   
    26   14   16 1   
    27   14   17 1   
    28   18   19 1   
    29   18   20 1   
    30   18   21 1   
    31   22   32 1   
    32   22   33 1   
    33   22   34 1   
@<TRIPOS>SUBSTRUCTURE
     1 EPC         1 TEMP              0 ****  ****    0 ROOT
