@<TRIPOS>MOLECULE
EPC
   34    34     1     0     0
SMALL
bcc


@<TRIPOS>ATOM
      1 C           1.5030   -0.1100    0.1660 c3        1 EPC     -0.069700
      2 N2          0.1800   -0.0100   -0.3010 n2        1 EPC     -0.507900
      3 N1         -4.7940    1.2610   -0.7550 nb        1 EPC     -0.702000
      4 C2         -4.2500    0.3160    0.0610 ca        1 EPC      0.254600
      5 C2A        -5.1340   -0.6670    0.7500 c3        1 EPC     -0.093400
      6 C3         -2.8500    0.2210    0.2860 ca        1 EPC      0.058800
      7 O1         -2.4720   -0.7600    1.1560 oh        1 EPC     -0.555100
      8 C4         -1.9760    1.1310   -0.3690 ca        1 EPC     -0.163900
      9 C4A        -0.5290    1.0530   -0.0980 ce        1 EPC      0.365800
     10 C5         -2.5490    2.1130   -1.1850 ca        1 EPC     -0.149600
     11 C6         -3.9650    2.1250   -1.3430 ca        1 EPC      0.336200
     12 C5A        -1.7810    3.1730   -1.9440 c3        1 EPC      0.251700
     13 O2         -2.3800    4.4120   -1.8830 os        1 EPC     -0.578200
     14 P1         -3.0350    5.0580   -3.3410 p5        1 EPC      1.321900
     15 O3         -2.0660    4.6090   -4.4050 o         1 EPC     -0.939833
     16 O4         -4.3970    4.4060   -3.4030 o         1 EPC     -0.939833
     17 O5         -3.0490    6.5420   -3.0720 o         1 EPC     -0.939833
     18 P2          1.5670   -1.3760    1.5930 p5        1 EPC      1.207700
     19 O7          1.8390   -2.7240    0.9750 o         1 EPC     -0.938833
     20 O8          2.7410   -0.8400    2.3790 o         1 EPC     -0.938833
     21 O6          0.2250   -1.2360    2.2710 o         1 EPC     -0.938833
     22 CA          2.4940   -0.7320   -0.7720 c3        1 EPC     -0.035100
     23 H1C1        1.9220    0.8340    0.6000 h1        1 EPC      0.023700
     24 H2A1       -4.9220   -0.6490    1.8490 hc        1 EPC      0.008033
     25 H2A2       -4.9080   -1.6970    0.3770 hc        1 EPC      0.008033
     26 H2A3       -6.2200   -0.4580    0.5890 hc        1 EPC      0.008033
     27 HO1        -1.5030   -0.7220    1.3570 ho        1 EPC      0.516000
     28 H4A1       -0.1280    1.9860    0.3560 h4        1 EPC     -0.045200
     29 HC61       -4.3950    2.9250   -2.0140 h4        1 EPC      0.116100
     30 H5A1       -0.7460    3.2410   -1.4930 h1        1 EPC      0.016200
     31 H5A2       -1.6840    2.8370   -3.0190 h1        1 EPC      0.016200
     32 HCA1        3.4490   -0.8630   -0.2040 hc        1 EPC      0.008367
     33 HCA2        2.6950   -0.1110   -1.6820 hc        1 EPC      0.008367
     34 HCA3        2.1390   -1.7450   -1.0850 hc        1 EPC      0.008367
@<TRIPOS>BOND
     1    1    2 1   
     2    1   18 1   
     3    1   22 1   
     4    1   23 1   
     5    2    9 2   
     6    3    4 ar  
     7    3   11 ar  
     8    4    5 1   
     9    4    6 ar  
    10    5   24 1   
    11    5   25 1   
    12    5   26 1   
    13    6    7 1   
    14    6    8 ar  
    15    7   27 1   
    16    8    9 1   
    17    8   10 ar  
    18    9   28 1   
    19   10   11 ar  
    20   10   12 1   
    21   11   29 1   
    22   12   13 1   
    23   12   30 1   
    24   12   31 1   
    25   13   14 1   
    26   14   15 1   
    27   14   16 1   
    28   14   17 1   
    29   18   19 1   
    30   18   20 1   
    31   18   21 1   
    32   22   32 1   
    33   22   33 1   
    34   22   34 1   
@<TRIPOS>SUBSTRUCTURE
     1 EPC         1 TEMP              0 ****  ****    0 ROOT
