@<TRIPOS>MOLECULE
EPC
   34    34     1     0     0
SMALL
bcc


@<TRIPOS>ATOM
      1 C           1.5040   -0.1080    0.1640 c3        1 EPC     -0.069700
      2 N2          0.1800   -0.0100   -0.3010 n2        1 EPC     -0.507900
      3 N1         -4.7940    1.2610   -0.7480 nb        1 EPC     -0.702000
      4 C2         -4.2490    0.3200    0.0700 ca        1 EPC      0.254600
      5 C2A        -5.1320   -0.6610    0.7650 c3        1 EPC     -0.093400
      6 C3         -2.8490    0.2250    0.2920 ca        1 EPC      0.058800
      7 O1         -2.4680   -0.7530    1.1650 oh        1 EPC     -0.555100
      8 C4         -1.9750    1.1320   -0.3690 ca        1 EPC     -0.163900
      9 C4A        -0.5280    1.0540   -0.1010 ce        1 EPC      0.365800
     10 C5         -2.5500    2.1110   -1.1870 ca        1 EPC     -0.149600
     11 C6         -3.9660    2.1220   -1.3410 ca        1 EPC      0.336200
     12 C5A        -1.7840    3.1670   -1.9520 c3        1 EPC      0.251700
     13 O2         -2.3820    4.4070   -1.8950 os        1 EPC     -0.578200
     14 P1         -3.0400    5.0470   -3.3530 p5        1 EPC      1.321900
     15 O3         -2.0730    4.5940   -4.4180 o         1 EPC     -0.939833
     16 O4         -4.4020    4.3960   -3.4100 o         1 EPC     -0.939833
     17 O5         -3.0530    6.5320   -3.0900 o         1 EPC     -0.939833
     18 P2          1.5710   -1.3690    1.5960 p5        1 EPC      1.207700
     19 O7          1.8410   -2.7190    0.9830 o         1 EPC     -0.938833
     20 O8          2.7470   -0.8300    2.3770 o         1 EPC     -0.938833
     21 O6          0.2300   -1.2250    2.2770 o         1 EPC     -0.938833
     22 CA          2.4930   -0.7350   -0.7740 c3        1 EPC     -0.035100
     23 H1C1        1.9250    0.8370    0.5930 h1        1 EPC      0.023700
     24 H2A1       -4.9140   -0.6410    1.8620 hc        1 EPC      0.008033
     25 H2A2       -6.2180   -0.4490    0.6080 hc        1 EPC      0.008033
     26 H2A3       -4.9100   -1.6920    0.3920 hc        1 EPC      0.008033
     27 HO1        -1.4990   -0.7140    1.3640 ho        1 EPC      0.516000
     28 H4A1       -0.1250    1.9890    0.3480 h4        1 EPC     -0.045200
     29 HC61       -4.3980    2.9200   -2.0150 h4        1 EPC      0.116100
     30 H5A1       -0.7480    3.2370   -1.5040 h1        1 EPC      0.016200
     31 H5A2       -1.6890    2.8280   -3.0260 h1        1 EPC      0.016200
     32 HCA1        2.1370   -1.7500   -1.0820 hc        1 EPC      0.008367
     33 HCA2        3.4490   -0.8640   -0.2080 hc        1 EPC      0.008367
     34 HCA3        2.6920   -0.1180   -1.6870 hc        1 EPC      0.008367
@<TRIPOS>BOND
     1    1    2 1   
     2    1   18 1   
     3    1   22 1   
     4    1   23 1   
     5    2    9 2   
     6    3    4 ar  
     7    3   11 ar  
     8    4    5 1   
     9    4    6 ar  
    10    5   24 1   
    11    5   25 1   
    12    5   26 1   
    13    6    7 1   
    14    6    8 ar  
    15    7   27 1   
    16    8    9 1   
    17    8   10 ar  
    18    9   28 1   
    19   10   11 ar  
    20   10   12 1   
    21   11   29 1   
    22   12   13 1   
    23   12   30 1   
    24   12   31 1   
    25   13   14 1   
    26   14   15 1   
    27   14   16 1   
    28   14   17 1   
    29   18   19 1   
    30   18   20 1   
    31   18   21 1   
    32   22   32 1   
    33   22   33 1   
    34   22   34 1   
@<TRIPOS>SUBSTRUCTURE
     1 EPC         1 TEMP              0 ****  ****    0 ROOT
