@<TRIPOS>MOLECULE
EPC
   34    34     1     0     0
SMALL
bcc


@<TRIPOS>ATOM
      1 C          -1.1200    0.8080    2.9910 c3        1 EPC     -0.069700
      2 N2         -0.1600    0.8880    1.9660 n2        1 EPC     -0.507900
      3 N1          3.1080   -0.3520   -1.8210 nb        1 EPC     -0.702000
      4 C2          3.3050   -0.4770   -0.4790 ca        1 EPC      0.254600
      5 C2A         4.6720   -0.7660    0.0450 c3        1 EPC     -0.093400
      6 C3          2.2500   -0.3390    0.4610 ca        1 EPC      0.058800
      7 O1          2.6100   -0.5260    1.7640 oh        1 EPC     -0.555100
      8 C4          0.9380   -0.0450   -0.0030 ca        1 EPC     -0.163900
      9 C4A        -0.1600    0.0560    0.9760 ce        1 EPC      0.365800
     10 C5          0.7420    0.0560   -1.3850 ca        1 EPC     -0.149600
     11 C6          1.8670   -0.1040   -2.2440 ca        1 EPC      0.336200
     12 C5A        -0.5810    0.3430   -2.0590 c3        1 EPC      0.251700
     13 O2         -0.7880   -0.4320   -3.1800 os        1 EPC     -0.578200
     14 P1         -0.8090    0.3610   -4.7090 p5        1 EPC      1.321900
     15 O3         -1.4820    1.6800   -4.4250 o         1 EPC     -0.939833
     16 O4          0.6600    0.4540   -5.0490 o         1 EPC     -0.939833
     17 O5         -1.6040   -0.5910   -5.5680 o         1 EPC     -0.939833
     18 P2         -0.2710    0.2220    4.5970 p5        1 EPC      1.207700
     19 O7          0.1920    1.4580    5.3270 o         1 EPC     -0.938833
     20 O8         -1.4280   -0.4680    5.2800 o         1 EPC     -0.938833
     21 O6          0.8300   -0.6950    4.1190 o         1 EPC     -0.938833
     22 CA         -1.6960    2.1090    3.4670 c3        1 EPC     -0.035100
     23 H1C1       -1.9400    0.0660    2.8120 h1        1 EPC      0.023700
     24 H2A1        4.6300   -1.6660    0.7090 hc        1 EPC      0.008033
     25 H2A2        5.4160   -0.9500   -0.7670 hc        1 EPC      0.008033
     26 H2A3        5.0220    0.0970    0.6640 hc        1 EPC      0.008033
     27 HO1         1.8260   -0.5180    2.3690 ho        1 EPC      0.516000
     28 H4A1       -0.9570   -0.7010    0.8040 h4        1 EPC     -0.045200
     29 HC61        1.6780   -0.0090   -3.3530 h4        1 EPC      0.116100
     30 H5A1       -1.4040    0.1360   -1.3120 h1        1 EPC      0.016200
     31 H5A2       -0.6090    1.4400   -2.3310 h1        1 EPC      0.016200
     32 HCA1       -0.8730    2.7960    3.7880 hc        1 EPC      0.008367
     33 HCA2       -2.3280    2.6220    2.6990 hc        1 EPC      0.008367
     34 HCA3       -2.3250    1.8840    4.3640 hc        1 EPC      0.008367
@<TRIPOS>BOND
     1    1    2 1   
     2    1   18 1   
     3    1   22 1   
     4    1   23 1   
     5    2    9 2   
     6    3    4 ar  
     7    3   11 ar  
     8    4    5 1   
     9    4    6 ar  
    10    5   24 1   
    11    5   25 1   
    12    5   26 1   
    13    6    7 1   
    14    6    8 ar  
    15    7   27 1   
    16    8    9 1   
    17    8   10 ar  
    18    9   28 1   
    19   10   11 ar  
    20   10   12 1   
    21   11   29 1   
    22   12   13 1   
    23   12   30 1   
    24   12   31 1   
    25   13   14 1   
    26   14   15 1   
    27   14   16 1   
    28   14   17 1   
    29   18   19 1   
    30   18   20 1   
    31   18   21 1   
    32   22   32 1   
    33   22   33 1   
    34   22   34 1   
@<TRIPOS>SUBSTRUCTURE
     1 EPC         1 TEMP              0 ****  ****    0 ROOT
