@<TRIPOS>MOLECULE
EPD
   75    76     1     0     0
SMALL
bcc


@<TRIPOS>ATOM
      1 C51        -0.2560    0.8640   -0.2860 c3        1 EPD     -0.060900
      2 C5          1.2150    0.6590   -0.3020 c2        1 EPD     -0.100400
      3 C4          1.9530    0.8810    0.7960 c2        1 EPD     -0.184200
      4 C3          3.4140    0.6780    0.9090 c3        1 EPD     -0.061200
      5 C2          4.1110    1.9270    1.4510 c3        1 EPD      0.183300
      6 C20         3.8540    2.1360    2.9220 c2        1 EPD     -0.071400
      7 C21         4.4520    1.1440    3.8410 c3        1 EPD     -0.054900
      8 C22         3.0970    3.1860    3.2910 ce        1 EPD     -0.219800
      9 C23         2.6830    3.5560    4.6300 cc        1 EPD      0.401100
     10 C24         2.0900    4.7920    4.9040 cd        1 EPD     -0.256400
     11 S1          1.7120    4.9270    6.5190 ss        1 EPD     -0.095300
     12 C25         2.3360    3.3480    6.8260 cd        1 EPD      0.399700
     13 C27         2.3090    2.7800    8.1900 c3        1 EPD     -0.131400
     14 N26         2.8190    2.7300    5.7480 nc        1 EPD     -0.628000
     15 C6          1.7740    0.2130   -1.6110 c3        1 EPD     -0.051200
     16 C7          2.1680   -1.2520   -1.5900 c3        1 EPD     -0.074400
     17 C8          2.8070   -1.7020   -2.8880 c3        1 EPD     -0.074400
     18 C9          4.3300   -1.7460   -2.9070 c3        1 EPD     -0.060700
     19 C91         4.8890   -2.5220   -1.7350 c3        1 EPD     -0.093100
     20 C10         4.9340   -0.3360   -2.9940 c3        1 EPD      0.159100
     21 O10         4.3870    0.2590   -4.1610 oh        1 EPD     -0.608800
     22 C11         6.4760   -0.3610   -3.0560 c3        1 EPD     -0.194700
     23 C28         6.9720   -0.9550   -4.3590 c3        1 EPD     -0.084100
     24 C12         7.0320    1.0390   -2.9030 c         1 EPD      0.579100
     25 O12         6.4250    2.0090   -3.3750 o         1 EPD     -0.535100
     26 C13         8.3850    1.2530   -2.2370 c3        1 EPD     -0.177000
     27 C30         8.9990   -0.0180   -1.6780 c3        1 EPD     -0.089100
     28 C29         9.3160    1.7880   -3.3320 c3        1 EPD     -0.089100
     29 C14         8.3310    2.3340   -1.1260 c3        1 EPD      0.172100
     30 O14         7.8900    3.5830   -1.6050 oh        1 EPD     -0.598800
     31 C15         7.6020    1.9430    0.1590 c3        1 EPD     -0.170400
     32 C16         6.1130    2.0740    0.1160 c         1 EPD      0.636100
     33 O16         5.3860    2.4250   -0.8160 o         1 EPD     -0.548000
     34 O1          5.5430    1.7500    1.3150 os        1 EPD     -0.439900
     35 H511       -0.6260    1.1450    0.7300 hc        1 EPD      0.041700
     36 H512       -0.7740   -0.0750   -0.6060 hc        1 EPD      0.041700
     37 H513       -0.5360    1.6780   -1.0010 hc        1 EPD      0.041700
     38 H4          1.4710    1.2340    1.7260 ha        1 EPD      0.126000
     39 H31         3.6160   -0.1880    1.5970 hc        1 EPD      0.060200
     40 H32         3.8740    0.4340   -0.0870 hc        1 EPD      0.060200
     41 H2          3.8000    2.8260    0.8470 h1        1 EPD      0.080700
     42 H211        5.0300    1.6550    4.6500 hc        1 EPD      0.053367
     43 H212        5.1480    0.4600    3.2940 hc        1 EPD      0.053367
     44 H213        3.6510    0.5250    4.3210 hc        1 EPD      0.053367
     45 H22         2.7190    3.8820    2.5190 ha        1 EPD      0.130000
     46 H24         1.9010    5.5660    4.1640 h4        1 EPD      0.182000
     47 H271        3.3480    2.5460    8.5380 hc        1 EPD      0.058700
     48 H272        1.7130    1.8330    8.2090 hc        1 EPD      0.058700
     49 H273        1.8480    3.5080    8.9020 hc        1 EPD      0.058700
     50 H61         2.6660    0.8430   -1.8800 hc        1 EPD      0.054700
     51 H62         1.0130    0.3750   -2.4220 hc        1 EPD      0.054700
     52 H71         2.8550   -1.4410   -0.7240 hc        1 EPD      0.040200
     53 H72         1.2440   -1.8640   -1.4090 hc        1 EPD      0.040200
     54 H81         2.4430   -2.7410   -3.1170 hc        1 EPD      0.050700
     55 H82         2.4660   -1.0380   -3.7280 hc        1 EPD      0.050700
     56 H9          4.6190   -2.2800   -3.8590 hc        1 EPD      0.057700
     57 H911        5.8990   -2.9320   -1.9810 hc        1 EPD      0.034700
     58 H912        4.9830   -1.8760   -0.8280 hc        1 EPD      0.034700
     59 H913        4.2180   -3.3810   -1.4880 hc        1 EPD      0.034700
     60 H10         4.6380    0.2670   -2.0870 h1        1 EPD      0.047700
     61 H3          4.6280    1.1960   -4.1420 ho        1 EPD      0.428000
     62 H11         6.8300   -0.9970   -2.1990 hc        1 EPD      0.070700
     63 H281        6.7470   -2.0490   -4.3860 hc        1 EPD      0.047367
     64 H282        6.4570   -0.4650   -5.2220 hc        1 EPD      0.047367
     65 H283        8.0750   -0.8150   -4.4650 hc        1 EPD      0.047367
     66 H301        9.9850    0.2160   -1.2060 hc        1 EPD      0.046867
     67 H302        8.3480   -0.4950   -0.9070 hc        1 EPD      0.046867
     68 H303        9.1710   -0.7560   -2.5000 hc        1 EPD      0.046867
     69 H291        9.3610    1.0710   -4.1850 hc        1 EPD      0.046867
     70 H292        8.9330    2.7730   -3.6970 hc        1 EPD      0.046867
     71 H293       10.3450    1.9290   -2.9230 hc        1 EPD      0.046867
     72 H14         9.4090    2.5320   -0.8310 h1        1 EPD      0.074700
     73 H1          6.9900    3.4800   -1.9570 ho        1 EPD      0.442000
     74 H151        7.9600    2.6290    0.9780 hc        1 EPD      0.090200
     75 H152        7.8630    0.8960    0.4630 hc        1 EPD      0.090200
@<TRIPOS>BOND
     1    1    2 1   
     2    1   35 1   
     3    1   36 1   
     4    1   37 1   
     5    2    3 2   
     6    2   15 1   
     7    3    4 1   
     8    3   38 1   
     9    4    5 1   
    10    4   39 1   
    11    4   40 1   
    12    5    6 1   
    13    5   34 1   
    14    5   41 1   
    15    6    7 1   
    16    6    8 2   
    17    7   42 1   
    18    7   43 1   
    19    7   44 1   
    20    8    9 1   
    21    8   45 1   
    22    9   10 2   
    23    9   14 1   
    24   10   11 1   
    25   10   46 1   
    26   11   12 1   
    27   12   13 1   
    28   12   14 2   
    29   13   47 1   
    30   13   48 1   
    31   13   49 1   
    32   15   16 1   
    33   15   50 1   
    34   15   51 1   
    35   16   17 1   
    36   16   52 1   
    37   16   53 1   
    38   17   18 1   
    39   17   54 1   
    40   17   55 1   
    41   18   19 1   
    42   18   20 1   
    43   18   56 1   
    44   19   57 1   
    45   19   58 1   
    46   19   59 1   
    47   20   21 1   
    48   20   22 1   
    49   20   60 1   
    50   21   61 1   
    51   22   23 1   
    52   22   24 1   
    53   22   62 1   
    54   23   63 1   
    55   23   64 1   
    56   23   65 1   
    57   24   25 2   
    58   24   26 1   
    59   26   27 1   
    60   26   28 1   
    61   26   29 1   
    62   27   66 1   
    63   27   67 1   
    64   27   68 1   
    65   28   69 1   
    66   28   70 1   
    67   28   71 1   
    68   29   30 1   
    69   29   31 1   
    70   29   72 1   
    71   30   73 1   
    72   31   32 1   
    73   31   74 1   
    74   31   75 1   
    75   32   33 2   
    76   32   34 1   
@<TRIPOS>SUBSTRUCTURE
     1 EPD         1 TEMP              0 ****  ****    0 ROOT
