@<TRIPOS>MOLECULE
EPD
   75    76     1     0     0
SMALL
bcc


@<TRIPOS>ATOM
      1 C51         1.2700    4.6360   -0.2370 c3        1 EPD     -0.061900
      2 C5          0.5180    3.3920    0.0690 c2        1 EPD     -0.102400
      3 C4          1.1040    2.3800    0.7270 c2        1 EPD     -0.182200
      4 C3          0.4540    1.1170    1.1430 c3        1 EPD     -0.044200
      5 C2          0.9080   -0.0690    0.2850 c3        1 EPD      0.183300
      6 C20         2.3700   -0.3840    0.4770 c2        1 EPD     -0.099400
      7 C21         2.7750   -0.8030    1.8370 c3        1 EPD     -0.055900
      8 C22         3.2000   -0.2610   -0.5740 ce        1 EPD     -0.205800
      9 C23         4.6340   -0.4730   -0.5940 cc        1 EPD      0.398100
     10 C24         5.3290   -0.7340   -1.7790 cd        1 EPD     -0.251400
     11 S1          6.9590   -0.9060   -1.4890 ss        1 EPD     -0.100300
     12 C25         6.7160   -0.6270    0.1980 cd        1 EPD      0.397700
     13 C27         7.8600   -0.6360    1.1340 c3        1 EPD     -0.130400
     14 N26         5.4460   -0.4120    0.5410 nc        1 EPD     -0.628000
     15 C6         -0.8850    3.3710   -0.4320 c3        1 EPD     -0.050200
     16 C7         -1.8930    3.7350    0.6440 c3        1 EPD     -0.071400
     17 C8         -3.3170    3.7170    0.1220 c3        1 EPD     -0.073400
     18 C9         -4.1070    2.4450    0.4140 c3        1 EPD     -0.058700
     19 C91        -4.2300    2.1980    1.9030 c3        1 EPD     -0.095100
     20 C10        -3.4900    1.2360   -0.2990 c3        1 EPD      0.159100
     21 O10        -3.3560    1.5860   -1.6680 oh        1 EPD     -0.603800
     22 C11        -4.3210   -0.0530   -0.1380 c3        1 EPD     -0.198700
     23 C28        -5.5260   -0.0650   -1.0560 c3        1 EPD     -0.083100
     24 C12        -3.4300   -1.2410   -0.4510 c         1 EPD      0.582100
     25 O12        -2.7580   -1.2460   -1.4900 o         1 EPD     -0.544100
     26 C13        -3.3970   -2.4000    0.5330 c3        1 EPD     -0.172000
     27 C30        -3.0440   -1.8950    1.9240 c3        1 EPD     -0.092600
     28 C29        -4.7900   -3.0290    0.5590 c3        1 EPD     -0.092600
     29 C14        -2.4010   -3.5170    0.1210 c3        1 EPD      0.173100
     30 O14        -2.5180   -3.8580   -1.2420 oh        1 EPD     -0.600800
     31 C15        -0.9450   -3.2980    0.5270 c3        1 EPD     -0.169400
     32 C16        -0.2620   -2.1450   -0.1410 c         1 EPD      0.636100
     33 O16         0.0050   -2.0050   -1.3340 o         1 EPD     -0.525000
     34 O1          0.1140   -1.1820    0.7560 os        1 EPD     -0.449900
     35 H511        2.2860    4.6340    0.2300 hc        1 EPD      0.042367
     36 H512        1.3910    4.7470   -1.3430 hc        1 EPD      0.042367
     37 H513        0.7060    5.5240    0.1440 hc        1 EPD      0.042367
     38 H4          2.1660    2.4580    1.0230 ha        1 EPD      0.128000
     39 H31         0.7110    0.9080    2.2170 hc        1 EPD      0.056200
     40 H32        -0.6640    1.1900    1.0780 hc        1 EPD      0.056200
     41 H2          0.6720    0.1240   -0.7990 h1        1 EPD      0.084700
     42 H211        3.4510   -1.6930    1.7950 hc        1 EPD      0.051367
     43 H212        3.3240    0.0280    2.3490 hc        1 EPD      0.051367
     44 H213        1.8810   -1.0710    2.4530 hc        1 EPD      0.051367
     45 H22         2.7920    0.0200   -1.5640 ha        1 EPD      0.136000
     46 H24         4.8670   -0.8180   -2.7610 h4        1 EPD      0.184000
     47 H271        8.8100   -0.8370    0.5800 hc        1 EPD      0.058367
     48 H272        7.9490    0.3520    1.6530 hc        1 EPD      0.058367
     49 H273        7.7230   -1.4290    1.9120 hc        1 EPD      0.058367
     50 H61        -0.9860    4.0990   -1.2840 hc        1 EPD      0.053200
     51 H62        -1.1310    2.3570   -0.8510 hc        1 EPD      0.053200
     52 H71        -1.7870    3.0350    1.5130 hc        1 EPD      0.039700
     53 H72        -1.6550    4.7650    1.0220 hc        1 EPD      0.039700
     54 H81        -3.8790    4.5750    0.5790 hc        1 EPD      0.050700
     55 H82        -3.3120    3.8750   -0.9910 hc        1 EPD      0.050700
     56 H9         -5.1400    2.5980   -0.0130 hc        1 EPD      0.057700
     57 H911       -4.3300    3.1690    2.4470 hc        1 EPD      0.035700
     58 H912       -5.1330    1.5810    2.1280 hc        1 EPD      0.035700
     59 H913       -3.3330    1.6640    2.3000 hc        1 EPD      0.035700
     60 H10        -2.4660    1.0400    0.1370 h1        1 EPD      0.034700
     61 H3         -2.9410    0.8330   -2.1130 ho        1 EPD      0.425000
     62 H11        -4.6730   -0.1160    0.9270 hc        1 EPD      0.073700
     63 H281       -5.2020    0.0310   -2.1210 hc        1 EPD      0.048367
     64 H282       -6.1000   -1.0150   -0.9370 hc        1 EPD      0.048367
     65 H283       -6.1950    0.7950   -0.8110 hc        1 EPD      0.048367
     66 H301       -3.8780   -1.2900    2.3550 hc        1 EPD      0.048700
     67 H302       -2.8650   -2.7620    2.6060 hc        1 EPD      0.048700
     68 H303       -2.1210   -1.2640    1.8900 hc        1 EPD      0.048700
     69 H291       -5.0170   -3.4830   -0.4360 hc        1 EPD      0.048700
     70 H292       -4.8300   -3.8280    1.3370 hc        1 EPD      0.048700
     71 H293       -5.5640   -2.2610    0.8000 hc        1 EPD      0.048700
     72 H14        -2.7370   -4.4590    0.6580 h1        1 EPD      0.072700
     73 H1         -2.0450   -3.1920   -1.7680 ho        1 EPD      0.441000
     74 H151       -0.8740   -3.1840    1.6410 hc        1 EPD      0.088200
     75 H152       -0.3690   -4.2190    0.2310 hc        1 EPD      0.088200
@<TRIPOS>BOND
     1    1    2 1   
     2    1   35 1   
     3    1   36 1   
     4    1   37 1   
     5    2    3 2   
     6    2   15 1   
     7    3    4 1   
     8    3   38 1   
     9    4    5 1   
    10    4   39 1   
    11    4   40 1   
    12    5    6 1   
    13    5   34 1   
    14    5   41 1   
    15    6    7 1   
    16    6    8 2   
    17    7   42 1   
    18    7   43 1   
    19    7   44 1   
    20    8    9 1   
    21    8   45 1   
    22    9   10 2   
    23    9   14 1   
    24   10   11 1   
    25   10   46 1   
    26   11   12 1   
    27   12   13 1   
    28   12   14 2   
    29   13   47 1   
    30   13   48 1   
    31   13   49 1   
    32   15   16 1   
    33   15   50 1   
    34   15   51 1   
    35   16   17 1   
    36   16   52 1   
    37   16   53 1   
    38   17   18 1   
    39   17   54 1   
    40   17   55 1   
    41   18   19 1   
    42   18   20 1   
    43   18   56 1   
    44   19   57 1   
    45   19   58 1   
    46   19   59 1   
    47   20   21 1   
    48   20   22 1   
    49   20   60 1   
    50   21   61 1   
    51   22   23 1   
    52   22   24 1   
    53   22   62 1   
    54   23   63 1   
    55   23   64 1   
    56   23   65 1   
    57   24   25 2   
    58   24   26 1   
    59   26   27 1   
    60   26   28 1   
    61   26   29 1   
    62   27   66 1   
    63   27   67 1   
    64   27   68 1   
    65   28   69 1   
    66   28   70 1   
    67   28   71 1   
    68   29   30 1   
    69   29   31 1   
    70   29   72 1   
    71   30   73 1   
    72   31   32 1   
    73   31   74 1   
    74   31   75 1   
    75   32   33 2   
    76   32   34 1   
@<TRIPOS>SUBSTRUCTURE
     1 EPD         1 TEMP              0 ****  ****    0 ROOT
