@<TRIPOS>MOLECULE
EPD
   75    72     1     0     0
SMALL
bcc


@<TRIPOS>ATOM
      1 C51        -1.7430   -1.6950   -0.9830 c3        1 EPD     -0.191000
      2 C5         -0.2240   -1.6030   -0.9810 c2        1 EPD     -0.094000
      3 C4          0.5750   -1.6300    0.4000 c1        1 EPD     -0.177000
      4 C3         -0.2310   -1.7540    1.8010 c2        1 EPD     -0.156000
      5 C2         -1.6770   -1.9050    1.5340 c3        1 EPD      0.092000
      6 C20        -2.4120   -2.1980    2.8480 c2        1 EPD     -0.083000
      7 C21        -3.0450   -1.0490    3.6430 c3        1 EPD     -0.189000
      8 C22        -2.4490   -3.4920    3.3510 c1        1 EPD     -0.112000
      9 C23        -1.8230   -4.6290    2.5680 c1        1 EPD     -0.043000
     10 C24        -2.4780   -5.3960    1.5330 c1        1 EPD     -0.456000
     11 S1         -1.5800   -6.5860    1.1890 ss        1 EPD      0.485000
     12 C25        -0.3230   -6.4990    2.0870 c1        1 EPD     -0.272000
     13 C27         0.7880   -7.5340    2.1670 c2        1 EPD     -0.156000
     14 N26        -0.4530   -5.3380    2.9140 n2        1 EPD     -0.108000
     15 C6          0.5740   -1.4320   -2.3700 c3        1 EPD     -0.126000
     16 C7          1.5580   -0.2050   -2.2670 c3        1 EPD     -0.153000
     17 C8          0.8480    1.0890   -2.8270 c3        1 EPD     -0.133000
     18 C9          1.9160    2.1130   -3.3010 c3        1 EPD     -0.104000
     19 C91         3.0920    1.3850   -3.8600 c3        1 EPD     -0.209000
     20 C10         2.3590    2.9650   -2.1320 c3        1 EPD      0.047000
     21 O10         2.6870    2.1370   -1.0450 oh        1 EPD     -0.320000
     22 C11         1.2300    3.9030   -1.7340 c3        1 EPD     -0.185000
     23 C28         0.7140    4.5970   -2.9490 c3        1 EPD     -0.207000
     24 C12         0.0920    3.0970   -1.0790 c2        1 EPD      0.255000
     25 O12        -1.0460    3.2040   -1.4930 o         1 EPD     -0.290000
     26 C13         0.3600    2.9600    0.4810 c3        1 EPD     -0.083000
     27 C30         1.2560    4.1110    0.9500 c3        1 EPD     -0.205500
     28 C29         1.0440    1.6490    0.7580 c3        1 EPD     -0.205500
     29 C14        -0.9480    3.0100    1.2180 c3        1 EPD      0.055000
     30 O14        -1.5870    4.2300    0.9540 oh        1 EPD     -0.320000
     31 C15        -1.8490    1.8410    0.7490 c3        1 EPD     -0.205000
     32 C16        -1.5110    0.5310    1.6000 c2        1 EPD      0.313000
     33 O16        -0.4280    0.4120    2.1160 o         1 EPD     -0.363000
     34 O1         -2.1920   -0.6860    0.9540 os        1 EPD     -0.282000
     35 H511       -2.0640   -1.8130   -1.9070 hc        1 EPD      0.083000
     36 H512       -2.0230   -2.4570   -0.4430 hc        1 EPD      0.083000
     37 H513       -2.1190   -0.8760   -0.6100 hc        1 EPD      0.083000
     38 H4          1.5510   -1.5710    0.4010 ha        1 EPD      0.118000
     39 H31         0.0950   -2.5400    2.2970 ha        1 EPD      0.116500
     40 H32        -0.0820   -0.9500    2.3320 ha        1 EPD      0.116500
     41 H2         -1.8170   -2.6500    0.9080 h1        1 EPD      0.132000
     42 H211       -3.6910   -1.4160    4.2960 hc        1 EPD      0.091667
     43 H212       -3.5040   -0.4500    3.0360 hc        1 EPD      0.091667
     44 H213       -2.3430   -0.5550    4.1210 hc        1 EPD      0.091667
     45 H22        -2.9180   -3.6760    4.1880 ha        1 EPD      0.133000
     46 H24        -3.3370   -5.1920    1.1270 DU        1 EPD      0.183000
     47 H271        1.6580   -7.0780    2.2280 ha        1 EPD      0.098667
     48 H272        0.6560   -8.0960    2.9630 ha        1 EPD      0.098667
     49 H273        0.7690   -8.0970    1.3630 ha        1 EPD      0.098667
     50 H61        -0.0650   -1.2770   -3.0960 hc        1 EPD      0.083000
     51 H62         1.0880   -2.2470   -2.5540 hc        1 EPD      0.083000
     52 H71         1.8030   -0.0630   -1.3320 hc        1 EPD      0.092000
     53 H72         2.3670   -0.3900   -2.7940 hc        1 EPD      0.092000
     54 H81         0.3070    1.4900   -2.1250 hc        1 EPD      0.076500
     55 H82         0.2710    0.8440   -3.5860 hc        1 EPD      0.076500
     56 H9          1.5320    2.6860   -3.9920 hc        1 EPD      0.111000
     57 H911        3.6870    2.0250   -4.3180 hc        1 EPD      0.075667
     58 H912        3.5790    0.9490   -3.1350 hc        1 EPD      0.075667
     59 H913        2.7840    0.7110   -4.4990 hc        1 EPD      0.075667
     60 H10         3.1420    3.4890   -2.3890 h1        1 EPD      0.072000
     61 H3          3.4760    2.3800   -0.7140 ho        1 EPD      0.194000
     62 H11         1.5620    4.5580   -1.1080 hc        1 EPD      0.098000
     63 H281        0.0470    4.0320   -3.3900 hc        1 EPD      0.085333
     64 H282        1.4550    4.7680   -3.5670 hc        1 EPD      0.085333
     65 H283        0.3020    5.4470   -2.6910 hc        1 EPD      0.085333
     66 H301        1.9970    3.7520    1.4910 hc        1 EPD      0.088000
     67 H302        1.6140    4.5740    0.1820 hc        1 EPD      0.088000
     68 H303        0.7220    4.7440    1.4990 hc        1 EPD      0.088000
     69 H291        1.8430    1.8070    1.3010 hc        1 EPD      0.088000
     70 H292        0.4340    1.0600    1.2400 hc        1 EPD      0.088000
     71 H293        1.3010    1.2320   -0.0850 hc        1 EPD      0.088000
     72 H14        -0.7840    2.9310    2.1740 h1        1 EPD      0.093000
     73 H1         -1.9170    4.5640    1.7140 ho        1 EPD      0.201000
     74 H151       -2.7880    2.0810    0.8790 hc        1 EPD      0.138500
     75 H152       -1.6860    1.6650   -0.1970 hc        1 EPD      0.138500
@<TRIPOS>BOND
     1    1    2 1   
     2    1   35 1   
     3    1   36 1   
     4    1   37 1   
     5    2    3 1   
     6    2   15 1   
     7    3   38 1   
     8    4    5 1   
     9    4   39 1   
    10    4   40 1   
    11    5    6 1   
    12    5   34 1   
    13    5   41 1   
    14    6    7 1   
    15    6    8 1   
    16    7   42 1   
    17    7   43 1   
    18    7   44 1   
    19    8   45 1   
    20    9   10 1   
    21    9   14 1   
    22   10   11 1   
    23   11   12 1   
    24   12   14 1   
    25   13   47 1   
    26   13   48 1   
    27   13   49 1   
    28   15   16 1   
    29   15   50 1   
    30   15   51 1   
    31   16   17 1   
    32   16   52 1   
    33   16   53 1   
    34   17   18 1   
    35   17   54 1   
    36   17   55 1   
    37   18   19 1   
    38   18   20 1   
    39   18   56 1   
    40   19   57 1   
    41   19   58 1   
    42   19   59 1   
    43   20   21 1   
    44   20   22 1   
    45   20   60 1   
    46   21   61 1   
    47   22   23 1   
    48   22   24 1   
    49   22   62 1   
    50   23   63 1   
    51   23   64 1   
    52   23   65 1   
    53   24   25 1   
    54   24   26 1   
    55   26   27 1   
    56   26   28 1   
    57   26   29 1   
    58   27   66 1   
    59   27   67 1   
    60   27   68 1   
    61   28   69 1   
    62   28   70 1   
    63   28   71 1   
    64   29   30 1   
    65   29   31 1   
    66   29   72 1   
    67   30   73 1   
    68   31   32 1   
    69   31   74 1   
    70   31   75 1   
    71   32   33 1   
    72   32   34 1   
@<TRIPOS>SUBSTRUCTURE
     1 EPD         1 TEMP              0 ****  ****    0 ROOT
