@<TRIPOS>MOLECULE
EPD
   75    76     1     0     0
SMALL
bcc


@<TRIPOS>ATOM
      1 C51        -0.0520   -0.1800    0.2620 c3        1 EPD     -0.060900
      2 C5          1.4170   -0.1120    0.0480 c2        1 EPD     -0.102400
      3 C4          2.2510    0.1030    1.0760 c2        1 EPD     -0.180200
      4 C3          3.7280    0.1340    1.0090 c3        1 EPD     -0.044200
      5 C2          4.2880    1.5360    1.2670 c3        1 EPD      0.183300
      6 C20         4.0040    2.0160    2.6670 c2        1 EPD     -0.098400
      7 C21         4.6040    1.2240    3.7640 c3        1 EPD     -0.055900
      8 C22         3.2350    3.1070    2.8320 ce        1 EPD     -0.206800
      9 C23         2.8110    3.7040    4.0850 cc        1 EPD      0.398100
     10 C24         2.4030    5.0380    4.1690 cd        1 EPD     -0.251400
     11 S1          1.9530    5.4260    5.7240 ss        1 EPD     -0.101300
     12 C25         2.3000    3.8210    6.2550 cd        1 EPD      0.397700
     13 C27         2.0990    3.4360    7.6670 c3        1 EPD     -0.130400
     14 N26         2.7460    3.0100    5.2950 nc        1 EPD     -0.628000
     15 C6          1.8510   -0.2670   -1.3700 c3        1 EPD     -0.055200
     16 C7          2.4030   -1.6490   -1.6670 c3        1 EPD     -0.071400
     17 C8          2.9070   -1.7730   -3.0920 c3        1 EPD     -0.072400
     18 C9          4.4010   -1.5410   -3.2880 c3        1 EPD     -0.094700
     19 C91         5.2220   -2.4820   -2.4300 c3        1 EPD     -0.091100
     20 C10         4.7850   -0.0750   -3.0320 c3        1 EPD      0.150100
     21 O10         3.8710    0.8100   -3.6510 oh        1 EPD     -0.577800
     22 C11         6.2400    0.2190   -3.4490 c3        1 EPD     -0.191700
     23 C28         6.3510    0.6560   -4.8950 c3        1 EPD     -0.095100
     24 C12         6.8150    1.3020   -2.5530 c         1 EPD      0.576100
     25 O12         6.2880    2.4150   -2.4940 o         1 EPD     -0.508100
     26 C13         8.0760    0.9650   -1.7680 c3        1 EPD     -0.174000
     27 C30         7.8680   -0.3010   -0.9510 c3        1 EPD     -0.093100
     28 C29         9.2000    0.7430   -2.7800 c3        1 EPD     -0.093100
     29 C14         8.5400    2.1130   -0.8310 c3        1 EPD      0.173100
     30 O14         8.4930    3.3720   -1.4620 oh        1 EPD     -0.601800
     31 C15         7.8980    2.1530    0.5550 c3        1 EPD     -0.169400
     32 C16         6.4270    2.4340    0.5720 c         1 EPD      0.635100
     33 O16         5.8420    3.4580    0.2220 o         1 EPD     -0.521000
     34 O1          5.7160    1.3870    1.0900 os        1 EPD     -0.451900
     35 H511       -0.5540    0.6680   -0.2680 hc        1 EPD      0.041700
     36 H512       -0.4520   -1.1380   -0.1530 hc        1 EPD      0.041700
     37 H513       -0.3170   -0.1240    1.3460 hc        1 EPD      0.041700
     38 H4          1.8440    0.2580    2.0920 ha        1 EPD      0.129000
     39 H31         4.1440   -0.5700    1.7810 hc        1 EPD      0.055200
     40 H32         4.1050   -0.2110    0.0090 hc        1 EPD      0.055200
     41 H2          3.8920    2.2610    0.5000 h1        1 EPD      0.088700
     42 H211        5.3990    0.5420    3.3720 hc        1 EPD      0.051033
     43 H212        3.8180    0.6040    4.2650 hc        1 EPD      0.051033
     44 H213        5.0640    1.8930    4.5330 hc        1 EPD      0.051033
     45 H22         2.8670    3.6570    1.9450 ha        1 EPD      0.137000
     46 H24         2.3860    5.7340    3.3320 h4        1 EPD      0.185000
     47 H271        1.3610    2.5970    7.7440 hc        1 EPD      0.057700
     48 H272        3.0640    3.0950    8.1220 hc        1 EPD      0.057700
     49 H273        1.7140    4.3060    8.2530 hc        1 EPD      0.057700
     50 H61         0.9770   -0.0740   -2.0510 hc        1 EPD      0.058700
     51 H62         2.6230    0.5130   -1.6190 hc        1 EPD      0.058700
     52 H71         1.5860   -2.4020   -1.5040 hc        1 EPD      0.041200
     53 H72         3.2210   -1.8960   -0.9410 hc        1 EPD      0.041200
     54 H81         2.6770   -2.8080   -3.4620 hc        1 EPD      0.044200
     55 H82         2.3470   -1.0530   -3.7480 hc        1 EPD      0.044200
     56 H9          4.6250   -1.7620   -4.3720 hc        1 EPD      0.042700
     57 H911        5.4060   -2.0460   -1.4170 hc        1 EPD      0.037367
     58 H912        6.2130   -2.6890   -2.9030 hc        1 EPD      0.037367
     59 H913        4.6900   -3.4570   -2.3040 hc        1 EPD      0.037367
     60 H10         4.6700    0.1540   -1.9310 h1        1 EPD      0.081700
     61 H3          3.8770    0.6230   -4.5990 ho        1 EPD      0.397000
     62 H11         6.8360   -0.7260   -3.3200 hc        1 EPD      0.068700
     63 H281        5.8670   -0.0970   -5.5620 hc        1 EPD      0.048033
     64 H282        5.8550    1.6470   -5.0410 hc        1 EPD      0.048033
     65 H283        7.4260    0.7510   -5.1860 hc        1 EPD      0.048033
     66 H301        7.7730   -1.1960   -1.6120 hc        1 EPD      0.047200
     67 H302        6.9420   -0.2180   -0.3280 hc        1 EPD      0.047200
     68 H303        8.7450   -0.4660   -0.2770 hc        1 EPD      0.047200
     69 H291        8.9000   -0.0080   -3.5490 hc        1 EPD      0.047200
     70 H292        9.4460    1.7080   -3.2860 hc        1 EPD      0.047200
     71 H293       10.1130    0.3670   -2.2580 hc        1 EPD      0.047200
     72 H14         9.6490    1.9500   -0.6510 h1        1 EPD      0.070700
     73 H1          7.5730    3.6840   -1.4610 ho        1 EPD      0.443000
     74 H151        8.1040    1.1930    1.0970 hc        1 EPD      0.087200
     75 H152        8.3850    2.9910    1.1280 hc        1 EPD      0.087200
@<TRIPOS>BOND
     1    1    2 1   
     2    1   35 1   
     3    1   36 1   
     4    1   37 1   
     5    2    3 2   
     6    2   15 1   
     7    3    4 1   
     8    3   38 1   
     9    4    5 1   
    10    4   39 1   
    11    4   40 1   
    12    5    6 1   
    13    5   34 1   
    14    5   41 1   
    15    6    7 1   
    16    6    8 2   
    17    7   42 1   
    18    7   43 1   
    19    7   44 1   
    20    8    9 1   
    21    8   45 1   
    22    9   10 2   
    23    9   14 1   
    24   10   11 1   
    25   10   46 1   
    26   11   12 1   
    27   12   13 1   
    28   12   14 2   
    29   13   47 1   
    30   13   48 1   
    31   13   49 1   
    32   15   16 1   
    33   15   50 1   
    34   15   51 1   
    35   16   17 1   
    36   16   52 1   
    37   16   53 1   
    38   17   18 1   
    39   17   54 1   
    40   17   55 1   
    41   18   19 1   
    42   18   20 1   
    43   18   56 1   
    44   19   57 1   
    45   19   58 1   
    46   19   59 1   
    47   20   21 1   
    48   20   22 1   
    49   20   60 1   
    50   21   61 1   
    51   22   23 1   
    52   22   24 1   
    53   22   62 1   
    54   23   63 1   
    55   23   64 1   
    56   23   65 1   
    57   24   25 2   
    58   24   26 1   
    59   26   27 1   
    60   26   28 1   
    61   26   29 1   
    62   27   66 1   
    63   27   67 1   
    64   27   68 1   
    65   28   69 1   
    66   28   70 1   
    67   28   71 1   
    68   29   30 1   
    69   29   31 1   
    70   29   72 1   
    71   30   73 1   
    72   31   32 1   
    73   31   74 1   
    74   31   75 1   
    75   32   33 2   
    76   32   34 1   
@<TRIPOS>SUBSTRUCTURE
     1 EPD         1 TEMP              0 ****  ****    0 ROOT
