@<TRIPOS>MOLECULE
EPE
   32    32     1     0     0
SMALL
bcc


@<TRIPOS>ATOM
      1 N1         -0.0270   -0.2050   -0.0640 n3        1 EPE     -0.728600
      2 C2          1.4270   -0.2450   -0.0310 c3        1 EPE      0.169800
      3 C3          1.9960   -0.1740    1.3980 c3        1 EPE      0.167300
      4 N4          1.4080   -1.1570    2.3000 n3        1 EPE     -0.739600
      5 C5         -0.0480   -1.1650    2.2400 c3        1 EPE      0.167300
      6 C6         -0.6050   -1.2170    0.8040 c3        1 EPE      0.169800
      7 C7          1.9090   -1.0160    3.6590 c3        1 EPE      0.129800
      8 C8          1.8210   -2.3140    4.4730 c3        1 EPE      0.135400
      9 O8          2.7220   -3.3000    4.0130 oh        1 EPE     -0.612800
     10 C9         -0.5270   -0.2600   -1.4380 c3        1 EPE      0.204800
     11 C10        -2.0290   -0.2750   -1.5890 c3        1 EPE     -0.291600
     12 S          -2.5230   -0.1190   -3.3020 s6        1 EPE      1.427800
     13 O1S        -1.7780    0.9720   -3.8090 o         1 EPE     -0.750200
     14 O2S        -2.1840   -1.3620   -3.8860 o         1 EPE     -0.750200
     15 O3S        -3.9150    0.1190   -3.2250 o         1 EPE     -0.750200
     16 H21         1.8380   -1.1700   -0.5350 h1        1 EPE      0.038200
     17 H22         1.8090    0.6500   -0.5960 h1        1 EPE      0.038200
     18 H31         3.1010   -0.3820    1.3400 h1        1 EPE      0.026950
     19 H32         1.8610    0.8760    1.7890 h1        1 EPE      0.026950
     20 H51        -0.4070   -2.0850    2.7810 h1        1 EPE      0.026950
     21 H52        -0.4860   -0.2660    2.7630 h1        1 EPE      0.026950
     22 H61        -0.4560   -2.2590    0.3960 h1        1 EPE      0.038200
     23 H62        -1.7130   -1.0240    0.8640 h1        1 EPE      0.038200
     24 H71         2.9950   -0.7190    3.6120 h1        1 EPE      0.036200
     25 H72         1.3590   -0.2130    4.2330 h1        1 EPE      0.036200
     26 H81         0.7760   -2.7230    4.4780 h1        1 EPE      0.037700
     27 H82         2.1430   -2.1060    5.5290 h1        1 EPE      0.037700
     28 HO8         2.5510   -3.4300    3.0720 ho        1 EPE      0.418000
     29 H91        -0.1130   -1.1640   -1.9790 h1        1 EPE      0.045200
     30 H92        -0.1300    0.6630   -1.9560 h1        1 EPE      0.045200
     31 H101       -2.4540   -1.2280   -1.1950 h1        1 EPE      0.067700
     32 H102       -2.4900    0.5590   -1.0100 h1        1 EPE      0.067700
@<TRIPOS>BOND
     1    1    2 1   
     2    1    6 1   
     3    1   10 1   
     4    2    3 1   
     5    2   16 1   
     6    2   17 1   
     7    3    4 1   
     8    3   18 1   
     9    3   19 1   
    10    4    5 1   
    11    4    7 1   
    12    5    6 1   
    13    5   20 1   
    14    5   21 1   
    15    6   22 1   
    16    6   23 1   
    17    7    8 1   
    18    7   24 1   
    19    7   25 1   
    20    8    9 1   
    21    8   26 1   
    22    8   27 1   
    23    9   28 1   
    24   10   11 1   
    25   10   29 1   
    26   10   30 1   
    27   11   12 1   
    28   11   31 1   
    29   11   32 1   
    30   12   13 1   
    31   12   14 1   
    32   12   15 1   
@<TRIPOS>SUBSTRUCTURE
     1 EPE         1 TEMP              0 ****  ****    0 ROOT
