@<TRIPOS>MOLECULE
EPE
   32    32     1     0     0
SMALL
bcc


@<TRIPOS>ATOM
      1 N1         -0.0300   -0.2010   -0.0600 n3        1 EPE     -0.728600
      2 C2          1.4240   -0.2300   -0.0240 c3        1 EPE      0.169800
      3 C3          1.9890   -0.1650    1.4070 c3        1 EPE      0.167300
      4 N4          1.4070   -1.1590    2.3010 n3        1 EPE     -0.740600
      5 C5         -0.0490   -1.1780    2.2370 c3        1 EPE      0.167300
      6 C6         -0.6030   -1.2230    0.8000 c3        1 EPE      0.169800
      7 C7          1.9040   -1.0240    3.6620 c3        1 EPE      0.129800
      8 C8          1.8250   -2.3290    4.4650 c3        1 EPE      0.135400
      9 O8          2.7350   -3.3040    4.0000 oh        1 EPE     -0.612800
     10 C9         -0.5280   -0.2500   -1.4350 c3        1 EPE      0.204800
     11 C10        -2.0280   -0.2760   -1.5900 c3        1 EPE     -0.291600
     12 S          -2.5200   -0.1110   -3.3030 s6        1 EPE      1.427800
     13 O1S        -1.7820    0.9890   -3.8000 o         1 EPE     -0.750200
     14 O2S        -2.1710   -1.3480   -3.8950 o         1 EPE     -0.750200
     15 O3S        -3.9140    0.1160   -3.2270 o         1 EPE     -0.750200
     16 H21         1.8000    0.6720   -0.5820 h1        1 EPE      0.038200
     17 H22         1.8430   -1.1480   -0.5330 h1        1 EPE      0.038200
     18 H31         1.8460    0.8820    1.8050 h1        1 EPE      0.026950
     19 H32         3.0960   -0.3640    1.3500 h1        1 EPE      0.026950
     20 H51        -0.4950   -0.2850    2.7660 h1        1 EPE      0.026950
     21 H52        -0.4020   -2.1040    2.7710 h1        1 EPE      0.026950
     22 H61        -0.4460   -2.2610    0.3840 h1        1 EPE      0.038200
     23 H62        -1.7120   -1.0380    0.8590 h1        1 EPE      0.038200
     24 H71         1.3470   -0.2300    4.2400 h1        1 EPE      0.036200
     25 H72         2.9880   -0.7190    3.6190 h1        1 EPE      0.036200
     26 H81         2.1430   -2.1270    5.5240 h1        1 EPE      0.037700
     27 H82         0.7830   -2.7470    4.4650 h1        1 EPE      0.037700
     28 HO8         2.5670   -3.4280    3.0570 ho        1 EPE      0.418000
     29 H91        -0.1050   -1.1470   -1.9820 h1        1 EPE      0.045200
     30 H92        -0.1370    0.6800   -1.9460 h1        1 EPE      0.045200
     31 H101       -2.4470   -1.2350   -1.2040 h1        1 EPE      0.067700
     32 H102       -2.4980    0.5510   -1.0050 h1        1 EPE      0.067700
@<TRIPOS>BOND
     1    1    2 1   
     2    1    6 1   
     3    1   10 1   
     4    2    3 1   
     5    2   16 1   
     6    2   17 1   
     7    3    4 1   
     8    3   18 1   
     9    3   19 1   
    10    4    5 1   
    11    4    7 1   
    12    5    6 1   
    13    5   20 1   
    14    5   21 1   
    15    6   22 1   
    16    6   23 1   
    17    7    8 1   
    18    7   24 1   
    19    7   25 1   
    20    8    9 1   
    21    8   26 1   
    22    8   27 1   
    23    9   28 1   
    24   10   11 1   
    25   10   29 1   
    26   10   30 1   
    27   11   12 1   
    28   11   31 1   
    29   11   32 1   
    30   12   13 1   
    31   12   14 1   
    32   12   15 1   
@<TRIPOS>SUBSTRUCTURE
     1 EPE         1 TEMP              0 ****  ****    0 ROOT
