@<TRIPOS>MOLECULE
EPE
   32    32     1     0     0
SMALL
bcc


@<TRIPOS>ATOM
      1 N1         -0.6610   -0.1960    0.2330 n3        1 EPE     -0.728600
      2 C2         -1.4530    0.6850    1.0780 c3        1 EPE      0.169800
      3 C3         -1.5430    0.1940    2.5350 c3        1 EPE      0.167300
      4 N4         -0.2430   -0.0940    3.1260 n3        1 EPE     -0.739600
      5 C5          0.5840   -0.9320    2.2670 c3        1 EPE      0.167300
      6 C6          0.6500   -0.4430    0.8070 c3        1 EPE      0.169800
      7 C7         -0.3640   -0.6260    4.4750 c3        1 EPE      0.129800
      8 C8          0.8840   -0.3830    5.3340 c3        1 EPE      0.135400
      9 O8          1.0590    0.9810    5.6560 oh        1 EPE     -0.612800
     10 C9         -0.6120    0.2950   -1.1450 c3        1 EPE      0.204800
     11 C10         0.2270   -0.5170   -2.1010 c3        1 EPE     -0.291600
     12 S           0.0360    0.0450   -3.7900 s6        1 EPE      1.427800
     13 O1S        -1.3600    0.1490   -3.9940 o         1 EPE     -0.750200
     14 O2S         0.7140    1.2860   -3.8320 o         1 EPE     -0.750200
     15 O3S         0.6560   -0.9740   -4.5500 o         1 EPE     -0.750200
     16 H21        -2.4990    0.7130    0.6610 h1        1 EPE      0.038200
     17 H22        -1.0560    1.7420    1.0790 h1        1 EPE      0.038200
     18 H31        -2.2220   -0.7070    2.5720 h1        1 EPE      0.026950
     19 H32        -2.0220    1.0120    3.1450 h1        1 EPE      0.026950
     20 H51         1.6300   -0.9200    2.6820 h1        1 EPE      0.026950
     21 H52         0.2260   -2.0040    2.2710 h1        1 EPE      0.026950
     22 H61         1.1420   -1.2540    0.2000 h1        1 EPE      0.038200
     23 H62         1.3100    0.4710    0.7620 h1        1 EPE      0.038200
     24 H71        -0.5710   -1.7370    4.4760 h1        1 EPE      0.036200
     25 H72        -1.2300   -0.1160    4.9850 h1        1 EPE      0.036200
     26 H81         1.8080   -0.7800    4.8350 h1        1 EPE      0.037700
     27 H82         0.7500   -0.8940    6.3260 h1        1 EPE      0.037700
     28 HO8         1.0680    1.4740    4.8260 ho        1 EPE      0.418000
     29 H91        -1.6780    0.2910   -1.5200 h1        1 EPE      0.045200
     30 H92        -0.2390    1.3640   -1.1750 h1        1 EPE      0.045200
     31 H101        1.3080   -0.4440   -1.8360 h1        1 EPE      0.067700
     32 H102       -0.0540   -1.5950   -2.0520 h1        1 EPE      0.067700
@<TRIPOS>BOND
     1    1    2 1   
     2    1    6 1   
     3    1   10 1   
     4    2    3 1   
     5    2   16 1   
     6    2   17 1   
     7    3    4 1   
     8    3   18 1   
     9    3   19 1   
    10    4    5 1   
    11    4    7 1   
    12    5    6 1   
    13    5   20 1   
    14    5   21 1   
    15    6   22 1   
    16    6   23 1   
    17    7    8 1   
    18    7   24 1   
    19    7   25 1   
    20    8    9 1   
    21    8   26 1   
    22    8   27 1   
    23    9   28 1   
    24   10   11 1   
    25   10   29 1   
    26   10   30 1   
    27   11   12 1   
    28   11   31 1   
    29   11   32 1   
    30   12   13 1   
    31   12   14 1   
    32   12   15 1   
@<TRIPOS>SUBSTRUCTURE
     1 EPE         1 TEMP              0 ****  ****    0 ROOT
