@<TRIPOS>MOLECULE
EPE
   32    32     1     0     0
SMALL
bcc


@<TRIPOS>ATOM
      1 N1         -0.0200   -0.1980   -0.0610 n3        1 EPE     -0.728600
      2 C2          1.4340   -0.2370   -0.0140 c3        1 EPE      0.169800
      3 C3          1.9890   -0.1780    1.4210 c3        1 EPE      0.167300
      4 N4          1.3940   -1.1690    2.3090 n3        1 EPE     -0.739600
      5 C5         -0.0610   -1.1790    2.2340 c3        1 EPE      0.167300
      6 C6         -0.6050   -1.2180    0.7930 c3        1 EPE      0.169800
      7 C7          1.8810   -1.0400    3.6740 c3        1 EPE      0.129800
      8 C8          1.7880   -2.3460    4.4750 c3        1 EPE      0.135400
      9 O8          2.6940   -3.3260    4.0150 oh        1 EPE     -0.612800
     10 C9         -0.5070   -0.2410   -1.4400 c3        1 EPE      0.204800
     11 C10        -2.0060   -0.2560   -1.6050 c3        1 EPE     -0.291600
     12 S          -2.4850   -0.0850   -3.3220 s6        1 EPE      1.427800
     13 O1S        -1.7340    1.0090   -3.8120 o         1 EPE     -0.750200
     14 O2S        -2.1420   -1.3230   -3.9130 o         1 EPE     -0.750200
     15 O3S        -3.8770    0.1540   -3.2560 o         1 EPE     -0.750200
     16 H21         1.8510   -1.1570   -0.5220 h1        1 EPE      0.038200
     17 H22         1.8210    0.6640   -0.5680 h1        1 EPE      0.038200
     18 H31         1.8500    0.8690    1.8200 h1        1 EPE      0.026950
     19 H32         3.0950   -0.3840    1.3720 h1        1 EPE      0.026950
     20 H51        -0.4250   -2.1030    2.7640 h1        1 EPE      0.026950
     21 H52        -0.5060   -0.2840    2.7610 h1        1 EPE      0.026950
     22 H61        -1.7140   -1.0260    0.8440 h1        1 EPE      0.038200
     23 H62        -0.4510   -2.2560    0.3770 h1        1 EPE      0.038200
     24 H71         2.9680   -0.7420    3.6390 h1        1 EPE      0.036200
     25 H72         1.3250   -0.2430    4.2500 h1        1 EPE      0.036200
     26 H81         0.7430   -2.7560    4.4660 h1        1 EPE      0.037700
     27 H82         2.0990   -2.1470    5.5360 h1        1 EPE      0.037700
     28 HO8         2.5320   -3.4480    3.0700 ho        1 EPE      0.418000
     29 H91        -0.1050    0.6870   -1.9460 h1        1 EPE      0.045200
     30 H92        -0.0870   -1.1400   -1.9850 h1        1 EPE      0.045200
     31 H101       -2.4350   -1.2120   -1.2240 h1        1 EPE      0.067700
     32 H102       -2.4740    0.5730   -1.0230 h1        1 EPE      0.067700
@<TRIPOS>BOND
     1    1    2 1   
     2    1    6 1   
     3    1   10 1   
     4    2    3 1   
     5    2   16 1   
     6    2   17 1   
     7    3    4 1   
     8    3   18 1   
     9    3   19 1   
    10    4    5 1   
    11    4    7 1   
    12    5    6 1   
    13    5   20 1   
    14    5   21 1   
    15    6   22 1   
    16    6   23 1   
    17    7    8 1   
    18    7   24 1   
    19    7   25 1   
    20    8    9 1   
    21    8   26 1   
    22    8   27 1   
    23    9   28 1   
    24   10   11 1   
    25   10   29 1   
    26   10   30 1   
    27   11   12 1   
    28   11   31 1   
    29   11   32 1   
    30   12   13 1   
    31   12   14 1   
    32   12   15 1   
@<TRIPOS>SUBSTRUCTURE
     1 EPE         1 TEMP              0 ****  ****    0 ROOT
