@<TRIPOS>MOLECULE
EPG
   32    33     1     0     0
SMALL
bcc


@<TRIPOS>ATOM
      1 C1         -0.6000    1.1650   -0.0870 c3        1 EPG      0.304900
      2 O1         -0.8000    0.1750    0.9060 os        1 EPG     -0.461600
      3 C2         -1.4190    0.7390   -1.3190 c3        1 EPG      0.095100
      4 O2         -2.7720    0.5130   -0.9910 oh        1 EPG     -0.592800
      5 C3         -0.8080   -0.5130   -1.9650 c3        1 EPG      0.074100
      6 O3         -1.3950   -0.7720   -3.2300 oh        1 EPG     -0.607800
      7 C4          0.6940   -0.2990   -2.2120 c3        1 EPG      0.125100
      8 O4          1.2980   -1.4830   -2.6990 oh        1 EPG     -0.595800
      9 C5          1.3710    0.0490   -0.8750 c3        1 EPG      0.141100
     10 O5          0.7850    1.2400   -0.3370 os        1 EPG     -0.430600
     11 C6          2.8550    0.3580   -1.0740 c3        1 EPG      0.135400
     12 O6          3.4940    0.1190    0.1700 oh        1 EPG     -0.600800
     13 C7         -0.2890    0.5460    2.1910 c3        1 EPG      0.137400
     14 C8         -0.5580   -0.6150    3.1090 cx        1 EPG      0.060100
     15 C9         -0.1300   -0.5460    4.5300 cx        1 EPG      0.058400
     16 O8         -1.5060   -0.3670    4.1630 os        1 EPG     -0.406600
     17 H1         -0.8880    2.1920    0.2740 h2        1 EPG      0.091700
     18 H2         -1.4370    1.5870   -2.0610 h1        1 EPG      0.099700
     19 HO2        -2.7940   -0.0910   -0.2350 ho        1 EPG      0.424000
     20 H3         -0.9630   -1.4030   -1.2920 h1        1 EPG      0.065700
     21 HO3        -2.3530   -0.7250   -3.1050 ho        1 EPG      0.425000
     22 H4          0.8390    0.5330   -2.9560 h1        1 EPG      0.056700
     23 HO4         0.7650   -1.7720   -3.4530 ho        1 EPG      0.426000
     24 H5          1.2410   -0.7940   -0.1420 h1        1 EPG      0.086700
     25 H61         2.9930    1.4270   -1.3850 h1        1 EPG      0.047200
     26 H62         3.2680   -0.3310   -1.8590 h1        1 EPG      0.047200
     27 HO6         4.4210    0.3540    0.0490 ho        1 EPG      0.403000
     28 H71         0.8160    0.7290    2.1040 h1        1 EPG      0.061200
     29 H72        -0.8080    1.4750    2.5470 h1        1 EPG      0.061200
     30 H8         -0.6910   -1.5890    2.5980 h1        1 EPG      0.108700
     31 H91         0.0790   -1.4700    5.1000 h1        1 EPG      0.080200
     32 H92         0.3600    0.3610    4.9280 h1        1 EPG      0.080200
@<TRIPOS>BOND
     1    1    2 1   
     2    1    3 1   
     3    1   10 1   
     4    1   17 1   
     5    2   13 1   
     6    3    4 1   
     7    3    5 1   
     8    3   18 1   
     9    4   19 1   
    10    5    6 1   
    11    5    7 1   
    12    5   20 1   
    13    6   21 1   
    14    7    8 1   
    15    7    9 1   
    16    7   22 1   
    17    8   23 1   
    18    9   10 1   
    19    9   11 1   
    20    9   24 1   
    21   11   12 1   
    22   11   25 1   
    23   11   26 1   
    24   12   27 1   
    25   13   14 1   
    26   13   28 1   
    27   13   29 1   
    28   14   15 1   
    29   14   16 1   
    30   14   30 1   
    31   15   16 1   
    32   15   31 1   
    33   15   32 1   
@<TRIPOS>SUBSTRUCTURE
     1 EPG         1 TEMP              0 ****  ****    0 ROOT
