@<TRIPOS>MOLECULE
EPG
   32    33     1     0     0
SMALL
bcc


@<TRIPOS>ATOM
      1 C1          0.0200   -0.0210   -0.2900 c3        1 EPG      0.288900
      2 O1         -0.5530   -0.2710   -1.5270 os        1 EPG     -0.385600
      3 C2          1.5270   -0.0660   -0.4300 c3        1 EPG      0.110100
      4 O2          1.8980   -1.3010   -1.0770 oh        1 EPG     -0.570800
      5 C3          2.2180    0.0150    0.8820 c3        1 EPG      0.104100
      6 O3          2.0280    1.3450    1.4320 oh        1 EPG     -0.600800
      7 C4          1.6980   -0.9910    1.8590 c3        1 EPG      0.114100
      8 O4          2.0850   -2.3030    1.4250 oh        1 EPG     -0.599800
      9 C5          0.1850   -0.9430    1.9880 c3        1 EPG      0.119100
     10 O5         -0.4920   -1.0190    0.6900 os        1 EPG     -0.435600
     11 C6         -0.2060    0.3410    2.6670 c3        1 EPG      0.093400
     12 O6         -1.4130    0.1470    3.3850 oh        1 EPG     -0.607800
     13 C7         -1.6350    0.5980   -1.8490 c3        1 EPG      0.133400
     14 C8         -2.4220    0.0200   -3.0450 cx        1 EPG      0.021100
     15 C9         -3.0730    0.9890   -3.8930 cx        1 EPG      0.062400
     16 O8         -1.8660    0.3100   -4.3710 os        1 EPG     -0.416600
     17 H1         -0.2440    0.8780    0.0060 h2        1 EPG      0.068700
     18 H2          1.8180    0.6880   -0.9910 h1        1 EPG      0.084700
     19 HO2         2.4690   -1.1290   -1.7420 ho        1 EPG      0.427000
     20 H3          3.1810   -0.1400    0.7460 h1        1 EPG      0.075700
     21 HO3         2.8120    1.7720    1.4590 ho        1 EPG      0.411000
     22 H4          2.0990   -0.8160    2.7410 h1        1 EPG      0.075700
     23 HO4         2.5250   -2.7160    2.0820 ho        1 EPG      0.413000
     24 H5         -0.1100   -1.7000    2.5440 h1        1 EPG      0.091700
     25 H61         0.5050    0.6120    3.2900 h1        1 EPG      0.051700
     26 H62        -0.3350    1.0410    1.9930 h1        1 EPG      0.051700
     27 HO6        -1.4440    0.7140    4.0730 ho        1 EPG      0.408000
     28 H71        -1.2830    1.4850   -2.0860 h1        1 EPG      0.074200
     29 H72        -2.2320    0.6800   -1.0730 h1        1 EPG      0.074200
     30 H8         -2.8810   -0.8440   -2.9560 h1        1 EPG      0.102700
     31 H91        -2.9580    1.9280   -3.6320 h1        1 EPG      0.080200
     32 H92        -3.9170    0.6970   -4.3030 h1        1 EPG      0.080200
@<TRIPOS>BOND
     1    1    2 1   
     2    1    3 1   
     3    1   10 1   
     4    1   17 1   
     5    2   13 1   
     6    3    4 1   
     7    3    5 1   
     8    3   18 1   
     9    4   19 1   
    10    5    6 1   
    11    5    7 1   
    12    5   20 1   
    13    6   21 1   
    14    7    8 1   
    15    7    9 1   
    16    7   22 1   
    17    8   23 1   
    18    9   10 1   
    19    9   11 1   
    20    9   24 1   
    21   11   12 1   
    22   11   25 1   
    23   11   26 1   
    24   12   27 1   
    25   13   14 1   
    26   13   28 1   
    27   13   29 1   
    28   14   15 1   
    29   14   16 1   
    30   14   30 1   
    31   15   16 1   
    32   15   31 1   
    33   15   32 1   
@<TRIPOS>SUBSTRUCTURE
     1 EPG         1 TEMP              0 ****  ****    0 ROOT
