@<TRIPOS>MOLECULE
EPH
  116   108     1     0     0
SMALL
bcc


@<TRIPOS>ATOM
      1 C1         -2.0120    2.4510    1.1180 c3        1 EPH     -0.033000
      2 C2         -0.5520    2.9350    1.0030 c3        1 EPH     -0.013000
      3 C4         -3.2980    0.4720    1.5740 c1        1 EPH      0.311000
      4 O2         -2.0380    1.0080    1.1930 o         1 EPH     -0.276000
      5 O4         -4.1080    1.1720    2.1330 o         1 EPH     -0.367000
      6 C18        -3.6540   -0.9770    1.2160 c3        1 EPH     -0.153000
      7 C19        -3.2280   -1.9200    2.3800 c3        1 EPH     -0.168000
      8 C20        -3.9810   -3.2520    2.2630 c3        1 EPH     -0.152000
      9 C21        -2.9890   -4.4340    2.5010 c3        1 EPH     -0.161000
     10 C22        -3.3820   -5.1790    3.7490 c3        1 EPH     -0.154000
     11 C23        -2.3750   -6.3630    3.9890 c3        1 EPH     -0.132000
     12 C24        -1.1850   -5.8590    4.8420 c2        1 EPH     -0.160000
     13 C25        -0.3810   -6.7510    5.4920 c1        1 EPH     -0.182000
     14 C26        -0.6500   -8.2370    5.3810 c2        1 EPH     -0.128000
     15 C27         0.5830   -9.0140    5.8610 c3        1 EPH     -0.130500
     16 C28         0.6200   -9.0200    7.4220 c2        1 EPH     -0.161500
     17 C29         1.7150   -9.6030    8.1030 c1        1 EPH     -0.177500
     18 C30         2.8750  -10.2350    7.3070 c2        1 EPH     -0.128000
     19 C31         4.0390  -10.5880    8.2740 c3        1 EPH     -0.130500
     20 C32         5.0280  -11.5000    7.5630 c2        1 EPH     -0.161500
     21 C33         6.3180  -11.6670    8.0750 c1        1 EPH     -0.177500
     22 C34         6.7480  -10.9220    9.3760 c2        1 EPH     -0.185000
     23 C37         0.0810    2.9860    2.3880 c3        1 EPH      0.033000
     24 O5          1.3740    2.3620    2.3450 os        1 EPH     -0.735000
     25 C3          0.1550    4.2840   -0.7870 c1        1 EPH      0.333000
     26 O1         -0.5250    4.2230    0.4240 o         1 EPH     -0.271000
     27 O3          0.1900    3.3050   -1.5160 o         1 EPH     -0.393000
     28 C5          0.7750    5.6050   -1.2500 c3        1 EPH     -0.169000
     29 C6         -0.0840    6.2090   -2.3710 c3        1 EPH     -0.152000
     30 C7          0.7130    7.3170   -3.0920 c3        1 EPH     -0.157000
     31 C8         -0.2530    8.2390   -3.8350 c3        1 EPH     -0.157000
     32 C9          0.3160    8.5610   -5.2530 c3        1 EPH     -0.158000
     33 C10        -0.7260    9.2950   -6.0520 c3        1 EPH     -0.156000
     34 C11        -0.7560    8.7510   -7.4640 c3        1 EPH     -0.135000
     35 C12        -2.0140    9.2540   -8.1850 c2        1 EPH     -0.159000
     36 C13        -2.4780    8.5900   -9.3300 c1        1 EPH     -0.178000
     37 C14        -1.7250    7.3510   -9.8660 c2        1 EPH     -0.105000
     38 C15        -2.5980    6.6420  -10.9310 c2        1 EPH     -0.157000
     39 C16        -2.4730    5.3290  -11.1310 c1        1 EPH     -0.174000
     40 C17        -3.3280    4.6400  -12.1690 c2        1 EPH     -0.129000
     41 C35        -2.9300    3.1610  -12.2610 c3        1 EPH     -0.157000
     42 C36        -3.5840    2.5330  -13.4850 c3        1 EPH     -0.210000
     43 P1          2.1920    2.1850    3.7190 p5        1 EPH      1.890000
     44 O6          2.0790    3.4420    4.5390 o         1 EPH     -0.816000
     45 O7          1.6230    1.0200    4.5000 o         1 EPH     -0.816000
     46 O8          3.7210    1.9040    3.3910 os        1 EPH     -0.740000
     47 C38         4.4430    1.0220    4.2400 c3        1 EPH     -0.008000
     48 C39         5.9210    1.4650    4.3060 c3        1 EPH     -0.116000
     49 N1          6.7030    0.4290    4.8870 n3        1 EPH     -0.339000
     50 H11        -2.5190    2.7470    0.3300 h1        1 EPH      0.111500
     51 H12A       -2.4220    2.8300    1.9350 h1        1 EPH      0.111500
     52 H2         -0.0490    2.3160    0.4400 h1        1 EPH      0.143000
     53 H181       -4.6280   -1.0510    1.0730 hc        1 EPH      0.105500
     54 H182       -3.1830   -1.2360    0.3960 hc        1 EPH      0.105500
     55 H191       -3.4420   -1.5010    3.2330 hc        1 EPH      0.111500
     56 H192       -2.2730   -2.0840    2.3310 hc        1 EPH      0.111500
     57 H201       -4.7010   -3.2850    2.9390 hc        1 EPH      0.073000
     58 H202       -4.3680   -3.3290    1.3750 hc        1 EPH      0.073000
     59 H211       -3.0180   -5.0440    1.7340 hc        1 EPH      0.088500
     60 H212       -2.0830   -4.0830    2.6050 hc        1 EPH      0.088500
     61 H221       -4.2910   -5.5370    3.6440 hc        1 EPH      0.076500
     62 H222       -3.3590   -4.5720    4.5110 hc        1 EPH      0.076500
     63 H231       -2.8340   -7.0910    4.4630 hc        1 EPH      0.083000
     64 H232       -2.0430   -6.6920    3.1270 hc        1 EPH      0.083000
     65 H24        -1.0080   -4.8860    4.9180 ha        1 EPH      0.132000
     66 H25         0.3750   -6.4280    6.0340 ha        1 EPH      0.126000
     67 H261       -1.4150   -8.4700    5.9330 ha        1 EPH      0.086500
     68 H262       -0.8380   -8.4650    4.4510 ha        1 EPH      0.086500
     69 H271        1.3870   -8.5880    5.5200 hc        1 EPH      0.088500
     70 H272        0.5370   -9.9380    5.5310 hc        1 EPH      0.088500
     71 H28        -0.1090   -8.6230    7.9250 ha        1 EPH      0.123500
     72 H29         1.7360   -9.6050    9.0800 ha        1 EPH      0.117000
     73 H301        2.5590  -11.0540    6.8610 ha        1 EPH      0.086500
     74 H302        3.1930   -9.5980    6.6330 ha        1 EPH      0.086500
     75 H311        3.6820  -11.0440    9.0570 hc        1 EPH      0.088500
     76 H312        4.4930   -9.7660    8.5540 hc        1 EPH      0.088500
     77 H32         4.7610  -11.9660    6.7500 ha        1 EPH      0.123500
     78 H33         6.9520  -12.2530    7.6160 ha        1 EPH      0.117000
     79 H341        6.1850  -11.2220   10.1280 ha        1 EPH      0.079000
     80 H342        7.6860  -11.1210    9.5710 ha        1 EPH      0.079000
     81 H343        6.6380   -9.9510    9.2500 ha        1 EPH      0.079000
     82 H371        0.1780    3.9210    2.6700 h1        1 EPH      0.088500
     83 H372       -0.4880    2.5140    3.0220 h1        1 EPH      0.088500
     84 H51         0.8120    6.2260   -0.5000 hc        1 EPH      0.131500
     85 H52         1.6910    5.4400   -1.5870 hc        1 EPH      0.131500
     86 H61        -0.9030    6.5920   -1.9850 hc        1 EPH      0.094500
     87 H62        -0.3220    5.5080   -3.0130 hc        1 EPH      0.094500
     88 H71         1.2190    7.8380   -2.4330 hc        1 EPH      0.081000
     89 H72         1.3340    6.9090   -3.7330 hc        1 EPH      0.081000
     90 H81        -1.1200    7.7960   -3.9250 hc        1 EPH      0.080500
     91 H82        -0.3630    9.0820   -3.3240 hc        1 EPH      0.080500
     92 H91         0.5480    7.7300   -5.7070 hc        1 EPH      0.078500
     93 H92         1.1210    9.1230   -5.1660 hc        1 EPH      0.078500
     94 H101       -1.5920    9.1710   -5.6410 hc        1 EPH      0.080500
     95 H102       -0.5090   10.2460   -6.0740 hc        1 EPH      0.080500
     96 H111       -0.7670    7.7790   -7.4360 hc        1 EPH      0.087000
     97 H112        0.0420    9.0560   -7.9500 hc        1 EPH      0.087000
     98 H12        -2.4910   10.0380   -7.8460 ha        1 EPH      0.122000
     99 H13        -3.2800    8.9110   -9.7890 ha        1 EPH      0.119000
    100 H141       -1.5440    6.7360   -9.1300 ha        1 EPH      0.095000
    101 H142       -0.8700    7.6360  -10.2750 ha        1 EPH      0.095000
    102 H15        -3.2740    7.1600  -11.4440 ha        1 EPH      0.119000
    103 H16        -1.8270    4.8230  -10.6270 ha        1 EPH      0.121000
    104 H171       -4.2780    4.7090  -11.9090 ha        1 EPH      0.082500
    105 H172       -3.1960    5.0660  -13.0330 ha        1 EPH      0.082500
    106 H351       -1.9580    3.0880  -12.3370 hc        1 EPH      0.080500
    107 H352       -3.2300    2.6930  -11.4550 hc        1 EPH      0.080500
    108 H361       -4.5530    2.5620  -13.3870 hc        1 EPH      0.070667
    109 H362       -3.2870    1.5880  -13.5710 hc        1 EPH      0.070667
    110 H363       -3.3230    3.0310  -14.2840 hc        1 EPH      0.070667
    111 H381        4.3900    0.1140    3.8860 h1        1 EPH      0.070500
    112 H382        4.0490    1.0460    5.1510 h1        1 EPH      0.070500
    113 H391        5.9950    2.2770    4.8520 h1        1 EPH      0.091000
    114 H392        6.2450    1.6500    3.4040 h1        1 EPH      0.091000
    115 HN11        6.6940   -0.2930    4.3470 hn        1 EPH      0.128500
    116 HN12        6.3530    0.2030    5.7080 hn        1 EPH      0.128500
@<TRIPOS>BOND
     1    1    2 1   
     2    1    4 1   
     3    1   50 1   
     4    1   51 1   
     5    2   23 1   
     6    2   26 1   
     7    2   52 1   
     8    3    5 1   
     9    3    6 1   
    10    6    7 1   
    11    6   53 1   
    12    6   54 1   
    13    7    8 1   
    14    7   55 1   
    15    7   56 1   
    16    8    9 1   
    17    8   57 1   
    18    8   58 1   
    19    9   10 1   
    20    9   59 1   
    21    9   60 1   
    22   10   11 1   
    23   10   61 1   
    24   10   62 1   
    25   11   12 1   
    26   11   63 1   
    27   11   64 1   
    28   12   13 1   
    29   12   65 1   
    30   13   66 1   
    31   14   15 1   
    32   14   67 1   
    33   14   68 1   
    34   15   16 1   
    35   15   69 1   
    36   15   70 1   
    37   16   17 1   
    38   16   71 1   
    39   17   72 1   
    40   18   19 1   
    41   18   73 1   
    42   18   74 1   
    43   19   20 1   
    44   19   75 1   
    45   19   76 1   
    46   20   21 1   
    47   20   77 1   
    48   21   78 1   
    49   22   79 1   
    50   22   80 1   
    51   22   81 1   
    52   23   24 1   
    53   23   82 1   
    54   23   83 1   
    55   24   43 1   
    56   25   27 1   
    57   25   28 1   
    58   28   29 1   
    59   28   84 1   
    60   28   85 1   
    61   29   30 1   
    62   29   86 1   
    63   29   87 1   
    64   30   31 1   
    65   30   88 1   
    66   30   89 1   
    67   31   32 1   
    68   31   90 1   
    69   31   91 1   
    70   32   33 1   
    71   32   92 1   
    72   32   93 1   
    73   33   34 1   
    74   33   94 1   
    75   33   95 1   
    76   34   35 1   
    77   34   96 1   
    78   34   97 1   
    79   35   36 1   
    80   35   98 1   
    81   36   99 1   
    82   37   38 1   
    83   37  100 1   
    84   37  101 1   
    85   38   39 1   
    86   38  102 1   
    87   39  103 1   
    88   40   41 1   
    89   40  104 1   
    90   40  105 1   
    91   41   42 1   
    92   41  106 1   
    93   41  107 1   
    94   42  108 1   
    95   42  109 1   
    96   42  110 1   
    97   43   44 1   
    98   43   45 1   
    99   43   46 1   
   100   46   47 1   
   101   47   48 1   
   102   47  111 1   
   103   47  112 1   
   104   48   49 1   
   105   48  113 1   
   106   48  114 1   
   107   49  115 1   
   108   49  116 1   
@<TRIPOS>SUBSTRUCTURE
     1 EPH         1 TEMP              0 ****  ****    0 ROOT
