@<TRIPOS>MOLECULE
EPH
  116   115     1     0     0
SMALL
bcc


@<TRIPOS>ATOM
      1 C1          3.3550   -0.2090   -0.8540 c3        1 EPH      0.148400
      2 C2          2.6500   -1.2530   -1.7140 c3        1 EPH      0.122100
      3 C4          3.0610    0.6330    1.3710 c         1 EPH      0.631100
      4 O2          2.7910   -0.3470    0.4680 os        1 EPH     -0.447900
      5 O4          3.8000    1.5680    1.0510 o         1 EPH     -0.552000
      6 C18         2.3650    0.4120    2.6810 c3        1 EPH     -0.131400
      7 C19         3.2160    0.8890    3.8370 c3        1 EPH     -0.079400
      8 C20         2.4530    0.8010    5.1410 c3        1 EPH     -0.078400
      9 C21         3.3070    1.2610    6.3040 c3        1 EPH     -0.079400
     10 C22         2.5450    1.1810    7.6090 c3        1 EPH     -0.076400
     11 C23         3.4020    1.6440    8.7710 c3        1 EPH     -0.050200
     12 C24         2.6600    1.5890   10.0530 c2        1 EPH     -0.162200
     13 C25         3.1790    1.1110   11.1880 c2        1 EPH     -0.180200
     14 C26         2.4520    1.0970   12.4800 c3        1 EPH     -0.043200
     15 C27         2.5930   -0.2450   13.1770 c3        1 EPH     -0.046200
     16 C28         1.8990   -0.2490   14.4880 c2        1 EPH     -0.168200
     17 C29         1.1210   -1.2490   14.9090 c2        1 EPH     -0.175200
     18 C30         0.4630   -1.2730   16.2380 c3        1 EPH     -0.044200
     19 C31        -0.9900   -1.7020   16.1280 c3        1 EPH     -0.046200
     20 C32        -1.6380   -1.7610   17.4600 c2        1 EPH     -0.171200
     21 C33        -2.8530   -1.2660   17.7130 c2        1 EPH     -0.174200
     22 C34        -3.5140   -1.3420   19.0310 c3        1 EPH     -0.062900
     23 C37         3.6170   -1.8990   -2.7230 c3        1 EPH      0.177400
     24 O5          4.4610   -0.9720   -3.3140 os        1 EPH     -0.577200
     25 C3          0.6730   -1.2890   -3.0710 c         1 EPH      0.673100
     26 O1          1.6100   -0.5400   -2.4060 os        1 EPH     -0.440900
     27 O3          0.4620   -2.4430   -2.6840 o         1 EPH     -0.582000
     28 C5          0.0440   -0.5390   -4.1980 c3        1 EPH     -0.155400
     29 C6         -1.3110   -1.0990   -4.5620 c3        1 EPH     -0.070400
     30 C7         -1.8340   -0.4510   -5.8270 c3        1 EPH     -0.079400
     31 C8         -3.1910   -1.0040   -6.2050 c3        1 EPH     -0.077400
     32 C9         -3.7120   -0.3630   -7.4730 c3        1 EPH     -0.080400
     33 C10        -5.0660   -0.9200   -7.8550 c3        1 EPH     -0.075400
     34 C11        -5.5820   -0.2780   -9.1280 c3        1 EPH     -0.052200
     35 C12        -6.8980   -0.8330   -9.5260 c2        1 EPH     -0.158200
     36 C13        -7.9170   -0.0840   -9.9560 c2        1 EPH     -0.182200
     37 C14        -9.2170   -0.6480  -10.3990 c3        1 EPH     -0.016000
     38 C15       -10.3670    0.1020   -9.8320 c2        1 EPH     -0.160200
     39 C16       -11.4480    0.4390  -10.5400 c2        1 EPH     -0.180200
     40 C17       -12.6180    1.1460   -9.9650 c3        1 EPH     -0.046200
     41 C35       -13.0870    2.2720  -10.8650 c3        1 EPH     -0.077400
     42 C36       -14.2840    2.9780  -10.2830 c3        1 EPH     -0.093100
     43 P1          4.3030   -0.7310   -4.9510 p5        1 EPH      1.437800
     44 O6          5.5130   -1.2870   -5.5810 o         1 EPH     -0.831000
     45 O7          2.9060   -1.0500   -5.3090 o         1 EPH     -0.831000
     46 O8          4.4540    0.9070   -4.9210 os        1 EPH     -0.572200
     47 C38         5.7430    1.4160   -4.7560 c3        1 EPH      0.146400
     48 C39         6.0830    2.3700   -5.9160 c3        1 EPH      0.125800
     49 N1          5.1060    3.3950   -6.1980 n3        1 EPH     -0.897800
     50 H11         4.4540   -0.4160   -0.7950 h1        1 EPH      0.080700
     51 H12A        3.1810    0.8300   -1.2360 h1        1 EPH      0.080700
     52 H2          2.1840   -2.0560   -1.0770 h1        1 EPH      0.070700
     53 H181        1.3970    0.9810    2.6450 hc        1 EPH      0.073700
     54 H182        2.1170   -0.6760    2.7950 hc        1 EPH      0.073700
     55 H191        4.1470    0.2670    3.9000 hc        1 EPH      0.056700
     56 H192        3.5380    1.9480    3.6500 hc        1 EPH      0.056700
     57 H201        1.5280    1.4330    5.0810 hc        1 EPH      0.039200
     58 H202        2.1200   -0.2570    5.3140 hc        1 EPH      0.039200
     59 H211        4.2290    0.6260    6.3670 hc        1 EPH      0.042200
     60 H212        3.6430    2.3170    6.1280 hc        1 EPH      0.042200
     61 H221        1.6210    1.8140    7.5460 hc        1 EPH      0.041200
     62 H222        2.2110    0.1250    7.7870 hc        1 EPH      0.041200
     63 H231        4.3320    1.0180    8.8220 hc        1 EPH      0.046700
     64 H232        3.7290    2.7050    8.5900 hc        1 EPH      0.046700
     65 H24         1.6310    1.9850   10.0180 ha        1 EPH      0.120000
     66 H25         4.2040    0.7060   11.2210 ha        1 EPH      0.120000
     67 H261        2.8700    1.9050   13.1400 hc        1 EPH      0.045700
     68 H262        1.3630    1.3250   12.3280 hc        1 EPH      0.045700
     69 H271        2.1920   -1.0550   12.5110 hc        1 EPH      0.048700
     70 H272        3.6830   -0.4650   13.3450 hc        1 EPH      0.048700
     71 H28         2.0770    0.6400   15.1160 ha        1 EPH      0.119000
     72 H29         0.9340   -2.1340   14.2770 ha        1 EPH      0.121000
     73 H301        1.0150   -1.9950   16.9010 hc        1 EPH      0.046200
     74 H302        0.5190   -0.2660   16.7290 hc        1 EPH      0.046200
     75 H311       -1.5360   -0.9950   15.4480 hc        1 EPH      0.048700
     76 H312       -1.0420   -2.7210   15.6550 hc        1 EPH      0.048700
     77 H32        -1.0500   -2.2610   18.2470 ha        1 EPH      0.118000
     78 H33        -3.4370   -0.7620   16.9250 ha        1 EPH      0.120000
     79 H341       -3.7420   -0.3120   19.4050 hc        1 EPH      0.039033
     80 H342       -4.4790   -1.9010   18.9440 hc        1 EPH      0.039033
     81 H343       -2.8750   -1.8570   19.7900 hc        1 EPH      0.039033
     82 H371        4.2490   -2.6360   -2.1500 h1        1 EPH      0.040200
     83 H372        3.0040   -2.4380   -3.5000 h1        1 EPH      0.040200
     84 H51         0.7770   -0.6340   -5.0600 hc        1 EPH      0.115700
     85 H52        -0.0260    0.5480   -3.9360 hc        1 EPH      0.115700
     86 H61        -2.0340   -0.9290   -3.7220 hc        1 EPH      0.043200
     87 H62        -1.2270   -2.2090   -4.7070 hc        1 EPH      0.043200
     88 H71        -1.1070   -0.6270   -6.6640 hc        1 EPH      0.045200
     89 H72        -1.9060    0.6590   -5.6800 hc        1 EPH      0.045200
     90 H81        -3.9170   -0.8280   -5.3680 hc        1 EPH      0.036700
     91 H82        -3.1160   -2.1150   -6.3480 hc        1 EPH      0.036700
     92 H91        -2.9830   -0.5380   -8.3080 hc        1 EPH      0.040700
     93 H92        -3.7880    0.7470   -7.3290 hc        1 EPH      0.040700
     94 H101       -5.7960   -0.7420   -7.0220 hc        1 EPH      0.039700
     95 H102       -4.9890   -2.0300   -7.9970 hc        1 EPH      0.039700
     96 H111       -4.8480   -0.4640   -9.9600 hc        1 EPH      0.047700
     97 H112       -5.6440    0.8340   -8.9880 hc        1 EPH      0.047700
     98 H12        -6.9850   -1.9300   -9.4550 ha        1 EPH      0.119000
     99 H13        -7.8360    1.0140  -10.0180 ha        1 EPH      0.123000
    100 H141       -9.3060   -1.7260  -10.0860 hc        1 EPH      0.049700
    101 H142       -9.2520   -0.6300  -11.5240 hc        1 EPH      0.049700
    102 H15       -10.2770    0.3600   -8.7630 ha        1 EPH      0.125000
    103 H16       -11.5310    0.1900  -11.6110 ha        1 EPH      0.118000
    104 H171      -12.3740    1.5580   -8.9490 hc        1 EPH      0.044700
    105 H172      -13.4550    0.4080   -9.8280 hc        1 EPH      0.044700
    106 H351      -13.3450    1.8610  -11.8760 hc        1 EPH      0.040200
    107 H352      -12.2500    3.0050  -11.0110 hc        1 EPH      0.040200
    108 H361      -14.6160    3.8020  -10.9600 hc        1 EPH      0.031700
    109 H362      -15.1350    2.2670  -10.1500 hc        1 EPH      0.031700
    110 H363      -14.0370    3.4180   -9.2870 hc        1 EPH      0.031700
    111 H381        5.7750    1.9900   -3.7860 h1        1 EPH      0.033700
    112 H382        6.4970    0.5810   -4.7240 h1        1 EPH      0.033700
    113 H391        7.0610    2.8730   -5.6730 h1        1 EPH      0.041700
    114 H392        6.2260    1.7600   -6.8510 h1        1 EPH      0.041700
    115 HN11        4.2520    2.9560   -6.4970 hn        1 EPH      0.338800
    116 HN12        4.8970    3.8980   -5.3550 hn        1 EPH      0.338800
@<TRIPOS>BOND
     1    1    2 1   
     2    1    4 1   
     3    1   50 1   
     4    1   51 1   
     5    2   23 1   
     6    2   26 1   
     7    2   52 1   
     8    3    4 1   
     9    3    5 2   
    10    3    6 1   
    11    6    7 1   
    12    6   53 1   
    13    6   54 1   
    14    7    8 1   
    15    7   55 1   
    16    7   56 1   
    17    8    9 1   
    18    8   57 1   
    19    8   58 1   
    20    9   10 1   
    21    9   59 1   
    22    9   60 1   
    23   10   11 1   
    24   10   61 1   
    25   10   62 1   
    26   11   12 1   
    27   11   63 1   
    28   11   64 1   
    29   12   13 2   
    30   12   65 1   
    31   13   14 1   
    32   13   66 1   
    33   14   15 1   
    34   14   67 1   
    35   14   68 1   
    36   15   16 1   
    37   15   69 1   
    38   15   70 1   
    39   16   17 2   
    40   16   71 1   
    41   17   18 1   
    42   17   72 1   
    43   18   19 1   
    44   18   73 1   
    45   18   74 1   
    46   19   20 1   
    47   19   75 1   
    48   19   76 1   
    49   20   21 2   
    50   20   77 1   
    51   21   22 1   
    52   21   78 1   
    53   22   79 1   
    54   22   80 1   
    55   22   81 1   
    56   23   24 1   
    57   23   82 1   
    58   23   83 1   
    59   24   43 1   
    60   25   26 1   
    61   25   27 2   
    62   25   28 1   
    63   28   29 1   
    64   28   84 1   
    65   28   85 1   
    66   29   30 1   
    67   29   86 1   
    68   29   87 1   
    69   30   31 1   
    70   30   88 1   
    71   30   89 1   
    72   31   32 1   
    73   31   90 1   
    74   31   91 1   
    75   32   33 1   
    76   32   92 1   
    77   32   93 1   
    78   33   34 1   
    79   33   94 1   
    80   33   95 1   
    81   34   35 1   
    82   34   96 1   
    83   34   97 1   
    84   35   36 2   
    85   35   98 1   
    86   36   37 1   
    87   36   99 1   
    88   37   38 1   
    89   37  100 1   
    90   37  101 1   
    91   38   39 2   
    92   38  102 1   
    93   39   40 1   
    94   39  103 1   
    95   40   41 1   
    96   40  104 1   
    97   40  105 1   
    98   41   42 1   
    99   41  106 1   
   100   41  107 1   
   101   42  108 1   
   102   42  109 1   
   103   42  110 1   
   104   43   44 1   
   105   43   45 1   
   106   43   46 1   
   107   46   47 1   
   108   47   48 1   
   109   47  111 1   
   110   47  112 1   
   111   48   49 1   
   112   48  113 1   
   113   48  114 1   
   114   49  115 1   
   115   49  116 1   
@<TRIPOS>SUBSTRUCTURE
     1 EPH         1 TEMP              0 ****  ****    0 ROOT
