@<TRIPOS>MOLECULE
EPI
   23    23     1     0     0
SMALL
bcc


@<TRIPOS>ATOM
      1 N1          0.0670    0.0790   -0.1410 n3        1 EPI     -0.819200
      2 C2          1.5090    0.0100   -0.0080 c3        1 EPI      0.163800
      3 C3          1.9840    0.0490    1.4430 c3        1 EPI     -0.074400
      4 C4          1.4050    1.2510    2.1760 c3        1 EPI     -0.065700
      5 C5         -0.1100    1.2420    2.0500 c3        1 EPI     -0.074400
      6 C6         -0.5370    1.1790    0.5840 c3        1 EPI      0.163800
      7 C1'         1.8440    1.2400    3.6320 c3        1 EPI     -0.076400
      8 C2'         1.6100    2.5620    4.3160 c3        1 EPI     -0.093100
      9 HN1        -0.1820    0.1340   -1.1110 hn        1 EPI      0.359800
     10 H21         1.8390   -0.9610   -0.4740 h1        1 EPI      0.025200
     11 H22         2.0250    0.8480   -0.5670 h1        1 EPI      0.025200
     12 H31         1.6770   -0.8920    1.9700 hc        1 EPI      0.046950
     13 H32         3.1030    0.0970    1.4500 hc        1 EPI      0.046950
     14 H4          1.7980    2.1880    1.6890 hc        1 EPI      0.045700
     15 H51        -0.5390    2.1710    2.5050 hc        1 EPI      0.046950
     16 H52        -0.5290    0.3620    2.6040 hc        1 EPI      0.046950
     17 H61        -0.3030    2.1780    0.1080 h1        1 EPI      0.025200
     18 H62        -1.6540    1.0360    0.5350 h1        1 EPI      0.025200
     19 H1'1        2.9380    0.9910    3.6790 hc        1 EPI      0.040200
     20 H1'2        1.2960    0.4280    4.1800 hc        1 EPI      0.040200
     21 H2'1        1.9780    2.5210    5.3700 hc        1 EPI      0.032700
     22 H2'2        0.5220    2.8140    4.3350 hc        1 EPI      0.032700
     23 H2'3        2.1500    3.3840    3.7860 hc        1 EPI      0.032700
@<TRIPOS>BOND
     1    1    2 1   
     2    1    6 1   
     3    1    9 1   
     4    2    3 1   
     5    2   10 1   
     6    2   11 1   
     7    3    4 1   
     8    3   12 1   
     9    3   13 1   
    10    4    5 1   
    11    4    7 1   
    12    4   14 1   
    13    5    6 1   
    14    5   15 1   
    15    5   16 1   
    16    6   17 1   
    17    6   18 1   
    18    7    8 1   
    19    7   19 1   
    20    7   20 1   
    21    8   21 1   
    22    8   22 1   
    23    8   23 1   
@<TRIPOS>SUBSTRUCTURE
     1 EPI         1 TEMP              0 ****  ****    0 ROOT
