@<TRIPOS>MOLECULE
EPI
   23    23     1     0     0
SMALL
bcc


@<TRIPOS>ATOM
      1 N1          0.0490    0.0680   -0.1270 n7        1 EPI     -0.819200
      2 C2          1.4920    0.0000   -0.0070 c3        1 EPI      0.163800
      3 C3          1.9800    0.0470    1.4400 c3        1 EPI     -0.074400
      4 C4          1.4080    1.2520    2.1720 c3        1 EPI     -0.065700
      5 C5         -0.1090    1.2420    2.0590 c3        1 EPI     -0.074400
      6 C6         -0.5490    1.1710    0.5980 c3        1 EPI      0.163800
      7 C1'         1.8600    1.2500    3.6230 c3        1 EPI     -0.076400
      8 C2'         1.6300    2.5750    4.3030 c3        1 EPI     -0.093100
      9 HN1        -0.2090    0.1170   -1.0950 hn        1 EPI      0.359800
     10 H21         2.0030    0.8350   -0.5740 h1        1 EPI      0.025200
     11 H22         1.8190   -0.9730   -0.4710 h1        1 EPI      0.025200
     12 H31         1.6790   -0.8910    1.9740 hc        1 EPI      0.046950
     13 H32         3.0990    0.0960    1.4370 hc        1 EPI      0.046950
     14 H4          1.7960    2.1870    1.6760 hc        1 EPI      0.045700
     15 H51        -0.5220    0.3650    2.6220 hc        1 EPI      0.046950
     16 H52        -0.5340    2.1730    2.5130 hc        1 EPI      0.046950
     17 H61        -1.6660    1.0270    0.5600 h1        1 EPI      0.025200
     18 H62        -0.3190    2.1680    0.1150 h1        1 EPI      0.025200
     19 H1'1        1.3170    0.4400    4.1800 hc        1 EPI      0.040200
     20 H1'2        2.9540    1.0010    3.6620 hc        1 EPI      0.040200
     21 H2'1        2.0090    2.5400    5.3530 hc        1 EPI      0.032700
     22 H2'2        0.5420    2.8250    4.3300 hc        1 EPI      0.032700
     23 H2'3        2.1650    3.3940    3.7640 hc        1 EPI      0.032700
@<TRIPOS>BOND
     1    1    2 1   
     2    1    6 1   
     3    1    9 1   
     4    2    3 1   
     5    2   10 1   
     6    2   11 1   
     7    3    4 1   
     8    3   12 1   
     9    3   13 1   
    10    4    5 1   
    11    4    7 1   
    12    4   14 1   
    13    5    6 1   
    14    5   15 1   
    15    5   16 1   
    16    6   17 1   
    17    6   18 1   
    18    7    8 1   
    19    7   19 1   
    20    7   20 1   
    21    8   21 1   
    22    8   22 1   
    23    8   23 1   
@<TRIPOS>SUBSTRUCTURE
     1 EPI         1 TEMP              0 ****  ****    0 ROOT
