@<TRIPOS>MOLECULE
EPI
   23    23     1     0     0
SMALL
bcc


@<TRIPOS>ATOM
      1 N1          0.0610    0.0680   -0.1330 n3        1 EPI     -0.819200
      2 C2          1.5030   -0.0000   -0.0040 c3        1 EPI      0.163800
      3 C3          1.9820    0.0460    1.4460 c3        1 EPI     -0.074400
      4 C4          1.4060    1.2520    2.1740 c3        1 EPI     -0.065700
      5 C5         -0.1100    1.2420    2.0520 c3        1 EPI     -0.074400
      6 C6         -0.5410    1.1720    0.5890 c3        1 EPI      0.163800
      7 C1'         1.8500    1.2500    3.6280 c3        1 EPI     -0.076400
      8 C2'         1.6170    2.5750    4.3060 c3        1 EPI     -0.093100
      9 HN1        -0.1910    0.1170   -1.1030 hn        1 EPI      0.359800
     10 H21         2.0180    0.8340   -0.5680 h1        1 EPI      0.025200
     11 H22         1.8330   -0.9740   -0.4660 h1        1 EPI      0.025200
     12 H31         3.1010    0.0950    1.4490 hc        1 EPI      0.046950
     13 H32         1.6770   -0.8920    1.9780 hc        1 EPI      0.046950
     14 H4          1.7980    2.1870    1.6800 hc        1 EPI      0.045700
     15 H51        -0.5260    0.3660    2.6130 hc        1 EPI      0.046950
     16 H52        -0.5370    2.1740    2.5040 hc        1 EPI      0.046950
     17 H61        -0.3080    2.1680    0.1070 h1        1 EPI      0.025200
     18 H62        -1.6580    1.0280    0.5440 h1        1 EPI      0.025200
     19 H1'1        2.9440    1.0010    3.6730 hc        1 EPI      0.040200
     20 H1'2        1.3040    0.4410    4.1820 hc        1 EPI      0.040200
     21 H2'1        0.5290    2.8260    4.3270 hc        1 EPI      0.032700
     22 H2'2        1.9900    2.5400    5.3580 hc        1 EPI      0.032700
     23 H2'3        2.1550    3.3940    3.7690 hc        1 EPI      0.032700
@<TRIPOS>BOND
     1    1    2 1   
     2    1    6 1   
     3    1    9 1   
     4    2    3 1   
     5    2   10 1   
     6    2   11 1   
     7    3    4 1   
     8    3   12 1   
     9    3   13 1   
    10    4    5 1   
    11    4    7 1   
    12    4   14 1   
    13    5    6 1   
    14    5   15 1   
    15    5   16 1   
    16    6   17 1   
    17    6   18 1   
    18    7    8 1   
    19    7   19 1   
    20    7   20 1   
    21    8   21 1   
    22    8   22 1   
    23    8   23 1   
@<TRIPOS>SUBSTRUCTURE
     1 EPI         1 TEMP              0 ****  ****    0 ROOT
