@<TRIPOS>MOLECULE
EPI
   23    23     1     0     0
SMALL
bcc


@<TRIPOS>ATOM
      1 N1          0.2850    0.1330   -2.2690 n3        1 EPI     -0.819200
      2 C2         -1.0020   -0.3380   -1.7970 c3        1 EPI      0.163800
      3 C3         -1.3370    0.1350   -0.3840 c3        1 EPI     -0.074400
      4 C4         -0.2170   -0.2100    0.5880 c3        1 EPI     -0.065700
      5 C5          1.0970    0.3550    0.0710 c3        1 EPI     -0.074400
      6 C6          1.3770   -0.1260   -1.3510 c3        1 EPI      0.163800
      7 C1'        -0.5450    0.3180    1.9760 c3        1 EPI     -0.076400
      8 C2'         0.3300   -0.2840    3.0450 c3        1 EPI     -0.093100
      9 HN1         0.4890   -0.2740   -3.1630 hn        1 EPI      0.359800
     10 H21        -1.0700   -1.4670   -1.8120 h1        1 EPI      0.025200
     11 H22        -1.7810    0.0570   -2.5080 h1        1 EPI      0.025200
     12 H31        -2.2900   -0.3560   -0.0610 hc        1 EPI      0.046950
     13 H32        -1.5030    1.2440   -0.3830 hc        1 EPI      0.046950
     14 H4         -0.1260   -1.3320    0.6420 hc        1 EPI      0.045700
     15 H51         1.0580    1.4750    0.0920 hc        1 EPI      0.046950
     16 H52         1.9410    0.0270    0.7300 hc        1 EPI      0.046950
     17 H61         1.6370   -1.2260   -1.3040 h1        1 EPI      0.025200
     18 H62         2.2810    0.4180   -1.7490 h1        1 EPI      0.025200
     19 H1'1       -1.6190    0.0880    2.2070 hc        1 EPI      0.040200
     20 H1'2       -0.4370    1.4350    1.9840 hc        1 EPI      0.040200
     21 H2'1        0.0330    0.1030    4.0490 hc        1 EPI      0.032700
     22 H2'2        0.2340   -1.3970    3.0540 hc        1 EPI      0.032700
     23 H2'3        1.4030   -0.0270    2.8730 hc        1 EPI      0.032700
@<TRIPOS>BOND
     1    1    2 1   
     2    1    6 1   
     3    1    9 1   
     4    2    3 1   
     5    2   10 1   
     6    2   11 1   
     7    3    4 1   
     8    3   12 1   
     9    3   13 1   
    10    4    5 1   
    11    4    7 1   
    12    4   14 1   
    13    5    6 1   
    14    5   15 1   
    15    5   16 1   
    16    6   17 1   
    17    6   18 1   
    18    7    8 1   
    19    7   19 1   
    20    7   20 1   
    21    8   21 1   
    22    8   22 1   
    23    8   23 1   
@<TRIPOS>SUBSTRUCTURE
     1 EPI         1 TEMP              0 ****  ****    0 ROOT
