@<TRIPOS>MOLECULE
EPI
   23    23     1     0     0
SMALL
bcc


@<TRIPOS>ATOM
      1 N1         -1.2710   -0.8880   -1.9710 n3        1 EPI     -0.819200
      2 C2          0.2030   -0.8880   -1.9710 c3        1 EPI      0.163800
      3 C3          0.7820   -0.8880   -0.5730 c3        1 EPI     -0.074400
      4 C4          0.2120    0.1900    0.2740 c3        1 EPI     -0.065700
      5 C5         -1.2740    0.1840    0.2690 c3        1 EPI     -0.074400
      6 C6         -1.8440    0.1800   -1.1320 c3        1 EPI      0.163800
      7 C1'         0.7120   -0.0040    1.7430 c3        1 EPI     -0.077400
      8 C2'         1.5170    1.2050    2.1660 c3        1 EPI     -0.092100
      9 HN1        -1.5750   -0.7990   -2.8270 hn        1 EPI      0.360800
     10 H21         0.5180   -0.0940   -2.4430 h1        1 EPI      0.025200
     11 H22         0.5180   -1.6830   -2.4430 h1        1 EPI      0.025200
     12 H31         0.5960   -1.7510   -0.1550 hc        1 EPI      0.047200
     13 H32         1.7480   -0.7670   -0.6320 hc        1 EPI      0.047200
     14 H4          0.5260    1.0530   -0.0560 hc        1 EPI      0.046700
     15 H51        -1.5950    0.9780    0.7380 hc        1 EPI      0.047200
     16 H52        -1.5880   -0.6110    0.7400 hc        1 EPI      0.047200
     17 H61        -1.6600    1.0420   -1.5510 h1        1 EPI      0.025200
     18 H62        -2.8110    0.0550   -1.0790 h1        1 EPI      0.025200
     19 H1'1       -0.0550   -0.1090    2.3380 hc        1 EPI      0.040700
     20 H1'2        1.2730   -0.8020    1.7930 hc        1 EPI      0.040700
     21 H2'1        0.9560    2.0030    2.1170 hc        1 EPI      0.032700
     22 H2'2        1.8290    1.0840    3.0830 hc        1 EPI      0.032700
     23 H2'3        2.2840    1.3100    1.5720 hc        1 EPI      0.032700
@<TRIPOS>BOND
     1    1    2 1   
     2    1    6 1   
     3    1    9 1   
     4    2    3 1   
     5    2   10 1   
     6    2   11 1   
     7    3    4 1   
     8    3   12 1   
     9    3   13 1   
    10    4    5 1   
    11    4    7 1   
    12    4   14 1   
    13    5    6 1   
    14    5   15 1   
    15    5   16 1   
    16    6   17 1   
    17    6   18 1   
    18    7    8 1   
    19    7   19 1   
    20    7   20 1   
    21    8   21 1   
    22    8   22 1   
    23    8   23 1   
@<TRIPOS>SUBSTRUCTURE
     1 EPI         1 TEMP              0 ****  ****    0 ROOT
