@<TRIPOS>MOLECULE
EPJ
   27    29     1     0     0
SMALL
bcc


@<TRIPOS>ATOM
      1 C1          0.0440    0.0790    0.0390 c3        1 EPJ     -0.013400
      2 C2          1.5920   -0.0300    0.0060 c3        1 EPJ     -0.068400
      3 C3          1.9520   -0.1190    1.5170 c3        1 EPJ      0.126500
      4 C4          1.5030   -1.5400    1.9840 c3        1 EPJ     -0.116400
      5 C5         -0.0300   -1.3960    2.0420 c3        1 EPJ     -0.116400
      6 C6         -0.2410    0.0820    1.5830 c3        1 EPJ      0.136500
      7 N1          0.9470    0.8060    2.1230 n7        1 EPJ     -0.772200
      8 C7         -0.4930    1.2780   -0.6470 ca        1 EPJ     -0.184600
      9 C8         -0.0060    2.5700   -0.4170 ca        1 EPJ     -0.070000
     10 C9         -0.5690    3.6480   -1.1000 ca        1 EPJ     -0.238300
     11 C10        -1.6160    3.3930   -2.0080 ca        1 EPJ      0.484300
     12 Cl         -2.3040    4.7200   -2.8450 cl        1 EPJ     -0.157000
     13 N2         -2.1070    2.1540   -2.2510 nb        1 EPJ     -0.657000
     14 C11        -1.5480    1.1350   -1.5790 ca        1 EPJ      0.403200
     15 H1         -0.4110   -0.8410   -0.4160 hc        1 EPJ      0.058700
     16 H2C1        2.0590    0.8670   -0.4630 hc        1 EPJ      0.054700
     17 H2C2        1.9260   -0.9390   -0.5430 hc        1 EPJ      0.054700
     18 H3          3.0030    0.1420    1.7620 h1        1 EPJ      0.083700
     19 H4C1        1.9300   -1.7840    2.9840 hc        1 EPJ      0.051200
     20 H4C2        1.8220   -2.3250    1.2620 hc        1 EPJ      0.051200
     21 H5C1       -0.4170   -1.5460    3.0770 hc        1 EPJ      0.051700
     22 H5C2       -0.5460   -2.1160    1.3670 hc        1 EPJ      0.051700
     23 H6         -1.2120    0.5330    1.8750 h1        1 EPJ      0.088700
     24 HA          0.9710    0.7560    3.1240 hn        1 EPJ      0.350800
     25 H8          0.8110    2.7390    0.3020 ha        1 EPJ      0.165000
     26 H9         -0.2060    4.6720   -0.9350 ha        1 EPJ      0.156000
     27 H11        -1.9720    0.1390   -1.8040 h4        1 EPJ      0.025100
@<TRIPOS>BOND
     1    1    2 1   
     2    1    6 1   
     3    1    8 1   
     4    1   15 1   
     5    2    3 1   
     6    2   16 1   
     7    2   17 1   
     8    3    4 1   
     9    3    7 1   
    10    3   18 1   
    11    4    5 1   
    12    4   19 1   
    13    4   20 1   
    14    5    6 1   
    15    5   21 1   
    16    5   22 1   
    17    6    7 1   
    18    6   23 1   
    19    7   24 1   
    20    8    9 ar  
    21    8   14 ar  
    22    9   10 ar  
    23    9   25 1   
    24   10   11 ar  
    25   10   26 1   
    26   11   12 1   
    27   11   13 ar  
    28   13   14 ar  
    29   14   27 1   
@<TRIPOS>SUBSTRUCTURE
     1 EPJ         1 TEMP              0 ****  ****    0 ROOT
