@<TRIPOS>MOLECULE
EPJ
   27    29     1     0     0
SMALL
bcc


@<TRIPOS>ATOM
      1 C1          0.0490    0.0790    0.0360 c3        1 EPJ     -0.013400
      2 C2          1.5980   -0.0200    0.0110 c3        1 EPJ     -0.068400
      3 C3          1.9500   -0.1140    1.5240 c3        1 EPJ      0.126500
      4 C4          1.5060   -1.5400    1.9810 c3        1 EPJ     -0.116400
      5 C5         -0.0280   -1.4050    2.0310 c3        1 EPJ     -0.116400
      6 C6         -0.2450    0.0740    1.5780 c3        1 EPJ      0.136500
      7 N1          0.9360    0.8020    2.1280 n3        1 EPJ     -0.772200
      8 C7         -0.4910    1.2780   -0.6480 ca        1 EPJ     -0.184600
      9 C8         -0.0130    2.5720   -0.4080 ca        1 EPJ     -0.070000
     10 C9         -0.5780    3.6510   -1.0900 ca        1 EPJ     -0.238300
     11 C10        -1.6190    3.3940   -2.0050 ca        1 EPJ      0.484300
     12 CL         -2.3090    4.7200   -2.8400 cl        1 EPJ     -0.157000
     13 N2         -2.1000    2.1530   -2.2580 nb        1 EPJ     -0.657000
     14 C11        -1.5390    1.1340   -1.5880 ca        1 EPJ      0.403200
     15 H1         -0.3980   -0.8400   -0.4260 hc        1 EPJ      0.058700
     16 H2C1        1.9400   -0.9250   -0.5410 hc        1 EPJ      0.054700
     17 H2C2        2.0620    0.8820   -0.4510 hc        1 EPJ      0.054700
     18 H3          2.9980    0.1510    1.7760 h1        1 EPJ      0.083700
     19 H4C1        1.9290   -1.7860    2.9820 hc        1 EPJ      0.051200
     20 H4C2        1.8340   -2.3200    1.2570 hc        1 EPJ      0.051200
     21 H5C1       -0.5360   -2.1250    1.3500 hc        1 EPJ      0.051700
     22 H5C2       -0.4200   -1.5620    3.0630 hc        1 EPJ      0.051700
     23 H6         -1.2200    0.5180    1.8670 h1        1 EPJ      0.088700
     24 HA          0.9540    0.7480    3.1290 hn        1 EPJ      0.350800
     25 H8          0.7990    2.7430    0.3170 ha        1 EPJ      0.165000
     26 H9         -0.2230    4.6760   -0.9180 ha        1 EPJ      0.156000
     27 H11        -1.9560    0.1370   -1.8200 h4        1 EPJ      0.025100
@<TRIPOS>BOND
     1    1    2 1   
     2    1    6 1   
     3    1    8 1   
     4    1   15 1   
     5    2    3 1   
     6    2   16 1   
     7    2   17 1   
     8    3    4 1   
     9    3    7 1   
    10    3   18 1   
    11    4    5 1   
    12    4   19 1   
    13    4   20 1   
    14    5    6 1   
    15    5   21 1   
    16    5   22 1   
    17    6    7 1   
    18    6   23 1   
    19    7   24 1   
    20    8    9 ar  
    21    8   14 ar  
    22    9   10 ar  
    23    9   25 1   
    24   10   11 ar  
    25   10   26 1   
    26   11   12 1   
    27   11   13 ar  
    28   13   14 ar  
    29   14   27 1   
@<TRIPOS>SUBSTRUCTURE
     1 EPJ         1 TEMP              0 ****  ****    0 ROOT
