@<TRIPOS>MOLECULE
EPJ
   27    29     1     0     0
SMALL
bcc


@<TRIPOS>ATOM
      1 C1          0.5200    0.4620    1.4120 c3        1 EPJ     -0.060400
      2 C2         -0.5530    1.3060    2.1430 c3        1 EPJ     -0.110400
      3 C3         -1.0770    0.3160    3.2290 c3        1 EPJ      0.127500
      4 C4          0.0570    0.2110    4.2910 c3        1 EPJ     -0.074400
      5 C5          1.1090   -0.6500    3.5630 c3        1 EPJ     -0.074400
      6 C6          0.4260   -0.9100    2.1860 c3        1 EPJ      0.139500
      7 N1         -1.0080   -1.0250    2.5740 n3        1 EPJ     -0.764200
      8 C7          0.3040    0.2970   -0.0450 ca        1 EPJ     -0.183600
      9 C8         -0.9560    0.1250   -0.6300 ca        1 EPJ     -0.090000
     10 C9         -1.0600   -0.0390   -2.0110 ca        1 EPJ     -0.231300
     11 C10         0.1210   -0.0230   -2.7790 ca        1 EPJ      0.484300
     12 CL         -0.0090   -0.2240   -4.4730 cl        1 EPJ     -0.149000
     13 N2          1.3550    0.1460   -2.2420 nb        1 EPJ     -0.650000
     14 C11         1.4250    0.3000   -0.9110 ca        1 EPJ      0.408200
     15 H1          1.5330    0.9140    1.5800 hc        1 EPJ      0.068700
     16 H2C1       -0.1050    2.2160    2.6040 hc        1 EPJ      0.053700
     17 H2C2       -1.3740    1.6290    1.4620 hc        1 EPJ      0.053700
     18 H3         -2.0790    0.5610    3.6370 h1        1 EPJ      0.083700
     19 H4C1        0.4500    1.2170    4.5610 hc        1 EPJ      0.050700
     20 H4C2       -0.3110   -0.2910    5.2160 hc        1 EPJ      0.050700
     21 H5C1        2.0800   -0.1200    3.4420 hc        1 EPJ      0.051200
     22 H5C2        1.2900   -1.6120    4.0970 hc        1 EPJ      0.051200
     23 H6          0.8130   -1.7850    1.6250 h1        1 EPJ      0.088700
     24 HA         -1.5980   -1.0640    1.7650 hn        1 EPJ      0.347800
     25 H8         -1.8690    0.1210   -0.0170 ha        1 EPJ      0.142000
     26 H9         -2.0390   -0.1770   -2.4910 ha        1 EPJ      0.157000
     27 H11         2.4460    0.4370   -0.5090 h4        1 EPJ      0.029100
@<TRIPOS>BOND
     1    1    2 1   
     2    1    6 1   
     3    1    8 1   
     4    1   15 1   
     5    2    3 1   
     6    2   16 1   
     7    2   17 1   
     8    3    4 1   
     9    3    7 1   
    10    3   18 1   
    11    4    5 1   
    12    4   19 1   
    13    4   20 1   
    14    5    6 1   
    15    5   21 1   
    16    5   22 1   
    17    6    7 1   
    18    6   23 1   
    19    7   24 1   
    20    8    9 ar  
    21    8   14 ar  
    22    9   10 ar  
    23    9   25 1   
    24   10   11 ar  
    25   10   26 1   
    26   11   12 1   
    27   11   13 ar  
    28   13   14 ar  
    29   14   27 1   
@<TRIPOS>SUBSTRUCTURE
     1 EPJ         1 TEMP              0 ****  ****    0 ROOT
