@<TRIPOS>MOLECULE
EPJ
   27    27     1     0     0
SMALL
bcc


@<TRIPOS>ATOM
      1 C1         -0.0240   -0.7750   -0.2420 c3        1 EPJ     -0.107000
      2 C2          1.4280   -0.7740   -0.2300 c3        1 EPJ     -0.190000
      3 C3          1.8420   -0.7790    1.0660 c3        1 EPJ     -0.067000
      4 C4          1.4010   -1.8270    1.8400 c3        1 EPJ     -0.153000
      5 C5         -0.0290   -1.8290    1.8330 c3        1 EPJ     -0.152000
      6 C6         -0.4630   -0.7800    1.0530 c3        1 EPJ     -0.063000
      7 N1          0.6720    0.2460    1.5750 n3        1 EPJ     -0.243000
      8 C7         -0.5690    0.5720   -0.9970 c2        1 EPJ     -0.112000
      9 C8         -1.6960    1.1950   -0.5500 c2        1 EPJ     -0.091000
     10 C9         -2.2050    2.2960   -1.2470 c1        1 EPJ     -0.166000
     11 C10        -1.5540    2.7570   -2.4040 c1        1 EPJ     -0.012000
     12 CL         -2.1550    4.2200   -3.2450 cl        1 EPJ      0.016000
     13 N2         -0.4200    2.1290   -2.8520 n1        1 EPJ     -0.124000
     14 C11         0.0850    1.0450   -2.1690 c1        1 EPJ     -0.059000
     15 H1         -0.3670   -1.6060   -0.7250 hc        1 EPJ      0.111000
     16 H2C1        1.7680   -1.5770   -0.6900 hc        1 EPJ      0.095000
     17 H2C2        1.7810    0.0770   -0.7090 hc        1 EPJ      0.095000
     18 H3          2.7550   -0.4610    1.2380 h1        1 EPJ      0.124000
     19 H4C1        1.7090   -1.7200    2.7140 hc        1 EPJ      0.090000
     20 H4C2        1.7190   -2.6310    1.4900 hc        1 EPJ      0.090000
     21 H5C1       -0.3560   -1.7220    2.7330 hc        1 EPJ      0.091000
     22 H5C2       -0.3840   -2.7430    1.4280 hc        1 EPJ      0.091000
     23 H6         -1.4120   -0.4600    1.2110 h1        1 EPJ      0.123000
     24 HA          0.6720    0.9640    1.0710 hn        1 EPJ      0.143000
     25 H8         -2.1470    0.8750    0.2550 ha        1 EPJ      0.146000
     26 H9         -2.9750    2.7250   -0.9450 ha        1 EPJ      0.158000
     27 H11         0.9240    0.5830   -2.5020 ha        1 EPJ      0.166000
@<TRIPOS>BOND
     1    1    2 1   
     2    1    6 1   
     3    1    8 1   
     4    1   15 1   
     5    2    3 1   
     6    2   16 1   
     7    2   17 1   
     8    3    4 1   
     9    3    7 1   
    10    3   18 1   
    11    4    5 1   
    12    4   19 1   
    13    4   20 1   
    14    5    6 1   
    15    5   21 1   
    16    5   22 1   
    17    6    7 1   
    18    6   23 1   
    19    7   24 1   
    20    8    9 1   
    21    8   14 1   
    22    9   10 1   
    23    9   25 1   
    24   10   26 1   
    25   11   12 1   
    26   11   13 1   
    27   14   27 1   
@<TRIPOS>SUBSTRUCTURE
     1 EPJ         1 TEMP              0 ****  ****    0 ROOT
