@<TRIPOS>MOLECULE
EPJ
   27    29     1     0     0
SMALL
bcc


@<TRIPOS>ATOM
      1 C1          0.0460    0.0790    0.0380 c3        1 EPJ     -0.013400
      2 C2          1.5940   -0.0250    0.0040 c3        1 EPJ     -0.068400
      3 C3          1.9550   -0.1150    1.5160 c3        1 EPJ      0.126500
      4 C4          1.5100   -1.5380    1.9800 c3        1 EPJ     -0.116400
      5 C5         -0.0240   -1.3990    2.0390 c3        1 EPJ     -0.116400
      6 C6         -0.2390    0.0790    1.5830 c3        1 EPJ      0.136500
      7 N1          0.9470    0.8050    2.1230 n3        1 EPJ     -0.772200
      8 C7         -0.4960    1.2770   -0.6460 ca        1 EPJ     -0.184600
      9 C8         -0.0120    2.5700   -0.4140 ca        1 EPJ     -0.070000
     10 C9         -0.5780    3.6480   -1.0950 ca        1 EPJ     -0.238300
     11 C10        -1.6260    3.3920   -2.0030 ca        1 EPJ      0.484300
     12 CL         -2.3170    4.7170   -2.8380 cl        1 EPJ     -0.157000
     13 N2         -2.1120    2.1510   -2.2480 nb        1 EPJ     -0.657000
     14 C11        -1.5500    1.1330   -1.5780 ca        1 EPJ      0.403200
     15 H1         -0.4070   -0.8410   -0.4180 hc        1 EPJ      0.058700
     16 H2C1        2.0580    0.8750   -0.4630 hc        1 EPJ      0.054700
     17 H2C2        1.9310   -0.9320   -0.5460 hc        1 EPJ      0.054700
     18 H3          3.0050    0.1480    1.7600 h1        1 EPJ      0.083700
     19 H4C1        1.9380   -1.7820    2.9800 hc        1 EPJ      0.051200
     20 H4C2        1.8310   -2.3210    1.2570 hc        1 EPJ      0.051200
     21 H5C1       -0.5370   -2.1200    1.3630 hc        1 EPJ      0.051700
     22 H5C2       -0.4090   -1.5520    3.0740 hc        1 EPJ      0.051700
     23 H6         -1.2110    0.5260    1.8750 h1        1 EPJ      0.088700
     24 HA          0.9710    0.7540    3.1240 hn        1 EPJ      0.350800
     25 H8          0.8050    2.7410    0.3050 ha        1 EPJ      0.165000
     26 H9         -0.2190    4.6730   -0.9290 ha        1 EPJ      0.156000
     27 H11        -1.9720    0.1360   -1.8050 h4        1 EPJ      0.025100
@<TRIPOS>BOND
     1    1    2 1   
     2    1    6 1   
     3    1    8 1   
     4    1   15 1   
     5    2    3 1   
     6    2   16 1   
     7    2   17 1   
     8    3    4 1   
     9    3    7 1   
    10    3   18 1   
    11    4    5 1   
    12    4   19 1   
    13    4   20 1   
    14    5    6 1   
    15    5   21 1   
    16    5   22 1   
    17    6    7 1   
    18    6   23 1   
    19    7   24 1   
    20    8    9 ar  
    21    8   14 ar  
    22    9   10 ar  
    23    9   25 1   
    24   10   11 ar  
    25   10   26 1   
    26   11   12 1   
    27   11   13 ar  
    28   13   14 ar  
    29   14   27 1   
@<TRIPOS>SUBSTRUCTURE
     1 EPJ         1 TEMP              0 ****  ****    0 ROOT
