@<TRIPOS>MOLECULE
EPK
   41    43     1     0     0
SMALL
bcc


@<TRIPOS>ATOM
      1 C1          0.1050    0.2540   -0.1630 cc        1 EPK     -0.284700
      2 C2          1.5040   -0.0000   -0.1070 cd        1 EPK      0.122400
      3 C3          1.4440   -0.1760    2.1940 cc        1 EPK      0.517800
      4 N1          0.0530    0.0330    2.2780 n         1 EPK     -0.394300
      5 N2          2.1720   -0.2140    1.0830 nd        1 EPK     -0.534100
      6 C4         -0.6690    0.2980    1.0670 c         1 EPK      0.760100
      7 C5          2.0810   -0.0110   -1.4240 cd        1 EPK      0.014000
      8 S1         -0.4100    0.4550   -1.7130 ss        1 EPK      0.345200
      9 C6          1.0810    0.2290   -2.3650 cc        1 EPK     -0.202100
     10 N3          2.2090   -0.4290    3.4620 n4        1 EPK     -0.725000
     11 O1         -1.8830    0.5300    1.1440 o         1 EPK     -0.567500
     12 C7          3.4730   -0.2450   -1.7250 ca        1 EPK     -0.161300
     13 N4          5.8120    0.1130   -1.1630 nb        1 EPK     -0.666000
     14 C8         -0.6780    0.0080    3.5310 c3        1 EPK      0.055000
     15 C9          4.5030    0.3130   -0.9330 ca        1 EPK      0.421200
     16 C10         3.4650    0.4190    3.5970 c3        1 EPK      0.141500
     17 C11         6.1510   -0.6530   -2.2180 ca        1 EPK      0.416200
     18 C12         3.8510   -1.0320   -2.8270 ca        1 EPK     -0.069000
     19 C13        -0.5650    1.2630    4.3800 c3        1 EPK     -0.127100
     20 C14         3.1270    1.8930    3.7380 c3        1 EPK     -0.136100
     21 C15         4.2730   -0.0620    4.7960 c3        1 EPK     -0.136100
     22 C16         5.2050   -1.2410   -3.0800 ca        1 EPK     -0.237300
     23 H1          1.2750    0.2730   -3.4420 h4        1 EPK      0.205000
     24 H2          1.6140   -0.2460    4.2790 hn        1 EPK      0.462800
     25 H3         -0.3690   -0.9000    4.1250 h1        1 EPK      0.084700
     26 H4         -1.7740   -0.1390    3.2760 h1        1 EPK      0.084700
     27 H5          4.2660    0.9700   -0.0770 h4        1 EPK      0.016100
     28 H6          4.0760    0.2580    2.6550 hx        1 EPK      0.137700
     29 H7          7.2350   -0.7960   -2.3810 h4        1 EPK      0.038100
     30 H8          3.0840   -1.4810   -3.4760 ha        1 EPK      0.146000
     31 H9         -1.1330    1.1000    5.3290 hc        1 EPK      0.059033
     32 H10         0.4910    1.5190    4.6360 hc        1 EPK      0.059033
     33 H11        -1.0150    2.1390    3.8500 hc        1 EPK      0.059033
     34 H12         4.0830    2.4740    3.6900 hc        1 EPK      0.079033
     35 H13         2.4650    2.2460    2.9100 hc        1 EPK      0.079033
     36 H14         2.6360    2.1100    4.7190 hc        1 EPK      0.079033
     37 H15         4.5650   -1.1360    4.6970 hc        1 EPK      0.079033
     38 H16         5.2120    0.5470    4.8420 hc        1 EPK      0.079033
     39 H17         3.7190    0.0830    5.7560 hc        1 EPK      0.079033
     40 H18         5.5340   -1.8510   -3.9330 ha        1 EPK      0.160000
     41 H32         2.4840   -1.4210    3.4650 hn        1 EPK      0.462800
@<TRIPOS>BOND
     1    1    2 2   
     2    1    6 1   
     3    1    8 1   
     4    2    5 1   
     5    2    7 1   
     6    3    4 1   
     7    3    5 2   
     8    3   10 1   
     9    4    6 1   
    10    4   14 1   
    11    6   11 2   
    12    7    9 2   
    13    7   12 1   
    14    8    9 1   
    15    9   23 1   
    16   10   16 1   
    17   10   24 1   
    18   10   41 1   
    19   12   15 ar  
    20   12   18 ar  
    21   13   15 ar  
    22   13   17 ar  
    23   14   19 1   
    24   14   25 1   
    25   14   26 1   
    26   15   27 1   
    27   16   20 1   
    28   16   21 1   
    29   16   28 1   
    30   17   22 ar  
    31   17   29 1   
    32   18   22 ar  
    33   18   30 1   
    34   19   31 1   
    35   19   32 1   
    36   19   33 1   
    37   20   34 1   
    38   20   35 1   
    39   20   36 1   
    40   21   37 1   
    41   21   38 1   
    42   21   39 1   
    43   22   40 1   
@<TRIPOS>SUBSTRUCTURE
     1 EPK         1 TEMP              0 ****  ****    0 ROOT
