@<TRIPOS>MOLECULE
EPK
   41    43     1     0     0
SMALL
bcc


@<TRIPOS>ATOM
      1 C1          0.1060    0.2480   -0.1640 cc        1 EPK     -0.284700
      2 C2          1.5050   -0.0080   -0.1060 cd        1 EPK      0.122400
      3 C3          1.4430   -0.1700    2.1960 cc        1 EPK      0.517800
      4 N1          0.0520    0.0410    2.2780 n         1 EPK     -0.394300
      5 N2          2.1710   -0.2160    1.0860 nd        1 EPK     -0.534100
      6 C4         -0.6690    0.3010    1.0650 c         1 EPK      0.760100
      7 C5          2.0820   -0.0270   -1.4230 cd        1 EPK      0.014000
      8 S1         -0.4080    0.4420   -1.7150 ss        1 EPK      0.345200
      9 C6          1.0830    0.2100   -2.3660 cc        1 EPK     -0.202100
     10 N3          2.2080   -0.4180    3.4650 ny        1 EPK     -0.725000
     11 O1         -1.8820    0.5350    1.1400 o         1 EPK     -0.567500
     12 C7          3.4740   -0.2650   -1.7220 ca        1 EPK     -0.161300
     13 N4          5.8130    0.0930   -1.1610 nb        1 EPK     -0.666000
     14 C8         -0.6790    0.0250    3.5310 c3        1 EPK      0.055000
     15 C9          4.5040    0.2970   -0.9330 ca        1 EPK      0.421200
     16 C10         3.4650    0.4290    3.5970 c3        1 EPK      0.141500
     17 C11         6.1510   -0.6790   -2.2120 ca        1 EPK      0.416200
     18 C12         3.8500   -1.0580   -2.8200 ca        1 EPK     -0.069000
     19 C13        -0.5640    1.2840    4.3720 c3        1 EPK     -0.127100
     20 C14         3.1290    1.9050    3.7300 c3        1 EPK     -0.136100
     21 C15         4.2710   -0.0470    4.7980 c3        1 EPK     -0.136100
     22 C16         5.2040   -1.2700   -3.0710 ca        1 EPK     -0.237300
     23 H1          1.2770    0.2470   -3.4430 h4        1 EPK      0.205000
     24 H2          2.4810   -1.4100    3.4740 hn        1 EPK      0.462800
     25 H3         -0.3710   -0.8810    4.1300 h1        1 EPK      0.084700
     26 H4         -1.7760   -0.1220    3.2760 h1        1 EPK      0.084700
     27 H5          4.2680    0.9580   -0.0810 h4        1 EPK      0.016100
     28 H6          4.0750    0.2620    2.6550 hx        1 EPK      0.137700
     29 H7          7.2350   -0.8250   -2.3740 h4        1 EPK      0.038100
     30 H8          3.0830   -1.5100   -3.4670 ha        1 EPK      0.146000
     31 H9         -1.1330    1.1270    5.3220 hc        1 EPK      0.059033
     32 H10         0.4920    1.5400    4.6270 hc        1 EPK      0.059033
     33 H11        -1.0120    2.1580    3.8370 hc        1 EPK      0.059033
     34 H12         2.4680    2.2540    2.8990 hc        1 EPK      0.079033
     35 H13         2.6390    2.1270    4.7090 hc        1 EPK      0.079033
     36 H14         4.0860    2.4840    3.6780 hc        1 EPK      0.079033
     37 H15         4.5620   -1.1220    4.7040 hc        1 EPK      0.079033
     38 H16         5.2110    0.5610    4.8410 hc        1 EPK      0.079033
     39 H17         3.7170    0.1030    5.7570 hc        1 EPK      0.079033
     40 H18         5.5330   -1.8850   -3.9200 ha        1 EPK      0.160000
     41 H32         1.6120   -0.2290    4.2810 hn        1 EPK      0.462800
@<TRIPOS>BOND
     1    1    2 2   
     2    1    6 1   
     3    1    8 1   
     4    2    5 1   
     5    2    7 1   
     6    3    4 1   
     7    3    5 2   
     8    3   10 1   
     9    4    6 1   
    10    4   14 1   
    11    6   11 2   
    12    7    9 2   
    13    7   12 1   
    14    8    9 1   
    15    9   23 1   
    16   10   16 1   
    17   10   24 1   
    18   10   41 1   
    19   12   15 ar  
    20   12   18 ar  
    21   13   15 ar  
    22   13   17 ar  
    23   14   19 1   
    24   14   25 1   
    25   14   26 1   
    26   15   27 1   
    27   16   20 1   
    28   16   21 1   
    29   16   28 1   
    30   17   22 ar  
    31   17   29 1   
    32   18   22 ar  
    33   18   30 1   
    34   19   31 1   
    35   19   32 1   
    36   19   33 1   
    37   20   34 1   
    38   20   35 1   
    39   20   36 1   
    40   21   37 1   
    41   21   38 1   
    42   21   39 1   
    43   22   40 1   
@<TRIPOS>SUBSTRUCTURE
     1 EPK         1 TEMP              0 ****  ****    0 ROOT
