@<TRIPOS>MOLECULE
EPL
   34    31     1     0     0
SMALL
bcc


@<TRIPOS>ATOM
      1 O1         -0.7940   -1.1730    0.3970 o         1 EPL     -1.082000
      2 P           0.7270   -1.0600    0.3480 p3        1 EPL      2.583000
      3 O2          1.3030   -1.0290    1.8290 o         1 EPL     -0.733000
      4 C8          2.0890   -2.0800    2.2560 c3        1 EPL      0.016000
      5 C9          2.1780   -2.0530    3.7780 c3        1 EPL     -0.233000
      6 O4          1.3470   -2.3460   -0.4490 os        1 EPL     -0.710000
      7 C10         0.4630   -3.1670   -1.2290 c3        1 EPL      0.005000
      8 C11         1.2660   -4.0370   -2.1240 c3        1 EPL     -0.213000
      9 O3          1.1380    0.2800   -0.4090 os        1 EPL     -0.677000
     10 C4          0.1510    1.3130   -0.5630 c2        1 EPL      0.053000
     11 C2          0.2160    2.4610    0.2310 c2        1 EPL     -0.106000
     12 C3         -0.6540    3.5280   -0.0110 c1        1 EPL     -0.193000
     13 C1         -1.5730    3.4500   -1.0310 c1        1 EPL      0.074000
     14 O5         -2.4330    4.5880   -1.3190 os        1 EPL     -0.208000
     15 C7         -3.6830    4.5810   -0.6040 c3        1 EPL     -0.077000
     16 C5         -1.6410    2.3030   -1.8280 c1        1 EPL     -0.142000
     17 C6         -0.7750    1.2350   -1.5890 c1        1 EPL     -0.111000
     18 H91         2.8050   -2.7480    4.0830 hc        1 EPL      0.087667
     19 H92         1.2840   -2.2240    4.1630 hc        1 EPL      0.087667
     20 H93         2.4980   -1.1680    4.0740 hc        1 EPL      0.087667
     21 H81         2.9960   -1.9950    1.8700 h1        1 EPL      0.096000
     22 H82         1.6940   -2.9180    1.9680 h1        1 EPL      0.096000
     23 H101       -0.0680   -3.7140   -0.6430 h1        1 EPL      0.087500
     24 H102       -0.1070   -2.6140   -1.7510 h1        1 EPL      0.087500
     25 H111        0.6990   -4.3780   -2.8430 hc        1 EPL      0.088333
     26 H112        1.6190   -4.7690   -1.6240 hc        1 EPL      0.088333
     27 H113        1.9850   -3.5300   -2.4980 hc        1 EPL      0.088333
     28 H6         -0.8250    0.4010   -2.1660 ha        1 EPL      0.155000
     29 H5         -2.2930    2.2490   -2.5490 ha        1 EPL      0.155000
     30 H71        -4.3680    5.0340   -1.1420 h1        1 EPL      0.085000
     31 H72        -3.5740    5.0560    0.2550 h1        1 EPL      0.085000
     32 H73        -3.9590    3.6550   -0.4330 h1        1 EPL      0.085000
     33 H3         -0.6070    4.3510    0.5580 ha        1 EPL      0.142000
     34 H2          0.8970    2.5200    0.9930 ha        1 EPL      0.152000
@<TRIPOS>BOND
     1    1    2 1   
     2    2    6 1   
     3    2    9 1   
     4    3    4 1   
     5    4    5 1   
     6    4   21 1   
     7    4   22 1   
     8    5   18 1   
     9    5   19 1   
    10    5   20 1   
    11    6    7 1   
    12    7    8 1   
    13    7   23 1   
    14    7   24 1   
    15    8   25 1   
    16    8   26 1   
    17    8   27 1   
    18    9   10 1   
    19   10   11 1   
    20   10   17 1   
    21   11   12 1   
    22   11   34 1   
    23   12   33 1   
    24   13   14 1   
    25   13   16 1   
    26   14   15 1   
    27   15   30 1   
    28   15   31 1   
    29   15   32 1   
    30   16   29 1   
    31   17   28 1   
@<TRIPOS>SUBSTRUCTURE
     1 EPL         1 TEMP              0 ****  ****    0 ROOT
