@<TRIPOS>MOLECULE
EPL
   34    34     1     0     0
SMALL
bcc


@<TRIPOS>ATOM
      1 O1         -1.4420   -0.1250   -2.1060 o         1 EPL     -0.785300
      2 P          -1.7670    0.5880   -0.8850 p5        1 EPL      1.615500
      3 O2         -1.9760    2.1630   -0.9720 os        1 EPL     -0.565200
      4 C8         -2.4090    2.8680    0.1780 c3        1 EPL      0.173900
      5 C9         -1.3770    3.9080    0.5580 c3        1 EPL     -0.107100
      6 O4         -3.0970    0.1100   -0.1370 os        1 EPL     -0.565200
      7 C10        -3.3410   -1.2830   -0.2390 c3        1 EPL      0.173900
      8 C11        -4.6750   -1.5910    0.3910 c3        1 EPL     -0.107100
      9 O3         -0.7200    0.4580    0.3450 os        1 EPL     -0.509500
     10 C4          0.5980    0.1160    0.1660 ca        1 EPL      0.117100
     11 C2          0.9860   -1.2330    0.2790 ca        1 EPL     -0.115500
     12 C3          2.3290   -1.5720    0.2070 ca        1 EPL     -0.159500
     13 C1          3.2940   -0.5600    0.0410 ca        1 EPL      0.118100
     14 O5          4.5990   -1.0100   -0.0170 os        1 EPL     -0.324900
     15 C7          5.5960   -0.0180   -0.2340 c3        1 EPL      0.112700
     16 C5          2.9140    0.7840   -0.0420 ca        1 EPL     -0.159500
     17 C6          1.5650    1.1240    0.0320 ca        1 EPL     -0.115500
     18 H91        -0.4330    3.4230    0.9040 hc        1 EPL      0.048867
     19 H92        -1.1410    4.5550   -0.3200 hc        1 EPL      0.048867
     20 H93        -1.7810    4.5420    1.3830 hc        1 EPL      0.048867
     21 H81        -3.3790    3.3710   -0.0960 h1        1 EPL      0.048200
     22 H82        -2.5830    2.1430    1.0180 h1        1 EPL      0.048200
     23 H101       -3.3210   -1.5610   -1.3300 h1        1 EPL      0.048200
     24 H102       -2.5020   -1.8110    0.2930 h1        1 EPL      0.048200
     25 H111       -4.8710   -2.6880    0.3230 hc        1 EPL      0.048867
     26 H112       -4.6790   -1.2820    1.4640 hc        1 EPL      0.048867
     27 H113       -5.4900   -1.0390   -0.1350 hc        1 EPL      0.048867
     28 H6          1.2620    2.1800   -0.0130 ha        1 EPL      0.143000
     29 H5          3.6630    1.5800   -0.1610 ha        1 EPL      0.148000
     30 H71         5.4210    0.5140   -1.2000 h1        1 EPL      0.045700
     31 H72         5.6200    0.7080    0.6150 h1        1 EPL      0.045700
     32 H73         6.5460   -0.6100   -0.2750 h1        1 EPL      0.045700
     33 H3          2.6530   -2.6200    0.2800 ha        1 EPL      0.148000
     34 H2          0.2270   -2.0150    0.4220 ha        1 EPL      0.143000
@<TRIPOS>BOND
     1    1    2 2   
     2    2    3 1   
     3    2    6 1   
     4    2    9 1   
     5    3    4 1   
     6    4    5 1   
     7    4   21 1   
     8    4   22 1   
     9    5   18 1   
    10    5   19 1   
    11    5   20 1   
    12    6    7 1   
    13    7    8 1   
    14    7   23 1   
    15    7   24 1   
    16    8   25 1   
    17    8   26 1   
    18    8   27 1   
    19    9   10 1   
    20   10   11 ar  
    21   10   17 ar  
    22   11   12 ar  
    23   11   34 1   
    24   12   13 ar  
    25   12   33 1   
    26   13   14 1   
    27   13   16 ar  
    28   14   15 1   
    29   15   30 1   
    30   15   31 1   
    31   15   32 1   
    32   16   17 ar  
    33   16   29 1   
    34   17   28 1   
@<TRIPOS>SUBSTRUCTURE
     1 EPL         1 TEMP              0 ****  ****    0 ROOT
