@<TRIPOS>MOLECULE
EPL
   34    34     1     0     0
SMALL
bcc


@<TRIPOS>ATOM
      1 O1          0.0810   -0.4670    1.3610 o         1 EPL     -0.785300
      2 P           1.5200   -0.4800    1.1710 p5        1 EPL      1.615500
      3 O2          2.4390   -0.7370    2.4440 os        1 EPL     -0.565200
      4 C8          3.8390   -0.8720    2.2700 c3        1 EPL      0.173900
      5 C9          4.5580    0.2010    3.0580 c3        1 EPL     -0.107100
      6 O4          2.0710   -1.5610    0.1290 os        1 EPL     -0.565200
      7 C10         1.2020   -1.7940   -0.9670 c3        1 EPL      0.173900
      8 C11         1.7650   -2.9130   -1.8050 c3        1 EPL     -0.107100
      9 O3          2.1910    0.8520    0.5370 os        1 EPL     -0.509500
     10 C4          1.5900    2.0860    0.5940 ca        1 EPL      0.117100
     11 C2          0.7910    2.5180   -0.4820 ca        1 EPL     -0.115500
     12 C3          0.2700    3.8040   -0.4800 ca        1 EPL     -0.159500
     13 C1          0.5620    4.6710    0.5900 ca        1 EPL      0.118100
     14 O5         -0.0060    5.9260    0.4880 os        1 EPL     -0.324900
     15 C7          0.2280    6.8120    1.5770 c3        1 EPL      0.112700
     16 C5          1.3800    4.2550    1.6460 ca        1 EPL     -0.159500
     17 C6          1.9040    2.9640    1.6430 ca        1 EPL     -0.115500
     18 H91         5.6570    0.0100    3.0210 hc        1 EPL      0.048867
     19 H92         4.3510    1.2120    2.6320 hc        1 EPL      0.048867
     20 H93         4.2200    0.1890    4.1220 hc        1 EPL      0.048867
     21 H81         4.0880   -0.8090    1.1760 h1        1 EPL      0.048200
     22 H82         4.1170   -1.8910    2.6640 h1        1 EPL      0.048200
     23 H101        1.1350   -0.8350   -1.5510 h1        1 EPL      0.048200
     24 H102        0.1860   -2.0510   -0.5560 h1        1 EPL      0.048200
     25 H111        1.0920   -3.0970   -2.6750 hc        1 EPL      0.048867
     26 H112        1.8470   -3.8480   -1.2000 hc        1 EPL      0.048867
     27 H113        2.7830   -2.6460   -2.1770 hc        1 EPL      0.048867
     28 H6          2.5640    2.6370    2.4600 ha        1 EPL      0.143000
     29 H5          1.6210    4.9310    2.4780 ha        1 EPL      0.148000
     30 H71        -0.1670    6.3820    2.5290 h1        1 EPL      0.045700
     31 H72        -0.3440    7.7310    1.2910 h1        1 EPL      0.045700
     32 H73         1.3170    7.0400    1.6710 h1        1 EPL      0.045700
     33 H3         -0.3660    4.1580   -1.3040 ha        1 EPL      0.148000
     34 H2          0.5790    1.8380   -1.3200 ha        1 EPL      0.143000
@<TRIPOS>BOND
     1    1    2 2   
     2    2    3 1   
     3    2    6 1   
     4    2    9 1   
     5    3    4 1   
     6    4    5 1   
     7    4   21 1   
     8    4   22 1   
     9    5   18 1   
    10    5   19 1   
    11    5   20 1   
    12    6    7 1   
    13    7    8 1   
    14    7   23 1   
    15    7   24 1   
    16    8   25 1   
    17    8   26 1   
    18    8   27 1   
    19    9   10 1   
    20   10   11 ar  
    21   10   17 ar  
    22   11   12 ar  
    23   11   34 1   
    24   12   13 ar  
    25   12   33 1   
    26   13   14 1   
    27   13   16 ar  
    28   14   15 1   
    29   15   30 1   
    30   15   31 1   
    31   15   32 1   
    32   16   17 ar  
    33   16   29 1   
    34   17   28 1   
@<TRIPOS>SUBSTRUCTURE
     1 EPL         1 TEMP              0 ****  ****    0 ROOT
