@<TRIPOS>MOLECULE
EPL
   34    34     1     0     0
SMALL
bcc


@<TRIPOS>ATOM
      1 O1          0.0910   -0.4780    1.3560 o         1 EPL     -0.785300
      2 P           1.5280   -0.4840    1.1560 p5        1 EPL      1.615500
      3 O2          2.4580   -0.7470    2.4200 os        1 EPL     -0.565200
      4 C8          3.8570   -0.8760    2.2360 c3        1 EPL      0.173900
      5 C9          4.5770    0.1920    3.0280 c3        1 EPL     -0.107100
      6 O4          2.0770   -1.5540    0.1020 os        1 EPL     -0.565200
      7 C10         1.2010   -1.7820   -0.9900 c3        1 EPL      0.173900
      8 C11         1.7640   -2.8920   -1.8410 c3        1 EPL     -0.107100
      9 O3          2.1900    0.8560    0.5290 os        1 EPL     -0.509500
     10 C4          1.5850    2.0870    0.6010 ca        1 EPL      0.117100
     11 C2          0.7760    2.5260   -0.4640 ca        1 EPL     -0.115500
     12 C3          0.2500    3.8100   -0.4470 ca        1 EPL     -0.159500
     13 C1          0.5480    4.6690    0.6280 ca        1 EPL      0.118100
     14 O5         -0.0260    5.9220    0.5420 os        1 EPL     -0.324900
     15 C7          0.2150    6.8000    1.6360 c3        1 EPL      0.112700
     16 C5          1.3760    4.2460    1.6740 ca        1 EPL     -0.159500
     17 C6          1.9050    2.9570    1.6550 ca        1 EPL     -0.115500
     18 H91         5.6770    0.0050    2.9820 hc        1 EPL      0.048867
     19 H92         4.3640    1.2060    2.6120 hc        1 EPL      0.048867
     20 H93         4.2460    0.1710    4.0940 hc        1 EPL      0.048867
     21 H81         4.0980   -0.8030    1.1410 h1        1 EPL      0.048200
     22 H82         4.1410   -1.8970    2.6190 h1        1 EPL      0.048200
     23 H101        1.1270   -0.8190   -1.5670 h1        1 EPL      0.048200
     24 H102        0.1890   -2.0460   -0.5750 h1        1 EPL      0.048200
     25 H111        2.7780   -2.6180   -2.2170 hc        1 EPL      0.048867
     26 H112        1.8540   -3.8310   -1.2440 hc        1 EPL      0.048867
     27 H113        1.0850   -3.0720   -2.7080 hc        1 EPL      0.048867
     28 H6          2.5720    2.6260    2.4640 ha        1 EPL      0.143000
     29 H5          1.6220    4.9160    2.5100 ha        1 EPL      0.148000
     30 H71         1.3040    7.0300    1.7230 h1        1 EPL      0.045700
     31 H72        -0.1710    6.3610    2.5880 h1        1 EPL      0.045700
     32 H73        -0.3620    7.7190    1.3620 h1        1 EPL      0.045700
     33 H3         -0.3940    4.1680   -1.2630 ha        1 EPL      0.148000
     34 H2          0.5590    1.8530   -1.3070 ha        1 EPL      0.143000
@<TRIPOS>BOND
     1    1    2 2   
     2    2    3 1   
     3    2    6 1   
     4    2    9 1   
     5    3    4 1   
     6    4    5 1   
     7    4   21 1   
     8    4   22 1   
     9    5   18 1   
    10    5   19 1   
    11    5   20 1   
    12    6    7 1   
    13    7    8 1   
    14    7   23 1   
    15    7   24 1   
    16    8   25 1   
    17    8   26 1   
    18    8   27 1   
    19    9   10 1   
    20   10   11 ar  
    21   10   17 ar  
    22   11   12 ar  
    23   11   34 1   
    24   12   13 ar  
    25   12   33 1   
    26   13   14 1   
    27   13   16 ar  
    28   14   15 1   
    29   15   30 1   
    30   15   31 1   
    31   15   32 1   
    32   16   17 ar  
    33   16   29 1   
    34   17   28 1   
@<TRIPOS>SUBSTRUCTURE
     1 EPL         1 TEMP              0 ****  ****    0 ROOT
