@<TRIPOS>MOLECULE
EPM
   67    66     1     0     0
SMALL
bcc


@<TRIPOS>ATOM
      1 C1          0.4590    1.7600   -0.9090 c         1 EPM      0.929600
      2 O1         -0.5870    1.2080   -1.2900 o         1 EPM     -0.766800
      3 O2          0.7550    2.9840   -0.8610 o         1 EPM     -0.766800
      4 C2          1.6090    0.7590   -0.4170 c3        1 EPM     -0.054500
      5 C3          1.1160    0.0690    0.8450 c3        1 EPM     -0.085400
      6 C4          1.9930   -1.0600    1.3170 c3        1 EPM     -0.019300
      7 S1          3.3670   -0.3740    2.2200 ss        1 EPM     -0.336200
      8 C5          4.6190   -1.5920    2.0320 c3        1 EPM     -0.037000
      9 N           2.8890    1.5180   -0.1980 n4        1 EPM     -0.681800
     10 C6          3.7110    1.5730   -1.4450 c         1 EPM      0.562100
     11 O3          4.5730    0.7070   -1.5670 o         1 EPM     -0.484100
     12 C7          3.4020    2.6950   -2.3920 c3        1 EPM     -0.169400
     13 C8          3.9780    2.4240   -3.7650 c3        1 EPM     -0.076400
     14 C9          3.7120    3.5950   -4.6880 c3        1 EPM     -0.080400
     15 C10         4.2690    3.3310   -6.0700 c3        1 EPM     -0.078400
     16 C11         4.0100    4.5010   -6.9950 c3        1 EPM     -0.079400
     17 C12         4.5660    4.2400   -8.3780 c3        1 EPM     -0.078400
     18 C13         4.3100    5.4110   -9.3030 c3        1 EPM     -0.079400
     19 C14         4.8670    5.1500  -10.6860 c3        1 EPM     -0.078400
     20 C15         4.6120    6.3220  -11.6100 c3        1 EPM     -0.079400
     21 C16         5.1700    6.0620  -12.9930 c3        1 EPM     -0.078400
     22 C17         4.9160    7.2340  -13.9160 c3        1 EPM     -0.079400
     23 C18         5.4730    6.9750  -15.3000 c3        1 EPM     -0.079400
     24 C19         5.2200    8.1470  -16.2230 c3        1 EPM     -0.079400
     25 C20         5.7780    7.8890  -17.6070 c3        1 EPM     -0.080400
     26 C21         5.5280    9.0540  -18.5300 c3        1 EPM     -0.092100
     27 H2          1.7850    0.0010   -1.2280 hx        1 EPM      0.089700
     28 H31         0.9670    0.8170    1.6700 hc        1 EPM      0.097200
     29 H32         0.0930   -0.3350    0.5840 hc        1 EPM      0.097200
     30 H41         2.3620   -1.6730    0.4600 h1        1 EPM      0.076700
     31 H42         1.4150   -1.7330    1.9960 h1        1 EPM      0.076700
     32 H51         4.8880   -1.7490    0.9640 h1        1 EPM      0.073033
     33 H52         5.5090   -1.2130    2.5850 h1        1 EPM      0.073033
     34 H53         4.3070   -2.5660    2.4700 h1        1 EPM      0.073033
     35 HN          3.4250    1.0790    0.5800 hn        1 EPM      0.468800
     36 H71         2.2820    2.8540   -2.4520 hc        1 EPM      0.121200
     37 H72         3.8410    3.6380   -1.9620 hc        1 EPM      0.121200
     38 H81         3.5160    1.4940   -4.1890 hc        1 EPM      0.056200
     39 H82         5.0820    2.2390   -3.6860 hc        1 EPM      0.056200
     40 H91         4.1790    4.5230   -4.2640 hc        1 EPM      0.050200
     41 H92         2.6070    3.7790   -4.7540 hc        1 EPM      0.050200
     42 H101        5.3730    3.1410   -6.0030 hc        1 EPM      0.042200
     43 H102        3.7990    2.4050   -6.4950 hc        1 EPM      0.042200
     44 H111        2.9060    4.6900   -7.0620 hc        1 EPM      0.042200
     45 H112        4.4790    5.4280   -6.5700 hc        1 EPM      0.042200
     46 H121        5.6700    4.0490   -8.3100 hc        1 EPM      0.039700
     47 H122        4.0960    3.3140   -8.8040 hc        1 EPM      0.039700
     48 H131        4.7790    6.3370   -8.8760 hc        1 EPM      0.040700
     49 H132        3.2060    5.6010   -9.3710 hc        1 EPM      0.040700
     50 H141        5.9700    4.9590  -10.6170 hc        1 EPM      0.039200
     51 H142        4.3970    4.2260  -11.1130 hc        1 EPM      0.039200
     52 H151        3.5090    6.5130  -11.6790 hc        1 EPM      0.040200
     53 H152        5.0820    7.2470  -11.1820 hc        1 EPM      0.040200
     54 H161        4.6990    5.1380  -13.4200 hc        1 EPM      0.039200
     55 H162        6.2730    5.8700  -12.9240 hc        1 EPM      0.039200
     56 H171        5.3860    8.1590  -13.4890 hc        1 EPM      0.039700
     57 H172        3.8130    7.4260  -13.9860 hc        1 EPM      0.039700
     58 H181        6.5770    6.7820  -15.2300 hc        1 EPM      0.039200
     59 H182        5.0030    6.0510  -15.7270 hc        1 EPM      0.039200
     60 H191        4.1170    8.3390  -16.2930 hc        1 EPM      0.039700
     61 H192        5.6900    9.0720  -15.7950 hc        1 EPM      0.039700
     62 H201        6.8810    7.6950  -17.5350 hc        1 EPM      0.038200
     63 H202        5.3080    6.9630  -18.0320 hc        1 EPM      0.038200
     64 H211        6.0100    9.9810  -18.1340 hc        1 EPM      0.032700
     65 H212        5.9470    8.8430  -19.5430 hc        1 EPM      0.032700
     66 H213        4.4330    9.2460  -18.6340 hc        1 EPM      0.032700
     67 HN3         2.5960    2.4830    0.0500 hn        1 EPM      0.468800
@<TRIPOS>BOND
     1    1    2 1   
     2    1    3 1   
     3    1    4 1   
     4    4    5 1   
     5    4    9 1   
     6    4   27 1   
     7    5    6 1   
     8    5   28 1   
     9    5   29 1   
    10    6    7 1   
    11    6   30 1   
    12    6   31 1   
    13    7    8 1   
    14    8   32 1   
    15    8   33 1   
    16    8   34 1   
    17    9   10 1   
    18    9   35 1   
    19    9   67 1   
    20   10   11 2   
    21   10   12 1   
    22   12   13 1   
    23   12   36 1   
    24   12   37 1   
    25   13   14 1   
    26   13   38 1   
    27   13   39 1   
    28   14   15 1   
    29   14   40 1   
    30   14   41 1   
    31   15   16 1   
    32   15   42 1   
    33   15   43 1   
    34   16   17 1   
    35   16   44 1   
    36   16   45 1   
    37   17   18 1   
    38   17   46 1   
    39   17   47 1   
    40   18   19 1   
    41   18   48 1   
    42   18   49 1   
    43   19   20 1   
    44   19   50 1   
    45   19   51 1   
    46   20   21 1   
    47   20   52 1   
    48   20   53 1   
    49   21   22 1   
    50   21   54 1   
    51   21   55 1   
    52   22   23 1   
    53   22   56 1   
    54   22   57 1   
    55   23   24 1   
    56   23   58 1   
    57   23   59 1   
    58   24   25 1   
    59   24   60 1   
    60   24   61 1   
    61   25   26 1   
    62   25   62 1   
    63   25   63 1   
    64   26   64 1   
    65   26   65 1   
    66   26   66 1   
@<TRIPOS>SUBSTRUCTURE
     1 EPM         1 TEMP              0 ****  ****    0 ROOT
