@<TRIPOS>MOLECULE
EPM
   67    66     1     0     0
SMALL
bcc


@<TRIPOS>ATOM
      1 C1          0.4640    1.7740   -0.9040 c         1 EPM      0.929600
      2 O1         -0.5830    1.2250   -1.2850 o         1 EPM     -0.766800
      3 O2          0.7640    2.9960   -0.8560 o         1 EPM     -0.766800
      4 C2          1.6120    0.7690   -0.4130 c3        1 EPM     -0.054500
      5 C3          1.1170    0.0800    0.8490 c3        1 EPM     -0.085400
      6 C4          1.9910   -1.0520    1.3200 c3        1 EPM     -0.019300
      7 S1          3.3680   -0.3710    2.2220 ss        1 EPM     -0.336200
      8 C5          4.6150   -1.5940    2.0320 c3        1 EPM     -0.037000
      9 N           2.8940    1.5230   -0.1960 ny        1 EPM     -0.681800
     10 C6          3.7150    1.5760   -1.4430 c         1 EPM      0.562100
     11 O3          4.5740    0.7070   -1.5670 o         1 EPM     -0.484100
     12 C7          3.4100    2.7000   -2.3890 c3        1 EPM     -0.169400
     13 C8          3.9830    2.4260   -3.7640 c3        1 EPM     -0.076400
     14 C9          3.7190    3.5970   -4.6860 c3        1 EPM     -0.080400
     15 C10         4.2720    3.3310   -6.0690 c3        1 EPM     -0.078400
     16 C11         4.0160    4.5020   -6.9940 c3        1 EPM     -0.079400
     17 C12         4.5680    4.2390   -8.3780 c3        1 EPM     -0.078400
     18 C13         4.3130    5.4100   -9.3020 c3        1 EPM     -0.079400
     19 C14         4.8660    5.1470  -10.6870 c3        1 EPM     -0.078400
     20 C15         4.6130    6.3190  -11.6110 c3        1 EPM     -0.079400
     21 C16         5.1660    6.0570  -12.9950 c3        1 EPM     -0.078400
     22 C17         4.9130    7.2290  -13.9190 c3        1 EPM     -0.079400
     23 C18         5.4670    6.9680  -15.3030 c3        1 EPM     -0.079400
     24 C19         5.2150    8.1400  -16.2270 c3        1 EPM     -0.079400
     25 C20         5.7680    7.8790  -17.6120 c3        1 EPM     -0.080400
     26 C21         5.5190    9.0440  -18.5350 c3        1 EPM     -0.092100
     27 H2          1.7840    0.0100   -1.2250 hx        1 EPM      0.089700
     28 H31         0.0930   -0.3210    0.5890 hc        1 EPM      0.097200
     29 H32         0.9710    0.8280    1.6740 hc        1 EPM      0.097200
     30 H41         1.4110   -1.7230    2.0000 h1        1 EPM      0.076700
     31 H42         2.3570   -1.6670    0.4630 h1        1 EPM      0.076700
     32 H51         5.5070   -1.2170    2.5840 h1        1 EPM      0.073033
     33 H52         4.3010   -2.5660    2.4710 h1        1 EPM      0.073033
     34 H53         4.8830   -1.7510    0.9640 h1        1 EPM      0.073033
     35 HN          3.4300    1.0830    0.5820 hn        1 EPM      0.468800
     36 H71         2.2900    2.8630   -2.4480 hc        1 EPM      0.121200
     37 H72         3.8530    3.6400   -1.9600 hc        1 EPM      0.121200
     38 H81         3.5170    1.4970   -4.1870 hc        1 EPM      0.056200
     39 H82         5.0860    2.2370   -3.6870 hc        1 EPM      0.056200
     40 H91         4.1890    4.5240   -4.2630 hc        1 EPM      0.050200
     41 H92         2.6140    3.7850   -4.7500 hc        1 EPM      0.050200
     42 H101        5.3760    3.1380   -6.0040 hc        1 EPM      0.042200
     43 H102        3.7990    2.4070   -6.4930 hc        1 EPM      0.042200
     44 H111        2.9120    4.6940   -7.0590 hc        1 EPM      0.042200
     45 H112        4.4880    5.4270   -6.5700 hc        1 EPM      0.042200
     46 H121        4.0940    3.3150   -8.8030 hc        1 EPM      0.039700
     47 H122        5.6710    4.0440   -8.3120 hc        1 EPM      0.039700
     48 H131        4.7860    6.3340   -8.8770 hc        1 EPM      0.040700
     49 H132        3.2100    5.6040   -9.3680 hc        1 EPM      0.040700
     50 H141        4.3920    4.2240  -11.1120 hc        1 EPM      0.039200
     51 H142        5.9690    4.9520  -10.6210 hc        1 EPM      0.039200
     52 H151        3.5100    6.5140  -11.6770 hc        1 EPM      0.040200
     53 H152        5.0860    7.2430  -11.1850 hc        1 EPM      0.040200
     54 H161        6.2690    5.8610  -12.9290 hc        1 EPM      0.039200
     55 H162        4.6920    5.1340  -13.4210 hc        1 EPM      0.039200
     56 H171        5.3870    8.1530  -13.4930 hc        1 EPM      0.039700
     57 H172        3.8110    7.4250  -13.9850 hc        1 EPM      0.039700
     58 H181        4.9920    6.0440  -15.7290 hc        1 EPM      0.039200
     59 H182        6.5690    6.7710  -15.2360 hc        1 EPM      0.039200
     60 H191        5.6890    9.0630  -15.8010 hc        1 EPM      0.039700
     61 H192        4.1120    8.3360  -16.2940 hc        1 EPM      0.039700
     62 H201        5.2930    6.9550  -18.0350 hc        1 EPM      0.038200
     63 H202        6.8700    7.6820  -17.5430 hc        1 EPM      0.038200
     64 H211        6.0050    9.9690  -18.1420 hc        1 EPM      0.032700
     65 H212        4.4240    9.2400  -18.6360 hc        1 EPM      0.032700
     66 H213        5.9340    8.8310  -19.5490 hc        1 EPM      0.032700
     67 HN3         2.6050    2.4890    0.0530 hn        1 EPM      0.468800
@<TRIPOS>BOND
     1    1    2 1   
     2    1    3 1   
     3    1    4 1   
     4    4    5 1   
     5    4    9 1   
     6    4   27 1   
     7    5    6 1   
     8    5   28 1   
     9    5   29 1   
    10    6    7 1   
    11    6   30 1   
    12    6   31 1   
    13    7    8 1   
    14    8   32 1   
    15    8   33 1   
    16    8   34 1   
    17    9   10 1   
    18    9   35 1   
    19    9   67 1   
    20   10   11 2   
    21   10   12 1   
    22   12   13 1   
    23   12   36 1   
    24   12   37 1   
    25   13   14 1   
    26   13   38 1   
    27   13   39 1   
    28   14   15 1   
    29   14   40 1   
    30   14   41 1   
    31   15   16 1   
    32   15   42 1   
    33   15   43 1   
    34   16   17 1   
    35   16   44 1   
    36   16   45 1   
    37   17   18 1   
    38   17   46 1   
    39   17   47 1   
    40   18   19 1   
    41   18   48 1   
    42   18   49 1   
    43   19   20 1   
    44   19   50 1   
    45   19   51 1   
    46   20   21 1   
    47   20   52 1   
    48   20   53 1   
    49   21   22 1   
    50   21   54 1   
    51   21   55 1   
    52   22   23 1   
    53   22   56 1   
    54   22   57 1   
    55   23   24 1   
    56   23   58 1   
    57   23   59 1   
    58   24   25 1   
    59   24   60 1   
    60   24   61 1   
    61   25   26 1   
    62   25   62 1   
    63   25   63 1   
    64   26   64 1   
    65   26   65 1   
    66   26   66 1   
@<TRIPOS>SUBSTRUCTURE
     1 EPM         1 TEMP              0 ****  ****    0 ROOT
