@<TRIPOS>MOLECULE
EPM
   67    66     1     0     0
SMALL
bcc


@<TRIPOS>ATOM
      1 C1          0.4550    1.7260   -0.9320 c         1 EPM      0.929600
      2 O1         -0.5800    1.1600   -1.3230 o         1 EPM     -0.766300
      3 O2          0.7350    2.9530   -0.8800 o         1 EPM     -0.766300
      4 C2          1.6140    0.7390   -0.4310 c3        1 EPM     -0.054500
      5 C3          1.1180    0.0410    0.8260 c3        1 EPM     -0.085400
      6 C4          2.0050   -1.0770    1.3040 c3        1 EPM     -0.019300
      7 S1          3.3620   -0.3750    2.2200 ss        1 EPM     -0.336200
      8 C5          4.6310   -1.5780    2.0410 c3        1 EPM     -0.037000
      9 N           2.8810    1.5130   -0.2010 n4        1 EPM     -0.681800
     10 C6          3.7140    1.5790   -1.4400 c         1 EPM      0.562100
     11 O3          4.5880    0.7240   -1.5560 o         1 EPM     -0.484100
     12 C7          3.3990    2.6980   -2.3890 c3        1 EPM     -0.169400
     13 C8          3.9880    2.4330   -3.7590 c3        1 EPM     -0.076400
     14 C9          3.7120    3.5990   -4.6840 c3        1 EPM     -0.080400
     15 C10         4.2820    3.3410   -6.0630 c3        1 EPM     -0.078400
     16 C11         4.0110    4.5060   -6.9910 c3        1 EPM     -0.079400
     17 C12         4.5790    4.2510   -8.3700 c3        1 EPM     -0.078400
     18 C13         4.3090    5.4160   -9.2990 c3        1 EPM     -0.079400
     19 C14         4.8770    5.1610  -10.6780 c3        1 EPM     -0.078400
     20 C15         4.6070    6.3250  -11.6070 c3        1 EPM     -0.079400
     21 C16         5.1750    6.0710  -12.9870 c3        1 EPM     -0.078400
     22 C17         4.9050    7.2360  -13.9150 c3        1 EPM     -0.079400
     23 C18         5.4720    6.9810  -15.2950 c3        1 EPM     -0.079400
     24 C19         5.2020    8.1460  -16.2240 c3        1 EPM     -0.079400
     25 C20         5.7690    7.8930  -17.6050 c3        1 EPM     -0.080400
     26 C21         5.5020    9.0490  -18.5330 c3        1 EPM     -0.092100
     27 H2          1.8060   -0.0170   -1.2410 hx        1 EPM      0.089700
     28 H31         0.1030   -0.3750    0.5560 hc        1 EPM      0.097200
     29 H32         0.9530    0.7860    1.6500 hc        1 EPM      0.097200
     30 H41         1.4290   -1.7580    1.9790 h1        1 EPM      0.076700
     31 H42         2.3890   -1.6850    0.4510 h1        1 EPM      0.076700
     32 H51         4.3270   -2.5550    2.4770 h1        1 EPM      0.073033
     33 H52         4.9110   -1.7300    0.9760 h1        1 EPM      0.073033
     34 H53         5.5110   -1.1880    2.6020 h1        1 EPM      0.073033
     35 HN          2.5750    2.4740    0.0450 hn        1 EPM      0.468800
     36 H71         2.2780    2.8430   -2.4580 hc        1 EPM      0.121200
     37 H72         3.8240    3.6460   -1.9560 hc        1 EPM      0.121200
     38 H81         3.5420    1.4960   -4.1850 hc        1 EPM      0.056200
     39 H82         5.0940    2.2630   -3.6720 hc        1 EPM      0.056200
     40 H91         4.1630    4.5340   -4.2590 hc        1 EPM      0.050200
     41 H92         2.6050    3.7680   -4.7580 hc        1 EPM      0.050200
     42 H101        5.3880    3.1680   -5.9880 hc        1 EPM      0.042200
     43 H102        3.8280    2.4080   -6.4890 hc        1 EPM      0.042200
     44 H111        4.4640    5.4410   -6.5640 hc        1 EPM      0.042200
     45 H112        2.9050    4.6790   -7.0650 hc        1 EPM      0.042200
     46 H121        4.1260    3.3170   -8.7970 hc        1 EPM      0.039700
     47 H122        5.6850    4.0780   -8.2960 hc        1 EPM      0.039700
     48 H131        4.7620    6.3500   -8.8720 hc        1 EPM      0.040700
     49 H132        3.2030    5.5880   -9.3730 hc        1 EPM      0.040700
     50 H141        4.4250    4.2270  -11.1050 hc        1 EPM      0.039200
     51 H142        5.9830    4.9880  -10.6040 hc        1 EPM      0.039200
     52 H151        3.5010    6.4980  -11.6810 hc        1 EPM      0.040200
     53 H152        5.0590    7.2600  -11.1810 hc        1 EPM      0.040200
     54 H161        4.7230    5.1370  -13.4130 hc        1 EPM      0.039200
     55 H162        6.2810    5.8980  -12.9130 hc        1 EPM      0.039200
     56 H171        3.7990    7.4080  -13.9900 hc        1 EPM      0.039700
     57 H172        5.3570    8.1700  -13.4890 hc        1 EPM      0.039700
     58 H181        6.5790    6.8090  -15.2210 hc        1 EPM      0.039200
     59 H182        5.0200    6.0470  -15.7220 hc        1 EPM      0.039200
     60 H191        4.0960    8.3180  -16.2990 hc        1 EPM      0.039700
     61 H192        5.6540    9.0800  -15.7980 hc        1 EPM      0.039700
     62 H201        5.3170    6.9570  -18.0290 hc        1 EPM      0.038200
     63 H202        6.8750    7.7180  -17.5280 hc        1 EPM      0.038200
     64 H211        5.9290    8.8420  -19.5440 hc        1 EPM      0.032700
     65 H212        5.9660    9.9860  -18.1400 hc        1 EPM      0.032700
     66 H213        4.4040    9.2220  -18.6420 hc        1 EPM      0.032700
     67 HN3         3.4170    1.0810    0.5820 hn        1 EPM      0.468800
@<TRIPOS>BOND
     1    1    2 1   
     2    1    3 1   
     3    1    4 1   
     4    4    5 1   
     5    4    9 1   
     6    4   27 1   
     7    5    6 1   
     8    5   28 1   
     9    5   29 1   
    10    6    7 1   
    11    6   30 1   
    12    6   31 1   
    13    7    8 1   
    14    8   32 1   
    15    8   33 1   
    16    8   34 1   
    17    9   10 1   
    18    9   35 1   
    19    9   67 1   
    20   10   11 2   
    21   10   12 1   
    22   12   13 1   
    23   12   36 1   
    24   12   37 1   
    25   13   14 1   
    26   13   38 1   
    27   13   39 1   
    28   14   15 1   
    29   14   40 1   
    30   14   41 1   
    31   15   16 1   
    32   15   42 1   
    33   15   43 1   
    34   16   17 1   
    35   16   44 1   
    36   16   45 1   
    37   17   18 1   
    38   17   46 1   
    39   17   47 1   
    40   18   19 1   
    41   18   48 1   
    42   18   49 1   
    43   19   20 1   
    44   19   50 1   
    45   19   51 1   
    46   20   21 1   
    47   20   52 1   
    48   20   53 1   
    49   21   22 1   
    50   21   54 1   
    51   21   55 1   
    52   22   23 1   
    53   22   56 1   
    54   22   57 1   
    55   23   24 1   
    56   23   58 1   
    57   23   59 1   
    58   24   25 1   
    59   24   60 1   
    60   24   61 1   
    61   25   26 1   
    62   25   62 1   
    63   25   63 1   
    64   26   64 1   
    65   26   65 1   
    66   26   66 1   
@<TRIPOS>SUBSTRUCTURE
     1 EPM         1 TEMP              0 ****  ****    0 ROOT
