@<TRIPOS>MOLECULE
EPM
   66    64     1     0     0
SMALL
bcc


@<TRIPOS>ATOM
      1 C1         -5.6840   -2.0430    5.9320 c1        1 EPM      0.327000
      2 O1         -5.8670   -0.8090    6.0890 o         1 EPM     -0.570000
      3 O2         -6.5390   -2.7330    5.3140 os        1 EPM     -0.568000
      4 C2         -4.4970   -2.7070    6.5560 c3        1 EPM     -0.074000
      5 C3         -4.5260   -2.4880    8.0440 c3        1 EPM     -0.140000
      6 C4         -5.6310   -3.3460    8.6660 c3        1 EPM     -0.253000
      7 S1         -5.9870   -2.7500   10.3130 ss        1 EPM     -0.031000
      8 C5         -7.4290   -3.5780   10.9470 c3        1 EPM     -0.335000
      9 N          -3.2820   -2.1400    6.0080 n         1 EPM     -0.326000
     10 C6         -2.8390   -2.5210    4.6850 c2        1 EPM      0.285000
     11 O3         -3.5460   -3.2180    3.9860 o         1 EPM     -0.413000
     12 C7         -1.4860   -1.9790    4.1310 c3        1 EPM     -0.185000
     13 C8         -1.5440   -1.9260    2.5890 c3        1 EPM     -0.162000
     14 C9         -0.2000   -1.3330    2.0330 c3        1 EPM     -0.155000
     15 C10        -0.4240   -0.8130    0.5850 c3        1 EPM     -0.160000
     16 C11         0.9490   -0.5930   -0.1100 c3        1 EPM     -0.156000
     17 C12         0.7700    0.3800   -1.3110 c3        1 EPM     -0.158000
     18 C13         1.9660    0.2410   -2.2680 c3        1 EPM     -0.157000
     19 C14         2.0980    1.5190   -3.1120 c3        1 EPM     -0.158000
     20 C15         2.8980    1.2070   -4.4090 c3        1 EPM     -0.157000
     21 C16         3.3790    2.5280   -5.0430 c3        1 EPM     -0.158000
     22 C17         3.7360    2.2900   -6.5270 c3        1 EPM     -0.157000
     23 C18         4.7210    3.3740   -6.9970 c3        1 EPM     -0.158000
     24 C19         4.7300    3.4300   -8.5230 c3        1 EPM     -0.158000
     25 C20         5.9090    4.2850   -8.9950 c3        1 EPM     -0.159000
     26 C21         5.7410    4.6120  -10.4780 c3        1 EPM     -0.210000
     27 H2         -4.5230   -3.6660    6.3670 h1        1 EPM      0.103000
     28 H31        -3.6640   -2.7400    8.4260 hc        1 EPM      0.079000
     29 H32        -4.7010   -1.5470    8.2300 hc        1 EPM      0.079000
     30 H41        -5.3350   -4.2750    8.7130 h1        1 EPM      0.125500
     31 H42        -6.4360   -3.2880    8.1180 h1        1 EPM      0.125500
     32 H51        -7.2510   -4.5420   11.0110 h1        1 EPM      0.110000
     33 H52        -7.6440   -3.2240   11.8390 h1        1 EPM      0.110000
     34 H53        -8.1860   -3.4250   10.3420 h1        1 EPM      0.110000
     35 HN         -2.7600   -1.5910    6.5240 hn        1 EPM      0.237000
     36 H71        -0.7550   -2.5740    4.4100 hc        1 EPM      0.094000
     37 H72        -1.3260   -1.0770    4.4830 hc        1 EPM      0.094000
     38 H81        -2.2910   -1.3570    2.3110 hc        1 EPM      0.097000
     39 H82        -1.6720   -2.8200    2.2400 hc        1 EPM      0.097000
     40 H91         0.0930   -0.5880    2.6080 hc        1 EPM      0.072500
     41 H92         0.4870   -2.0320    2.0280 hc        1 EPM      0.072500
     42 H101       -0.9120    0.0310    0.6150 hc        1 EPM      0.084500
     43 H102       -0.9390   -1.4670    0.0830 hc        1 EPM      0.084500
     44 H111        1.2930   -1.4500   -0.4330 hc        1 EPM      0.074500
     45 H112        1.5800   -0.2090    0.5290 hc        1 EPM      0.074500
     46 H121        0.7220    1.3010   -0.9810 hc        1 EPM      0.080500
     47 H122       -0.0570    0.1610   -1.7880 hc        1 EPM      0.080500
     48 H131        2.7890    0.1060   -1.7470 hc        1 EPM      0.076500
     49 H132        1.8260   -0.5190   -2.8520 hc        1 EPM      0.076500
     50 H141        1.2100    1.8450   -3.3490 hc        1 EPM      0.079500
     51 H142        2.5660    2.2010   -2.5990 hc        1 EPM      0.079500
     52 H151        2.3200    0.7280   -5.0450 hc        1 EPM      0.077500
     53 H152        3.6770    0.6470   -4.1870 hc        1 EPM      0.077500
     54 H161        4.1660    2.8480   -4.5680 hc        1 EPM      0.079000
     55 H162        2.6690    3.1950   -4.9820 hc        1 EPM      0.079000
     56 H171        4.1510    1.4020   -6.6270 hc        1 EPM      0.078000
     57 H172        2.9200    2.3320   -7.0700 hc        1 EPM      0.078000
     58 H181        5.6170    3.1620   -6.6740 hc        1 EPM      0.079000
     59 H182        4.4420    4.2480   -6.6390 hc        1 EPM      0.079000
     60 H191        3.8970    3.8240   -8.8390 hc        1 EPM      0.078000
     61 H192        4.8180    2.5310   -8.8800 hc        1 EPM      0.078000
     62 H201        6.7400    3.7930   -8.8630 hc        1 EPM      0.078000
     63 H202        5.9370    5.1190   -8.4770 hc        1 EPM      0.078000
     64 H211        4.9880    5.2200  -10.5930 hc        1 EPM      0.070333
     65 H212        6.5560    5.0350  -10.8130 hc        1 EPM      0.070333
     66 H213        5.5730    3.7820  -10.9800 hc        1 EPM      0.070333
@<TRIPOS>BOND
     1    1    2 1   
     2    1    4 1   
     3    4    5 1   
     4    4    9 1   
     5    4   27 1   
     6    5    6 1   
     7    5   28 1   
     8    5   29 1   
     9    6    7 1   
    10    6   30 1   
    11    6   31 1   
    12    7    8 1   
    13    8   32 1   
    14    8   33 1   
    15    8   34 1   
    16    9   10 1   
    17    9   35 1   
    18   10   11 1   
    19   10   12 1   
    20   12   13 1   
    21   12   36 1   
    22   12   37 1   
    23   13   14 1   
    24   13   38 1   
    25   13   39 1   
    26   14   15 1   
    27   14   40 1   
    28   14   41 1   
    29   15   16 1   
    30   15   42 1   
    31   15   43 1   
    32   16   17 1   
    33   16   44 1   
    34   16   45 1   
    35   17   18 1   
    36   17   46 1   
    37   17   47 1   
    38   18   19 1   
    39   18   48 1   
    40   18   49 1   
    41   19   20 1   
    42   19   50 1   
    43   19   51 1   
    44   20   21 1   
    45   20   52 1   
    46   20   53 1   
    47   21   22 1   
    48   21   54 1   
    49   21   55 1   
    50   22   23 1   
    51   22   56 1   
    52   22   57 1   
    53   23   24 1   
    54   23   58 1   
    55   23   59 1   
    56   24   25 1   
    57   24   60 1   
    58   24   61 1   
    59   25   26 1   
    60   25   62 1   
    61   25   63 1   
    62   26   64 1   
    63   26   65 1   
    64   26   66 1   
@<TRIPOS>SUBSTRUCTURE
     1 EPM         1 TEMP              0 ****  ****    0 ROOT
