@<TRIPOS>MOLECULE
EPM
   66    65     1     0     0
SMALL
bcc


@<TRIPOS>ATOM
      1 C1         -5.4260   -2.2500    1.3600 c         1 EPM      0.912600
      2 O1         -4.4070   -2.8130    0.8700 o         1 EPM     -0.828300
      3 O2         -6.2040   -2.7600    2.2070 o         1 EPM     -0.828300
      4 C2         -5.7670   -0.7790    0.9030 c3        1 EPM     -0.047300
      5 C3         -7.1340   -0.8070    0.2030 c3        1 EPM     -0.065400
      6 C4         -7.7670    0.5590    0.1860 c3        1 EPM      0.008700
      7 S1         -9.1650    0.5160   -0.9150 ss        1 EPM     -0.346200
      8 C5         -9.7220    2.1760   -0.8450 c3        1 EPM     -0.034000
      9 N          -4.7130   -0.2220    0.0800 n         1 EPM     -0.514900
     10 C6         -4.2710    1.0690    0.1820 c         1 EPM      0.641100
     11 O3         -4.9210    1.9770    0.7530 o         1 EPM     -0.664100
     12 C7         -2.9590    1.4150   -0.5140 c3        1 EPM     -0.156400
     13 C8         -1.7840    0.7350    0.1530 c3        1 EPM     -0.083400
     14 C9         -0.4770    1.1720   -0.4760 c3        1 EPM     -0.076400
     15 C10         0.7010    0.4830    0.1790 c3        1 EPM     -0.081400
     16 C11         2.0090    0.9150   -0.4480 c3        1 EPM     -0.077400
     17 C12         3.1860    0.2250    0.2070 c3        1 EPM     -0.079400
     18 C13         4.4950    0.6550   -0.4190 c3        1 EPM     -0.078400
     19 C14         5.6720   -0.0350    0.2370 c3        1 EPM     -0.079400
     20 C15         6.9810    0.3950   -0.3890 c3        1 EPM     -0.078400
     21 C16         8.1570   -0.2960    0.2670 c3        1 EPM     -0.079400
     22 C17         9.4670    0.1340   -0.3590 c3        1 EPM     -0.078400
     23 C18        10.6430   -0.5570    0.2970 c3        1 EPM     -0.079400
     24 C19        11.9530   -0.1280   -0.3280 c3        1 EPM     -0.079400
     25 C20        13.1300   -0.8180    0.3270 c3        1 EPM     -0.080400
     26 C21        14.4360   -0.3930   -0.2920 c3        1 EPM     -0.092100
     27 H2         -5.8670   -0.1560    1.8390 h1        1 EPM      0.058700
     28 H31        -7.0300   -1.2010   -0.8410 hc        1 EPM      0.064200
     29 H32        -7.7790   -1.5250    0.7780 hc        1 EPM      0.064200
     30 H41        -8.1060    0.8460    1.2100 h1        1 EPM      0.066200
     31 H42        -7.0390    1.3340   -0.1590 h1        1 EPM      0.066200
     32 H51       -10.5830    2.2590   -1.5450 h1        1 EPM      0.050033
     33 H52       -10.0570    2.4540    0.1800 h1        1 EPM      0.050033
     34 H53        -8.9260    2.8890   -1.1560 h1        1 EPM      0.050033
     35 HN         -4.0710   -0.9150   -0.2560 hn        1 EPM      0.326500
     36 H71        -2.8350    2.5280   -0.4690 hc        1 EPM      0.054700
     37 H72        -3.0150    1.1200   -1.5940 hc        1 EPM      0.054700
     38 H81        -1.8840   -0.3810    0.0710 hc        1 EPM      0.058700
     39 H82        -1.7780    0.9860    1.2470 hc        1 EPM      0.058700
     40 H91        -0.3650    2.2840   -0.3800 hc        1 EPM      0.032700
     41 H92        -0.4900    0.9340   -1.5730 hc        1 EPM      0.032700
     42 H101        0.5850   -0.6290    0.0840 hc        1 EPM      0.045200
     43 H102        0.7120    0.7210    1.2750 hc        1 EPM      0.045200
     44 H111        2.1240    2.0270   -0.3520 hc        1 EPM      0.035200
     45 H112        1.9970    0.6770   -1.5440 hc        1 EPM      0.035200
     46 H121        3.0700   -0.8870    0.1120 hc        1 EPM      0.041200
     47 H122        3.1980    0.4630    1.3040 hc        1 EPM      0.041200
     48 H131        4.6110    1.7670   -0.3230 hc        1 EPM      0.037200
     49 H132        4.4830    0.4180   -1.5150 hc        1 EPM      0.037200
     50 H141        5.5560   -1.1470    0.1410 hc        1 EPM      0.040200
     51 H142        5.6830    0.2020    1.3330 hc        1 EPM      0.040200
     52 H151        7.0970    1.5070   -0.2930 hc        1 EPM      0.038200
     53 H152        6.9690    0.1570   -1.4860 hc        1 EPM      0.038200
     54 H161        8.0420   -1.4080    0.1710 hc        1 EPM      0.039700
     55 H162        8.1690   -0.0590    1.3630 hc        1 EPM      0.039700
     56 H171        9.5820    1.2460   -0.2630 hc        1 EPM      0.038200
     57 H172        9.4550   -0.1040   -1.4550 hc        1 EPM      0.038200
     58 H181       10.5270   -1.6690    0.2010 hc        1 EPM      0.039200
     59 H182       10.6540   -0.3200    1.3940 hc        1 EPM      0.039200
     60 H191       12.0690    0.9840   -0.2320 hc        1 EPM      0.038700
     61 H192       11.9410   -0.3650   -1.4250 hc        1 EPM      0.038700
     62 H201       13.0110   -1.9300    0.2320 hc        1 EPM      0.038200
     63 H202       13.1380   -0.5810    1.4240 hc        1 EPM      0.038200
     64 H211       15.2900   -0.9130    0.2050 hc        1 EPM      0.031033
     65 H212       14.4560   -0.6440   -1.3810 hc        1 EPM      0.031033
     66 H213       14.5830    0.7090   -0.1850 hc        1 EPM      0.031033
@<TRIPOS>BOND
     1    1    2 1   
     2    1    3 1   
     3    1    4 1   
     4    4    5 1   
     5    4    9 1   
     6    4   27 1   
     7    5    6 1   
     8    5   28 1   
     9    5   29 1   
    10    6    7 1   
    11    6   30 1   
    12    6   31 1   
    13    7    8 1   
    14    8   32 1   
    15    8   33 1   
    16    8   34 1   
    17    9   10 1   
    18    9   35 1   
    19   10   11 2   
    20   10   12 1   
    21   12   13 1   
    22   12   36 1   
    23   12   37 1   
    24   13   14 1   
    25   13   38 1   
    26   13   39 1   
    27   14   15 1   
    28   14   40 1   
    29   14   41 1   
    30   15   16 1   
    31   15   42 1   
    32   15   43 1   
    33   16   17 1   
    34   16   44 1   
    35   16   45 1   
    36   17   18 1   
    37   17   46 1   
    38   17   47 1   
    39   18   19 1   
    40   18   48 1   
    41   18   49 1   
    42   19   20 1   
    43   19   50 1   
    44   19   51 1   
    45   20   21 1   
    46   20   52 1   
    47   20   53 1   
    48   21   22 1   
    49   21   54 1   
    50   21   55 1   
    51   22   23 1   
    52   22   56 1   
    53   22   57 1   
    54   23   24 1   
    55   23   58 1   
    56   23   59 1   
    57   24   25 1   
    58   24   60 1   
    59   24   61 1   
    60   25   26 1   
    61   25   62 1   
    62   25   63 1   
    63   26   64 1   
    64   26   65 1   
    65   26   66 1   
@<TRIPOS>SUBSTRUCTURE
     1 EPM         1 TEMP              0 ****  ****    0 ROOT
