@<TRIPOS>MOLECULE
EPN
   25    23     1     0     0
SMALL
bcc


@<TRIPOS>ATOM
      1 C1          3.5950   -0.2200   -1.8190 c3        1 EPN     -0.016000
      2 O17         4.9990   -0.6720   -1.7900 oh        1 EPN     -0.323000
      3 C2          2.9110   -0.6190   -0.5290 c3        1 EPN     -0.171000
      4 C3          1.4560   -0.1850   -0.5700 c3        1 EPN     -0.023000
      5 O18         0.8030   -0.5810    0.6380 os        1 EPN     -0.200000
      6 C4         -2.9330   -0.7850    0.4980 c1        1 EPN     -0.026000
      7 C5         -3.2960    0.4580    1.1320 c1        1 EPN     -0.175000
      8 N11        -4.6920    0.8300    1.2510 no        1 EPN      0.574000
      9 O14        -5.0300    1.9670    1.9190 o         1 EPN     -0.363500
     10 O16        -5.5780    0.0300    0.9010 o         1 EPN     -0.363500
     11 C6         -2.2900    1.3600    1.5460 c1        1 EPN     -0.035000
     12 C7         -0.9240    1.0410    1.3390 c1        1 EPN     -0.171000
     13 C8         -0.5630   -0.1920    0.7090 c2        1 EPN      0.130000
     14 C9         -1.5770   -1.0990    0.2930 c2        1 EPN     -0.223000
     15 H11         3.1570   -0.6200   -2.5430 h1        1 EPN      0.062000
     16 H12         3.5620    0.7930   -1.9190 h1        1 EPN      0.062000
     17 H17         5.4430   -0.3730   -2.5690 ho        1 EPN      0.204000
     18 H21         2.9590   -1.6410   -0.4180 hc        1 EPN      0.115000
     19 H22         3.3830   -0.1620    0.2690 hc        1 EPN      0.115000
     20 H31         1.4100    0.7500   -0.6580 h1        1 EPN      0.084000
     21 H32         0.9890   -0.6290   -1.3750 h1        1 EPN      0.084000
     22 H4         -3.6320   -1.4120    0.2080 ha        1 EPN      0.171000
     23 H6         -2.5430    2.2250    1.9870 ha        1 EPN      0.173000
     24 H7         -0.2650    1.6320    1.6110 ha        1 EPN      0.165000
     25 H9         -1.3440   -1.8940   -0.1120 ha        1 EPN      0.151000
@<TRIPOS>BOND
     1    1    2 1   
     2    1    3 1   
     3    1   15 1   
     4    1   16 1   
     5    2   17 1   
     6    3    4 1   
     7    3   18 1   
     8    3   19 1   
     9    4    5 1   
    10    4   20 1   
    11    4   21 1   
    12    5   13 1   
    13    6   14 1   
    14    6   22 1   
    15    7    8 1   
    16    7   11 1   
    17    8    9 1   
    18    8   10 1   
    19   11   23 1   
    20   12   13 1   
    21   12   24 1   
    22   13   14 1   
    23   14   25 1   
@<TRIPOS>SUBSTRUCTURE
     1 EPN         1 TEMP              0 ****  ****    0 ROOT
