@<TRIPOS>MOLECULE
EPN
   25    25     1     0     0
SMALL
bcc


@<TRIPOS>ATOM
      1 C1          0.2840   -0.0040    0.1080 c3        1 EPN      0.134400
      2 O17         1.6630   -0.0020    0.4400 oh        1 EPN     -0.595800
      3 C2         -0.4790   -0.0000    1.4220 c3        1 EPN     -0.092400
      4 C3         -1.9710   -0.0000    1.1440 c3        1 EPN      0.127400
      5 O18        -2.6000    0.0010    2.4350 os        1 EPN     -0.316900
      6 C4         -5.9330    0.0040    3.8590 ca        1 EPN     -0.030500
      7 C5         -6.7400    0.0030    2.7040 ca        1 EPN     -0.220200
      8 N11        -8.2150    0.0030    2.8440 no        1 EPN      0.319200
      9 O14        -8.8950    0.0020    1.8510 o         1 EPN     -0.213500
     10 O16        -8.6980    0.0040    3.9450 o         1 EPN     -0.213500
     11 C6         -6.1630    0.0010    1.4250 ca        1 EPN     -0.030500
     12 C7         -4.7780    0.0010    1.2940 ca        1 EPN     -0.197000
     13 C8         -3.9730    0.0020    2.4420 ca        1 EPN      0.175100
     14 C9         -4.5530    0.0030    3.7290 ca        1 EPN     -0.197000
     15 H11         0.0350   -0.9200   -0.4930 h1        1 EPN      0.022700
     16 H12         0.0330    0.9080   -0.4990 h1        1 EPN      0.022700
     17 H17         2.1460   -0.0040   -0.3950 ho        1 EPN      0.405000
     18 H21        -0.1990    0.9030    2.0230 hc        1 EPN      0.075700
     19 H22        -0.1990   -0.9000    2.0270 hc        1 EPN      0.075700
     20 H31        -2.2800    0.9170    0.5780 h1        1 EPN      0.044700
     21 H32        -2.2810   -0.9190    0.5800 h1        1 EPN      0.044700
     22 H4         -6.3980    0.0050    4.8600 ha        1 EPN      0.172000
     23 H6         -6.8050    0.0010    0.5260 ha        1 EPN      0.172000
     24 H7         -4.3350   -0.0010    0.2880 ha        1 EPN      0.158000
     25 H9         -3.9010    0.0040    4.6150 ha        1 EPN      0.158000
@<TRIPOS>BOND
     1    1    2 1   
     2    1    3 1   
     3    1   15 1   
     4    1   16 1   
     5    2   17 1   
     6    3    4 1   
     7    3   18 1   
     8    3   19 1   
     9    4    5 1   
    10    4   20 1   
    11    4   21 1   
    12    5   13 1   
    13    6    7 ar  
    14    6   14 ar  
    15    6   22 1   
    16    7    8 1   
    17    7   11 ar  
    18    8    9 1   
    19    8   10 1   
    20   11   12 ar  
    21   11   23 1   
    22   12   13 ar  
    23   12   24 1   
    24   13   14 ar  
    25   14   25 1   
@<TRIPOS>SUBSTRUCTURE
     1 EPN         1 TEMP              0 ****  ****    0 ROOT
