@<TRIPOS>MOLECULE
EPN
   25    25     1     0     0
SMALL
bcc


@<TRIPOS>ATOM
      1 C1          0.2810   -0.0080    0.1020 c3        1 EPN      0.134400
      2 O17         1.6610   -0.0090    0.4310 oh        1 EPN     -0.595800
      3 C2         -0.4800   -0.0040    1.4170 c3        1 EPN     -0.092400
      4 C3         -1.9720   -0.0030    1.1410 c3        1 EPN      0.127400
      5 O18        -2.5990    0.0030    2.4330 os        1 EPN     -0.316900
      6 C4         -5.9290    0.0110    3.8630 ca        1 EPN     -0.030500
      7 C5         -6.7390    0.0070    2.7100 ca        1 EPN     -0.220200
      8 N11        -8.2140    0.0080    2.8520 no        1 EPN      0.319200
      9 O14        -8.8950    0.0040    1.8600 o         1 EPN     -0.213500
     10 O16        -8.6940    0.0130    3.9540 o         1 EPN     -0.213500
     11 C6         -6.1640    0.0010    1.4300 ca        1 EPN     -0.030500
     12 C7         -4.7790   -0.0010    1.2960 ca        1 EPN     -0.197000
     13 C8         -3.9720    0.0040    2.4430 ca        1 EPN      0.175100
     14 C9         -4.5500    0.0090    3.7310 ca        1 EPN     -0.197000
     15 H11         0.0290   -0.9230   -0.4990 h1        1 EPN      0.022700
     16 H12         0.0320    0.9040   -0.5040 h1        1 EPN      0.022700
     17 H17         2.1430   -0.0120   -0.4040 ho        1 EPN      0.405000
     18 H21        -0.1990   -0.9040    2.0220 hc        1 EPN      0.075700
     19 H22        -0.1980    0.9000    2.0170 hc        1 EPN      0.075700
     20 H31        -2.2820    0.9130    0.5730 h1        1 EPN      0.044700
     21 H32        -2.2830   -0.9230    0.5810 h1        1 EPN      0.044700
     22 H4         -6.3930    0.0150    4.8650 ha        1 EPN      0.172000
     23 H6         -6.8070   -0.0020    0.5320 ha        1 EPN      0.172000
     24 H7         -4.3380   -0.0050    0.2890 ha        1 EPN      0.158000
     25 H9         -3.8960    0.0120    4.6150 ha        1 EPN      0.158000
@<TRIPOS>BOND
     1    1    2 1   
     2    1    3 1   
     3    1   15 1   
     4    1   16 1   
     5    2   17 1   
     6    3    4 1   
     7    3   18 1   
     8    3   19 1   
     9    4    5 1   
    10    4   20 1   
    11    4   21 1   
    12    5   13 1   
    13    6    7 ar  
    14    6   14 ar  
    15    6   22 1   
    16    7    8 1   
    17    7   11 ar  
    18    8    9 1   
    19    8   10 1   
    20   11   12 ar  
    21   11   23 1   
    22   12   13 ar  
    23   12   24 1   
    24   13   14 ar  
    25   14   25 1   
@<TRIPOS>SUBSTRUCTURE
     1 EPN         1 TEMP              0 ****  ****    0 ROOT
