@<TRIPOS>MOLECULE
EPN
   25    25     1     0     0
SMALL
bcc


@<TRIPOS>ATOM
      1 C1          0.7280    0.0000    4.8920 c3        1 EPN      0.134400
      2 O17         0.0630   -0.0000    6.1440 oh        1 EPN     -0.595800
      3 C2         -0.3530    0.0000    3.8250 c3        1 EPN     -0.092400
      4 C3          0.2880    0.0000    2.4500 c3        1 EPN      0.127400
      5 O18        -0.8050    0.0000    1.5180 os        1 EPN     -0.316900
      6 C4         -1.3520    0.0000   -2.0640 ca        1 EPN     -0.030500
      7 C5         -0.0330    0.0000   -2.5580 ca        1 EPN     -0.220200
      8 N11         0.2010    0.0000   -4.0210 no        1 EPN      0.319200
      9 O14         1.3310    0.0010   -4.4320 o         1 EPN     -0.213500
     10 O16        -0.7460    0.0000   -4.7640 o         1 EPN     -0.213500
     11 C6          1.0620    0.0000   -1.6800 ca        1 EPN     -0.030500
     12 C7          0.8440    0.0000   -0.3060 ca        1 EPN     -0.197000
     13 C8         -0.4690    0.0000    0.1870 ca        1 EPN      0.175100
     14 C9         -1.5700    0.0000   -0.6960 ca        1 EPN     -0.197000
     15 H11         1.3760    0.9140    4.8010 h1        1 EPN      0.022700
     16 H12         1.3760   -0.9140    4.8010 h1        1 EPN      0.022700
     17 H17         0.7500   -0.0000    6.8210 ho        1 EPN      0.405000
     18 H21        -1.0070   -0.9020    3.9460 hc        1 EPN      0.075700
     19 H22        -1.0070    0.9020    3.9460 hc        1 EPN      0.075700
     20 H31         0.9130    0.9180    2.2910 h1        1 EPN      0.044700
     21 H32         0.9130   -0.9180    2.2910 h1        1 EPN      0.044700
     22 H4         -2.2050    0.0000   -2.7650 ha        1 EPN      0.172000
     23 H6          2.0920    0.0010   -2.0770 ha        1 EPN      0.172000
     24 H7          1.7070    0.0000    0.3740 ha        1 EPN      0.158000
     25 H9         -2.5910   -0.0000   -0.2860 ha        1 EPN      0.158000
@<TRIPOS>BOND
     1    1    2 1   
     2    1    3 1   
     3    1   15 1   
     4    1   16 1   
     5    2   17 1   
     6    3    4 1   
     7    3   18 1   
     8    3   19 1   
     9    4    5 1   
    10    4   20 1   
    11    4   21 1   
    12    5   13 1   
    13    6    7 ar  
    14    6   14 ar  
    15    6   22 1   
    16    7    8 1   
    17    7   11 ar  
    18    8    9 1   
    19    8   10 1   
    20   11   12 ar  
    21   11   23 1   
    22   12   13 ar  
    23   12   24 1   
    24   13   14 ar  
    25   14   25 1   
@<TRIPOS>SUBSTRUCTURE
     1 EPN         1 TEMP              0 ****  ****    0 ROOT
