@<TRIPOS>MOLECULE
EPO
   11    10     1     0     0
SMALL
bcc


@<TRIPOS>ATOM
      1 O1         -0.9020    1.7720   -1.5260 o         1 EPO     -0.603500
      2 C1         -1.3780    0.7940   -0.8860 c1        1 EPO      0.337000
      3 C2         -0.6180   -0.3960   -0.7380 cu        1 EPO     -0.088000
      4 O2         -0.9180   -0.7300    0.6480 os        1 EPO     -0.301000
      5 C3          0.3000    0.0070    0.3690 cx        1 EPO     -0.088000
      6 C4          1.7350   -0.6280    0.9620 c2        1 EPO      0.337000
      7 O3          1.7300   -1.3180    2.0190 o         1 EPO     -0.603500
      8 O4         -2.5510    0.8540   -0.4220 o         1 EPO     -0.603500
      9 H2         -0.6350   -0.7530   -1.6520 h4        1 EPO      0.109000
     10 HO2         0.4200    0.8320    0.8860 h1        1 EPO      0.109000
     11 O5          2.8150   -0.4330    0.3410 o         1 EPO     -0.603500
@<TRIPOS>BOND
     1    1    2 1   
     2    2    8 1   
     3    3    4 1   
     4    3    5 1   
     5    3    9 1   
     6    4    5 1   
     7    5    6 1   
     8    5   10 1   
     9    6    7 1   
    10    6   11 1   
@<TRIPOS>SUBSTRUCTURE
     1 EPO         1 TEMP              0 ****  ****    0 ROOT
