@<TRIPOS>MOLECULE
EPO
   11     9     1     0     0
SMALL
bcc


@<TRIPOS>ATOM
      1 O1         -0.5020    0.1820    0.3270 o         1 EPO     -0.594750
      2 C1          0.7320   -0.0860    0.1910 c2        1 EPO      0.268500
      3 C2          1.6750    0.2890    1.3120 c1        1 EPO     -0.018000
      4 O2          2.1820    1.5460    1.1540 os        1 EPO     -0.136000
      5 C3          3.1170    2.0640    1.9190 c1        1 EPO     -0.018000
      6 C4          3.9030    1.3500    2.9810 c2        1 EPO      0.268500
      7 O3          3.5890    1.5280    4.1980 o         1 EPO     -0.594750
      8 O4          1.1850   -0.7410   -0.7990 o         1 EPO     -0.594750
      9 H2          3.7930   -0.5840    0.8510 ha        1 EPO      0.006000
     10 HO2         3.4870   -0.8300    0.2950 ha        1 EPO      0.006000
     11 O5          4.9520    0.7270    2.6240 o         1 EPO     -0.594750
@<TRIPOS>BOND
     1    1    2 1   
     2    2    3 1   
     3    2    8 1   
     4    3    4 1   
     5    4    5 1   
     6    5    6 1   
     7    6    7 1   
     8    6   11 1   
     9    9   10 1   
@<TRIPOS>SUBSTRUCTURE
     1 EPO         1 TEMP              0 ****  ****    0 ROOT
