@<TRIPOS>MOLECULE
EPO
   11    11     1     0     0
SMALL
bcc


@<TRIPOS>ATOM
      1 O1         -2.8500   -0.4760    0.8990 o         1 EPO     -0.868800
      2 C1         -2.0060   -0.1480    0.0070 c         1 EPO      0.917600
      3 C2         -0.5850    0.1380    0.4670 cx        1 EPO     -0.026900
      4 O2          0.0020    1.3880    0.0570 os        1 EPO     -0.444600
      5 C3          0.5860    0.1750   -0.4570 cx        1 EPO     -0.026900
      6 C4          2.0050   -0.1520   -0.0220 c         1 EPO      0.917600
      7 O3          2.8490   -0.4060   -0.9380 o         1 EPO     -0.868800
      8 O4         -2.3170   -0.0750   -1.2180 o         1 EPO     -0.868800
      9 H2         -0.4060   -0.0950    1.5370 h1        1 EPO      0.069700
     10 HO2         0.4060    0.0330   -1.5420 h1        1 EPO      0.069700
     11 O5          2.3170   -0.1830    1.2050 o         1 EPO     -0.868800
@<TRIPOS>BOND
     1    1    2 1   
     2    2    3 1   
     3    2    8 1   
     4    3    4 1   
     5    3    5 1   
     6    3    9 1   
     7    4    5 1   
     8    5    6 1   
     9    5   10 1   
    10    6    7 1   
    11    6   11 1   
@<TRIPOS>SUBSTRUCTURE
     1 EPO         1 TEMP              0 ****  ****    0 ROOT
