@<TRIPOS>MOLECULE
EPQ
   30    28     1     0     0
SMALL
bcc


@<TRIPOS>ATOM
      1 NQ         -0.5300   -2.9710   -2.1010 n4        1 EPQ     -0.922200
      2 CQA         2.1500    0.6110    0.7590 ce        1 EPQ     -0.231200
      3 CQB         1.4780    0.9370    1.8730 c2        1 EPQ     -0.080200
      4 CC          1.6380   -0.3690   -0.2060 c         1 EPQ      0.563300
      5 CMK         2.5280   -0.6190   -1.4130 c3        1 EPQ      0.056900
      6 OE1         0.4380    1.0420    4.5000 o         1 EPQ     -0.392100
      7 CD          1.3460    1.7940    4.1850 c         1 EPQ      0.542100
      8 CG          1.9740    1.9630    2.8290 c3        1 EPQ     -0.125200
      9 NE2         1.8710    2.6650    5.3170 n4        1 EPQ     -0.592200
     10 CH1         3.2140    2.2040    5.7580 c3        1 EPQ      0.080600
     11 CH2         1.8830    4.1020    4.9470 c3        1 EPQ      0.080600
     12 OQ          0.5600   -0.9720   -0.0870 o         1 EPQ     -0.578100
     13 HNQ1       -0.0780   -2.3040   -1.4530 hn        1 EPQ      0.475800
     14 HNQ2       -1.4370   -2.6030   -2.3970 hn        1 EPQ      0.475800
     15 HQA         0.0750   -3.0930   -2.9180 hn        1 EPQ      0.475800
     16 HQB1        3.1230    1.0660    0.5030 ha        1 EPQ      0.161000
     17 HQB2        0.5050    0.4650    2.1120 ha        1 EPQ      0.182000
     18 F1          1.9550   -1.5500   -2.2610 f         1 EPQ     -0.257300
     19 HMK1        2.6780    0.3460   -1.9760 h1        1 EPQ      0.108200
     20 HMK2        3.5290   -1.0050   -1.0680 h1        1 EPQ      0.108200
     21 HG1         1.6990    2.9880    2.4370 hc        1 EPQ      0.120200
     22 HG2         3.0960    1.9210    2.9170 hc        1 EPQ      0.120200
     23 HH11        3.1630    1.1130    6.0240 hx        1 EPQ      0.112867
     24 HH12        3.9640    2.3660    4.9390 hx        1 EPQ      0.112867
     25 HH13        3.5260    2.7930    6.6650 hx        1 EPQ      0.112867
     26 HH21        0.8580    4.4070    4.5990 hx        1 EPQ      0.112867
     27 HH22        2.6350    4.2830    4.1350 hx        1 EPQ      0.112867
     28 HH23        2.1640    4.7130    5.8500 hx        1 EPQ      0.112867
     29 HQ3        -0.6620   -3.8710   -1.6330 hn        1 EPQ      0.475800
     30 HE21        1.2200    2.5430    6.1150 hn        1 EPQ      0.475800
@<TRIPOS>BOND
     1    1   13 1   
     2    1   14 1   
     3    1   15 1   
     4    1   29 1   
     5    2    3 2   
     6    2    4 1   
     7    2   16 1   
     8    3    8 1   
     9    3   17 1   
    10    4    5 1   
    11    4   12 2   
    12    5   18 1   
    13    5   19 1   
    14    5   20 1   
    15    6    7 2   
    16    7    8 1   
    17    7    9 1   
    18    8   21 1   
    19    8   22 1   
    20    9   10 1   
    21    9   11 1   
    22    9   30 1   
    23   10   23 1   
    24   10   24 1   
    25   10   25 1   
    26   11   26 1   
    27   11   27 1   
    28   11   28 1   
@<TRIPOS>SUBSTRUCTURE
     1 EPQ         1 TEMP              0 ****  ****    0 ROOT
