@<TRIPOS>MOLECULE
EPQ
   28    27     1     0     0
SMALL
bcc


@<TRIPOS>ATOM
      1 NQ          1.3600    2.2520    0.1050 n3        1 EPQ     -0.900800
      2 CQA         1.3520    0.8170    0.3090 c3        1 EPQ      0.070500
      3 CQB         0.1830    0.0430   -0.3240 c3        1 EPQ     -0.115400
      4 CC          2.6390    0.1710   -0.2050 c         1 EPQ      0.537100
      5 CMK         3.2160   -0.8700    0.7340 c3        1 EPQ      0.067900
      6 OE1        -1.9540   -1.6770   -0.4490 o         1 EPQ     -0.606100
      7 CD         -2.2330   -0.5300   -0.0460 c         1 EPQ      0.659100
      8 CG         -1.1510    0.5010    0.2230 c3        1 EPQ     -0.146400
      9 NE2        -3.5520   -0.1740    0.2020 n         1 EPQ     -0.481800
     10 CH1        -4.6250   -1.0830   -0.0890 c3        1 EPQ      0.079800
     11 CH2        -3.9010    1.1540    0.6090 c3        1 EPQ      0.079800
     12 OQ          3.1470    0.4680   -1.2850 o         1 EPQ     -0.492100
     13 HNQ1        1.7300    2.4830   -0.7980 hn        1 EPQ      0.359800
     14 HNQ2        0.4330    2.6190    0.1880 hn        1 EPQ      0.359800
     15 HQA         1.3010    0.6640    1.4310 h1        1 EPQ      0.068700
     16 HQB1        0.2010    0.1640   -1.4380 hc        1 EPQ      0.074700
     17 HQB2        0.3190   -1.0520   -0.1100 hc        1 EPQ      0.074700
     18 F1          4.3030   -1.5320    0.2060 f         1 EPQ     -0.220300
     19 HMK1        3.5300   -0.3500    1.6830 h1        1 EPQ      0.069700
     20 HMK2        2.4110   -1.6210    0.9740 h1        1 EPQ      0.069700
     21 HG1        -1.0830    0.6550    1.3340 hc        1 EPQ      0.064200
     22 HG2        -1.4410    1.4800   -0.2430 hc        1 EPQ      0.064200
     23 HH11       -4.2160   -2.0750   -0.4180 h1        1 EPQ      0.043367
     24 HH12       -5.2530   -1.2330    0.8310 h1        1 EPQ      0.043367
     25 HH13       -5.2760   -0.6670   -0.9050 h1        1 EPQ      0.043367
     26 HH21       -3.7720    1.8830   -0.2380 h1        1 EPQ      0.043367
     27 HH22       -4.9730    1.1810    0.9400 h1        1 EPQ      0.043367
     28 HH23       -3.2550    1.4850    1.4660 h1        1 EPQ      0.043367
@<TRIPOS>BOND
     1    1    2 1   
     2    1   13 1   
     3    1   14 1   
     4    2    3 1   
     5    2    4 1   
     6    2   15 1   
     7    3    8 1   
     8    3   16 1   
     9    3   17 1   
    10    4    5 1   
    11    4   12 2   
    12    5   18 1   
    13    5   19 1   
    14    5   20 1   
    15    6    7 2   
    16    7    8 1   
    17    7    9 1   
    18    8   21 1   
    19    8   22 1   
    20    9   10 1   
    21    9   11 1   
    22   10   23 1   
    23   10   24 1   
    24   10   25 1   
    25   11   26 1   
    26   11   27 1   
    27   11   28 1   
@<TRIPOS>SUBSTRUCTURE
     1 EPQ         1 TEMP              0 ****  ****    0 ROOT
