@<TRIPOS>MOLECULE
EPQ
   30    28     1     0     0
SMALL
bcc


@<TRIPOS>ATOM
      1 NQ         -0.5620   -2.9440   -1.8970 n+        1 EPQ     -0.921200
      2 CQA         2.1200    0.6520    0.6320 ce        1 EPQ     -0.232200
      3 CQB         1.4730    0.9080    1.7770 c2        1 EPQ     -0.079200
      4 CC          1.6420   -0.3370   -0.3400 c         1 EPQ      0.568300
      5 CMK         2.5050   -0.4990   -1.5820 c3        1 EPQ      0.054900
      6 OE1         0.5360    0.8870    4.4450 o         1 EPQ     -0.394100
      7 CD          1.3800    1.7050    4.1140 c         1 EPQ      0.543100
      8 CG          1.9380    1.9440    2.7380 c3        1 EPQ     -0.126200
      9 NE2         1.8960    2.5810    5.2450 nx        1 EPQ     -0.592200
     10 CH1         3.2820    2.1970    5.6210 c3        1 EPQ      0.080100
     11 CH2         1.8020    4.0240    4.9110 c3        1 EPQ      0.080100
     12 OQ          0.6120   -1.0170   -0.2070 o         1 EPQ     -0.593100
     13 HNQ1        0.2910   -2.3580   -1.9390 hn        1 EPQ      0.474550
     14 HNQ2       -1.1690   -2.7280   -2.6900 hn        1 EPQ      0.474550
     15 HQA        -1.0470   -2.7340   -1.0200 hn        1 EPQ      0.474550
     16 HQB1        3.0510    1.1780    0.3530 ha        1 EPQ      0.162000
     17 HQB2        0.5430    0.3670    2.0430 ha        1 EPQ      0.180000
     18 F1          1.9660   -1.4480   -2.4330 f         1 EPQ     -0.245300
     19 HMK1        2.5700    0.4860   -2.1270 h1        1 EPQ      0.110200
     20 HMK2        3.5420   -0.8240   -1.2800 h1        1 EPQ      0.110200
     21 HG1         1.5790    2.9560    2.3820 hc        1 EPQ      0.120700
     22 HG2         3.0630    1.9760    2.7790 hc        1 EPQ      0.120700
     23 HH11        3.9860    2.4240    4.7770 hx        1 EPQ      0.113200
     24 HH12        3.5940    2.7840    6.5280 hx        1 EPQ      0.113200
     25 HH13        3.3100    1.0990    5.8620 hx        1 EPQ      0.113200
     26 HH21        2.5070    4.2700    4.0730 hx        1 EPQ      0.113200
     27 HH22        0.7470    4.2710    4.6120 hx        1 EPQ      0.113200
     28 HH23        2.0820    4.6310    5.8160 hx        1 EPQ      0.113200
     29 HQ3        -0.3040   -3.9330   -1.9230 hn        1 EPQ      0.474550
     30 HE21        1.2870    2.4010    6.0650 hn        1 EPQ      0.475800
@<TRIPOS>BOND
     1    1   13 1   
     2    1   14 1   
     3    1   15 1   
     4    1   29 1   
     5    2    3 2   
     6    2    4 1   
     7    2   16 1   
     8    3    8 1   
     9    3   17 1   
    10    4    5 1   
    11    4   12 2   
    12    5   18 1   
    13    5   19 1   
    14    5   20 1   
    15    6    7 2   
    16    7    8 1   
    17    7    9 1   
    18    8   21 1   
    19    8   22 1   
    20    9   10 1   
    21    9   11 1   
    22    9   30 1   
    23   10   23 1   
    24   10   24 1   
    25   10   25 1   
    26   11   26 1   
    27   11   27 1   
    28   11   28 1   
@<TRIPOS>SUBSTRUCTURE
     1 EPQ         1 TEMP              0 ****  ****    0 ROOT
