@<TRIPOS>MOLECULE
EPQ
   28    26     1     0     0
SMALL
bcc


@<TRIPOS>ATOM
      1 NQ         -2.2640   -0.3450   -1.7430 n3        1 EPQ     -0.323000
      2 CQA        -0.9680   -0.8930   -1.5870 c3        1 EPQ     -0.076000
      3 CQB        -0.5800   -0.8720   -0.1110 c3        1 EPQ     -0.148000
      4 CC         -0.9650   -2.2870   -2.0720 c2        1 EPQ      0.152000
      5 CMK        -0.3950   -2.6170   -3.4670 c3        1 EPQ     -0.034000
      6 OE1         0.0860   -0.4030    2.4530 o         1 EPQ     -0.378000
      7 CD          0.4400    0.5090    1.7260 c1        1 EPQ      0.300000
      8 CG          0.1160    0.4630    0.2220 c2        1 EPQ     -0.168000
      9 NE2         1.1090    1.6580    2.2850 n3        1 EPQ     -0.339000
     10 CH1         0.4330    2.4820    3.2490 c3        1 EPQ     -0.075500
     11 CH2         2.4610    1.9030    1.9760 c3        1 EPQ     -0.075500
     12 OQ         -1.5000   -3.1480   -1.4230 o         1 EPQ     -0.264000
     13 HNQ1       -2.2500    0.2900   -2.4110 hn        1 EPQ      0.155000
     14 HNQ2       -2.8550   -1.0150   -1.9700 hn        1 EPQ      0.155000
     15 HQA        -0.3350   -0.3730   -2.0940 h1        1 EPQ      0.117000
     16 HQB1        0.0330   -1.6160    0.0770 hc        1 EPQ      0.104500
     17 HQB2       -1.3780   -0.9650    0.4330 hc        1 EPQ      0.104500
     18 F1         -0.3930   -3.9580   -3.6500 f         1 EPQ     -0.150000
     19 HMK1        0.5290   -2.2730   -3.5350 h1        1 EPQ      0.109500
     20 HMK2       -0.9560   -2.1910   -4.1610 h1        1 EPQ      0.109500
     21 HG1        -0.4800    1.2090   -0.0080 ha        1 EPQ      0.114000
     22 HG2         0.9560    0.5380   -0.3000 ha        1 EPQ      0.114000
     23 HH11        0.7850    3.4090    3.1970 h1        1 EPQ      0.082333
     24 HH12       -0.5350    2.4870    3.0560 h1        1 EPQ      0.082333
     25 HH13        0.5870    2.1210    4.1600 h1        1 EPQ      0.082333
     26 HH21        2.8850    1.0710    1.6900 h1        1 EPQ      0.082333
     27 HH22        2.9160    2.2430    2.7620 h1        1 EPQ      0.082333
     28 HH23        2.5190    2.5710    1.2460 h1        1 EPQ      0.082333
@<TRIPOS>BOND
     1    1    2 1   
     2    1   13 1   
     3    1   14 1   
     4    2    3 1   
     5    2    4 1   
     6    2   15 1   
     7    3    8 1   
     8    3   16 1   
     9    3   17 1   
    10    4    5 1   
    11    4   12 1   
    12    5   18 1   
    13    5   19 1   
    14    5   20 1   
    15    6    7 1   
    16    7    9 1   
    17    8   21 1   
    18    8   22 1   
    19    9   10 1   
    20    9   11 1   
    21   10   23 1   
    22   10   24 1   
    23   10   25 1   
    24   11   26 1   
    25   11   27 1   
    26   11   28 1   
@<TRIPOS>SUBSTRUCTURE
     1 EPQ         1 TEMP              0 ****  ****    0 ROOT
