@<TRIPOS>MOLECULE
EPQ
   30    28     1     0     0
SMALL
bcc


@<TRIPOS>ATOM
      1 NQ         -0.5590   -2.7460   -2.1040 n4        1 EPQ     -0.921200
      2 CQA         2.2500    0.5360    0.7000 ce        1 EPQ     -0.232200
      3 CQB         1.5040    0.9120    1.7490 c2        1 EPQ     -0.079200
      4 CC          1.7670   -0.4120   -0.3110 c         1 EPQ      0.568300
      5 CMK         2.7510   -0.7310   -1.4260 c3        1 EPQ      0.054900
      6 OE1         0.2610    1.0830    4.2820 o         1 EPQ     -0.394100
      7 CD          1.2360    1.7790    4.0460 c         1 EPQ      0.543100
      8 CG          1.9810    1.9080    2.7460 c3        1 EPQ     -0.126200
      9 NE2         1.7210    2.6160    5.2200 n4        1 EPQ     -0.592200
     10 CH1         2.9940    2.0750    5.7650 c3        1 EPQ      0.080100
     11 CH2         1.8480    4.0500    4.8590 c3        1 EPQ      0.080100
     12 OQ          0.6440   -0.9410   -0.3030 o         1 EPQ     -0.593100
     13 HNQ1        0.3670   -2.2850   -2.0410 hn        1 EPQ      0.474550
     14 HNQ2       -1.1210   -2.4390   -1.3040 hn        1 EPQ      0.474550
     15 HQA        -0.4430   -3.7610   -2.0770 hn        1 EPQ      0.474550
     16 HQB1        3.2700    0.9240    0.5350 ha        1 EPQ      0.162000
     17 HQB2        0.4840    0.5070    1.9010 ha        1 EPQ      0.180000
     18 F1          2.2000   -1.6260   -2.3250 f         1 EPQ     -0.245300
     19 HMK1        3.6860   -1.1820   -0.9860 h1        1 EPQ      0.110200
     20 HMK2        3.0210    0.2180   -1.9720 h1        1 EPQ      0.110200
     21 HG1         3.0880    1.7990    2.9240 hc        1 EPQ      0.120700
     22 HG2         1.8000    2.9460    2.3360 hc        1 EPQ      0.120700
     23 HH11        2.8570    0.9890    6.0200 hx        1 EPQ      0.113200
     24 HH12        3.2670    2.6440    6.6970 hx        1 EPQ      0.113200
     25 HH13        3.8150    2.1920    5.0100 hx        1 EPQ      0.113200
     26 HH21        2.0930    4.6430    5.7840 hx        1 EPQ      0.113200
     27 HH22        0.8750    4.4160    4.4330 hx        1 EPQ      0.113200
     28 HH23        2.6720    4.1840    4.1090 hx        1 EPQ      0.113200
     29 HQ3        -1.0200   -2.4760   -2.9760 hn        1 EPQ      0.474550
     30 HE21        1.0020    2.5340    5.9630 hn        1 EPQ      0.475800
@<TRIPOS>BOND
     1    1   13 1   
     2    1   14 1   
     3    1   15 1   
     4    1   29 1   
     5    2    3 2   
     6    2    4 1   
     7    2   16 1   
     8    3    8 1   
     9    3   17 1   
    10    4    5 1   
    11    4   12 2   
    12    5   18 1   
    13    5   19 1   
    14    5   20 1   
    15    6    7 2   
    16    7    8 1   
    17    7    9 1   
    18    8   21 1   
    19    8   22 1   
    20    9   10 1   
    21    9   11 1   
    22    9   30 1   
    23   10   23 1   
    24   10   24 1   
    25   10   25 1   
    26   11   26 1   
    27   11   27 1   
    28   11   28 1   
@<TRIPOS>SUBSTRUCTURE
     1 EPQ         1 TEMP              0 ****  ****    0 ROOT
