@<TRIPOS>MOLECULE
EPR
   33    30     1     0     0
SMALL
bcc


@<TRIPOS>ATOM
      1 N          -3.2720    0.3200   -0.2960 n         1 EPR     -0.203000
      2 O          -2.3070   -0.9240    1.6430 o         1 EPR     -0.291000
      3 S          -3.7140    0.9980   -3.0300 s         1 EPR     -0.085000
      4 C1          1.3820   -1.4640   -1.0260 c1        1 EPR     -0.051000
      5 O1         -5.8660    1.8600   -1.4520 o         1 EPR     -0.550000
      6 S1         -1.2750   -0.0860   -1.7580 ss        1 EPR      0.280000
      7 O2         -6.3060   -0.1940   -0.7510 o         1 EPR     -0.550000
      8 C9          0.2360   -1.3120   -0.0060 c1        1 EPR     -0.068000
      9 C10        -0.9450   -0.6870   -0.3710 c2        1 EPR     -0.327000
     10 C11        -2.1660   -0.4690    0.5370 c2        1 EPR      0.344000
     11 C12        -2.8040    0.4210   -1.7100 c2        1 EPR     -0.127000
     12 C13        -4.4320    0.9420    0.2450 c3        1 EPR     -0.136000
     13 C14        -5.5560    0.8460   -0.7410 c2        1 EPR      0.337000
     14 C8          2.5680   -0.8450   -0.8100 c1        1 EPR     -0.137000
     15 C91         1.1770   -2.3330   -2.2890 c3        1 EPR     -0.198000
     16 C16         2.7740    0.0290    0.4810 c1        1 EPR     -0.036000
     17 C17         2.4990    1.3690    0.4440 c2        1 EPR     -0.114000
     18 C18         2.8730    2.1810    1.5090 c1        1 EPR     -0.127000
     19 C19         3.5020    1.6520    2.5680 c1        1 EPR     -0.135000
     20 C20         3.7760    0.3100    2.6030 c1        1 EPR     -0.135000
     21 C15         3.4090   -0.4990    1.5520 c1        1 EPR     -0.124000
     22 H9          0.3420   -1.6540    0.8920 ha        1 EPR      0.161000
     23 H13        -4.6930    0.4760    1.1020 h1        1 EPR      0.107000
     24 H13A       -4.2300    1.9280    0.4410 h1        1 EPR      0.107000
     25 H5          3.3110   -0.9430   -1.4730 ha        1 EPR      0.122000
     26 H6          0.9920   -1.7490   -3.0730 hc        1 EPR      0.093667
     27 H7          0.4720   -2.8920   -2.1560 hc        1 EPR      0.093667
     28 H8          1.9870   -2.8650   -2.4580 hc        1 EPR      0.093667
     29 H91         2.0130    1.7780   -0.3750 ha        1 EPR      0.146000
     30 H10         2.6850    3.1090    1.4870 ha        1 EPR      0.132000
     31 H11         3.7690    2.2340    3.3300 ha        1 EPR      0.124500
     32 H12         4.2160   -0.0560    3.3420 ha        1 EPR      0.124500
     33 H131        3.5820   -1.4810    1.5960 ha        1 EPR      0.128000
@<TRIPOS>BOND
     1    1   10 1   
     2    1   11 1   
     3    1   12 1   
     4    2   10 1   
     5    3   11 1   
     6    4   14 1   
     7    4   15 1   
     8    5   13 1   
     9    6    9 1   
    10    6   11 1   
    11    7   13 1   
    12    8    9 1   
    13    8   22 1   
    14    9   10 1   
    15   12   13 1   
    16   12   23 1   
    17   12   24 1   
    18   14   25 1   
    19   15   26 1   
    20   15   27 1   
    21   15   28 1   
    22   16   17 1   
    23   16   21 1   
    24   17   18 1   
    25   17   29 1   
    26   18   30 1   
    27   19   20 1   
    28   19   31 1   
    29   20   32 1   
    30   21   33 1   
@<TRIPOS>SUBSTRUCTURE
     1 EPR         1 TEMP              0 ****  ****    0 ROOT
