@<TRIPOS>MOLECULE
EPR
   33    34     1     0     0
SMALL
bcc


@<TRIPOS>ATOM
      1 N          -0.3240    0.2120    0.0780 n         1 EPR     -0.378400
      2 O           1.5810    0.6020   -1.2140 o         1 EPR     -0.561500
      3 S          -2.1090    0.0060    2.0710 s         1 EPR     -0.376400
      4 C1          4.2240    0.0900    0.3540 ce        1 EPR     -0.078200
      5 O1         -0.3410   -2.4350   -0.9520 o         1 EPR     -0.815800
      6 S1          0.7020    0.0920    2.4460 ss        1 EPR     -0.175200
      7 O2         -1.9910   -1.9230   -2.3870 o         1 EPR     -0.815800
      8 C9          3.1580    0.0710    1.3470 ce        1 EPR     -0.046000
      9 C10         1.8350    0.1800    1.1720 cd        1 EPR     -0.095600
     10 C11         1.0880    0.3230   -0.1170 c         1 EPR      0.712700
     11 C12        -0.7150    0.0740    1.3900 c         1 EPR      0.419000
     12 C13        -1.1820   -0.1410   -1.0360 c3        1 EPR     -0.071000
     13 C14        -1.1590   -1.6430   -1.4850 c         1 EPR      0.917600
     14 C8          4.3120    1.0490   -0.5860 cf        1 EPR     -0.084200
     15 C91         5.2160   -1.0050    0.5130 c3        1 EPR     -0.060900
     16 C16         5.3660    1.1760   -1.5830 ca        1 EPR     -0.041800
     17 C17         5.7660    0.0870   -2.3700 ca        1 EPR     -0.116500
     18 C18         6.7550    0.2460   -3.3390 ca        1 EPR     -0.136000
     19 C19         7.3580    1.4880   -3.5300 ca        1 EPR     -0.138000
     20 C20         6.9610    2.5780   -2.7550 ca        1 EPR     -0.136000
     21 C15         5.9670    2.4270   -1.7920 ca        1 EPR     -0.116500
     22 H9          3.5300   -0.0870    2.3800 ha        1 EPR      0.127000
     23 H13        -2.2390    0.1230   -0.7610 h1        1 EPR      0.068700
     24 H13A       -0.8530    0.4780   -1.9150 h1        1 EPR      0.068700
     25 H5          3.5270    1.8260   -0.6510 ha        1 EPR      0.150000
     26 H6          6.1820   -0.7530    0.0110 hc        1 EPR      0.045033
     27 H7          4.8110   -1.9420    0.0530 hc        1 EPR      0.045033
     28 H8          5.4200   -1.2060    1.5940 hc        1 EPR      0.045033
     29 H91         5.2770   -0.8900   -2.2290 ha        1 EPR      0.139500
     30 H10         7.0550   -0.6130   -3.9570 ha        1 EPR      0.124500
     31 H11         8.1380    1.6110   -4.2940 ha        1 EPR      0.121000
     32 H12         7.4290    3.5610   -2.9090 ha        1 EPR      0.124500
     33 H131        5.6460    3.2900   -1.1900 ha        1 EPR      0.139500
@<TRIPOS>BOND
     1    1   10 1   
     2    1   11 1   
     3    1   12 1   
     4    2   10 2   
     5    3   11 2   
     6    4    8 1   
     7    4   14 2   
     8    4   15 1   
     9    5   13 1   
    10    6    9 1   
    11    6   11 1   
    12    7   13 1   
    13    8    9 2   
    14    8   22 1   
    15    9   10 1   
    16   12   13 1   
    17   12   23 1   
    18   12   24 1   
    19   14   16 1   
    20   14   25 1   
    21   15   26 1   
    22   15   27 1   
    23   15   28 1   
    24   16   17 ar  
    25   16   21 ar  
    26   17   18 ar  
    27   17   29 1   
    28   18   19 ar  
    29   18   30 1   
    30   19   20 ar  
    31   19   31 1   
    32   20   21 ar  
    33   20   32 1   
    34   21   33 1   
@<TRIPOS>SUBSTRUCTURE
     1 EPR         1 TEMP              0 ****  ****    0 ROOT
