@<TRIPOS>MOLECULE
EPR
   33    34     1     0     0
SMALL
bcc


@<TRIPOS>ATOM
      1 N          -2.3020   -0.1960   -0.6820 n         1 EPR     -0.378400
      2 O          -0.0450   -0.7910   -0.7290 o         1 EPR     -0.561500
      3 S          -4.6360    1.1290   -0.6830 s         1 EPR     -0.376400
      4 C1          1.7840    1.3080    0.6670 ce        1 EPR     -0.078200
      5 O1         -2.5370   -1.7220    1.7020 o         1 EPR     -0.815800
      6 S1         -2.1430    2.2840    0.0250 ss        1 EPR     -0.175200
      7 O2         -3.4920   -3.4200    0.5840 o         1 EPR     -0.815800
      8 C9          0.4750    1.9360    0.5410 ce        1 EPR     -0.046000
      9 C10        -0.6680    1.4250    0.0650 cd        1 EPR     -0.095600
     10 C11        -0.9130    0.0400   -0.4430 c         1 EPR      0.712700
     11 C12        -3.1150    0.8950   -0.4740 c         1 EPR      0.419000
     12 C13        -2.8090   -1.5540   -0.7220 c3        1 EPR     -0.071000
     13 C14        -2.9560   -2.2830    0.6580 c         1 EPR      0.917600
     14 C8          2.3680    0.6530   -0.3530 cf        1 EPR     -0.084200
     15 C91         2.4200    1.5040    1.9960 c3        1 EPR     -0.060900
     16 C16         3.6880    0.0410   -0.3330 ca        1 EPR     -0.041800
     17 C17         4.0850   -0.8140    0.7060 ca        1 EPR     -0.116500
     18 C18         5.3430   -1.4110    0.6820 ca        1 EPR     -0.136000
     19 C19         6.2200   -1.1610   -0.3720 ca        1 EPR     -0.138000
     20 C20         5.8300   -0.3170   -1.4130 ca        1 EPR     -0.136000
     21 C15         4.5710    0.2760   -1.3990 ca        1 EPR     -0.116500
     22 H9          0.4520    2.9750    0.9300 ha        1 EPR      0.127000
     23 H13        -3.8180   -1.5360   -1.2140 h1        1 EPR      0.068700
     24 H13A       -2.0930   -2.1550   -1.3460 h1        1 EPR      0.068700
     25 H5          1.8250    0.5360   -1.3100 ha        1 EPR      0.150000
     26 H6          1.9990    0.7630    2.7230 hc        1 EPR      0.045033
     27 H7          3.5270    1.3570    1.9410 hc        1 EPR      0.045033
     28 H8          2.2180    2.5310    2.3880 hc        1 EPR      0.045033
     29 H91         3.3850   -1.0230    1.5300 ha        1 EPR      0.139500
     30 H10         5.6410   -2.0870    1.4970 ha        1 EPR      0.124500
     31 H11         7.2130   -1.6330   -0.3880 ha        1 EPR      0.121000
     32 H12         6.5170   -0.1240   -2.2490 ha        1 EPR      0.124500
     33 H131        4.2600    0.9310   -2.2250 ha        1 EPR      0.139500
@<TRIPOS>BOND
     1    1   10 1   
     2    1   11 1   
     3    1   12 1   
     4    2   10 2   
     5    3   11 2   
     6    4    8 1   
     7    4   14 2   
     8    4   15 1   
     9    5   13 1   
    10    6    9 1   
    11    6   11 1   
    12    7   13 1   
    13    8    9 2   
    14    8   22 1   
    15    9   10 1   
    16   12   13 1   
    17   12   23 1   
    18   12   24 1   
    19   14   16 1   
    20   14   25 1   
    21   15   26 1   
    22   15   27 1   
    23   15   28 1   
    24   16   17 ar  
    25   16   21 ar  
    26   17   18 ar  
    27   17   29 1   
    28   18   19 ar  
    29   18   30 1   
    30   19   20 ar  
    31   19   31 1   
    32   20   21 ar  
    33   20   32 1   
    34   21   33 1   
@<TRIPOS>SUBSTRUCTURE
     1 EPR         1 TEMP              0 ****  ****    0 ROOT
