@<TRIPOS>MOLECULE
EPR
   33    34     1     0     0
SMALL
bcc


@<TRIPOS>ATOM
      1 N          -0.3270    0.2090    0.0680 n         1 EPR     -0.378400
      2 O           1.5830    0.6090   -1.2140 o         1 EPR     -0.561500
      3 S          -2.1170   -0.0160    2.0550 s         1 EPR     -0.376400
      4 C1          4.2210    0.0770    0.3550 ce        1 EPR     -0.078200
      5 O1         -0.3430   -2.4280   -0.9890 o         1 EPR     -0.815800
      6 S1          0.6930    0.0630    2.4380 ss        1 EPR     -0.175200
      7 O2         -1.9890   -1.8990   -2.4230 o         1 EPR     -0.815800
      8 C9          3.1520    0.0490    1.3450 ce        1 EPR     -0.046000
      9 C10         1.8290    0.1630    1.1670 cd        1 EPR     -0.095600
     10 C11         1.0860    0.3190   -0.1210 c         1 EPR      0.712700
     11 C12        -0.7210    0.0570    1.3780 c         1 EPR      0.419000
     12 C13        -1.1810   -0.1330   -1.0520 c3        1 EPR     -0.071000
     13 C14        -1.1590   -1.6290   -1.5160 c         1 EPR      0.917600
     14 C8          4.3130    1.0460   -0.5750 cf        1 EPR     -0.084200
     15 C91         5.2100   -1.0220    0.5040 c3        1 EPR     -0.060900
     16 C16         5.3690    1.1800   -1.5680 ca        1 EPR     -0.041800
     17 C17         5.7680    0.0990   -2.3660 ca        1 EPR     -0.116500
     18 C18         6.7600    0.2660   -3.3310 ca        1 EPR     -0.136000
     19 C19         7.3660    1.5090   -3.5070 ca        1 EPR     -0.138000
     20 C20         6.9700    2.5910   -2.7220 ca        1 EPR     -0.136000
     21 C15         5.9730    2.4320   -1.7620 ca        1 EPR     -0.116500
     22 H9          3.5210   -0.1200    2.3770 ha        1 EPR      0.127000
     23 H13        -0.8500    0.4950   -1.9240 h1        1 EPR      0.068700
     24 H13A       -2.2390    0.1300   -0.7760 h1        1 EPR      0.068700
     25 H5          3.5290    1.8240   -0.6340 ha        1 EPR      0.150000
     26 H6          6.1780   -0.7670    0.0070 hc        1 EPR      0.045033
     27 H7          5.4110   -1.2340    1.5840 hc        1 EPR      0.045033
     28 H8          4.8040   -1.9540    0.0350 hc        1 EPR      0.045033
     29 H91         5.2770   -0.8780   -2.2360 ha        1 EPR      0.139500
     30 H10         7.0600   -0.5870   -3.9570 ha        1 EPR      0.124500
     31 H11         8.1490    1.6380   -4.2680 ha        1 EPR      0.121000
     32 H12         7.4410    3.5750   -2.8640 ha        1 EPR      0.124500
     33 H131        5.6530    3.2890   -1.1520 ha        1 EPR      0.139500
@<TRIPOS>BOND
     1    1   10 1   
     2    1   11 1   
     3    1   12 1   
     4    2   10 2   
     5    3   11 2   
     6    4    8 1   
     7    4   14 2   
     8    4   15 1   
     9    5   13 1   
    10    6    9 1   
    11    6   11 1   
    12    7   13 1   
    13    8    9 2   
    14    8   22 1   
    15    9   10 1   
    16   12   13 1   
    17   12   23 1   
    18   12   24 1   
    19   14   16 1   
    20   14   25 1   
    21   15   26 1   
    22   15   27 1   
    23   15   28 1   
    24   16   17 ar  
    25   16   21 ar  
    26   17   18 ar  
    27   17   29 1   
    28   18   19 ar  
    29   18   30 1   
    30   19   20 ar  
    31   19   31 1   
    32   20   21 ar  
    33   20   32 1   
    34   21   33 1   
@<TRIPOS>SUBSTRUCTURE
     1 EPR         1 TEMP              0 ****  ****    0 ROOT
