@<TRIPOS>MOLECULE
EPR
   33    34     1     0     0
SMALL
bcc


@<TRIPOS>ATOM
      1 N          -0.3240    0.2110    0.0790 n         1 EPR     -0.378400
      2 O           1.5810    0.6040   -1.2120 o         1 EPR     -0.561500
      3 S          -2.1090    0.0010    2.0720 s         1 EPR     -0.376400
      4 C1          4.2240    0.0870    0.3530 ce        1 EPR     -0.078200
      5 O1         -0.3420   -2.4330   -0.9570 o         1 EPR     -0.815800
      6 S1          0.7030    0.0850    2.4470 ss        1 EPR     -0.175200
      7 O2         -1.9920   -1.9170   -2.3900 o         1 EPR     -0.815800
      8 C9          3.1590    0.0650    1.3460 ce        1 EPR     -0.046000
      9 C10         1.8350    0.1760    1.1720 cd        1 EPR     -0.095600
     10 C11         1.0880    0.3220   -0.1160 c         1 EPR      0.712700
     11 C12        -0.7140    0.0700    1.3910 c         1 EPR      0.419000
     12 C13        -1.1820   -0.1390   -1.0360 c3        1 EPR     -0.071000
     13 C14        -1.1590   -1.6400   -1.4880 c         1 EPR      0.917600
     14 C8          4.3120    1.0480   -0.5850 cf        1 EPR     -0.084200
     15 C91         5.2160   -1.0090    0.5090 c3        1 EPR     -0.060900
     16 C16         5.3660    1.1770   -1.5810 ca        1 EPR     -0.041800
     17 C17         5.7650    0.0900   -2.3710 ca        1 EPR     -0.116500
     18 C18         6.7550    0.2500   -3.3400 ca        1 EPR     -0.136000
     19 C19         7.3570    1.4930   -3.5290 ca        1 EPR     -0.138000
     20 C20         6.9610    2.5820   -2.7510 ca        1 EPR     -0.136000
     21 C15         5.9670    2.4280   -1.7880 ca        1 EPR     -0.116500
     22 H9          3.5300   -0.0950    2.3790 ha        1 EPR      0.127000
     23 H13        -2.2390    0.1250   -0.7590 h1        1 EPR      0.068700
     24 H13A       -0.8530    0.4810   -1.9140 h1        1 EPR      0.068700
     25 H5          3.5270    1.8250   -0.6480 ha        1 EPR      0.150000
     26 H6          6.1820   -0.7560    0.0080 hc        1 EPR      0.045033
     27 H7          4.8100   -1.9450    0.0470 hc        1 EPR      0.045033
     28 H8          5.4200   -1.2120    1.5890 hc        1 EPR      0.045033
     29 H91         5.2770   -0.8870   -2.2320 ha        1 EPR      0.139500
     30 H10         7.0540   -0.6070   -3.9600 ha        1 EPR      0.124500
     31 H11         8.1380    1.6170   -4.2920 ha        1 EPR      0.121000
     32 H12         7.4290    3.5640   -2.9020 ha        1 EPR      0.124500
     33 H131        5.6470    3.2900   -1.1840 ha        1 EPR      0.139500
@<TRIPOS>BOND
     1    1   10 1   
     2    1   11 1   
     3    1   12 1   
     4    2   10 2   
     5    3   11 2   
     6    4    8 1   
     7    4   14 2   
     8    4   15 1   
     9    5   13 1   
    10    6    9 1   
    11    6   11 1   
    12    7   13 1   
    13    8    9 2   
    14    8   22 1   
    15    9   10 1   
    16   12   13 1   
    17   12   23 1   
    18   12   24 1   
    19   14   16 1   
    20   14   25 1   
    21   15   26 1   
    22   15   27 1   
    23   15   28 1   
    24   16   17 ar  
    25   16   21 ar  
    26   17   18 ar  
    27   17   29 1   
    28   18   19 ar  
    29   18   30 1   
    30   19   20 ar  
    31   19   31 1   
    32   20   21 ar  
    33   20   32 1   
    34   21   33 1   
@<TRIPOS>SUBSTRUCTURE
     1 EPR         1 TEMP              0 ****  ****    0 ROOT
