@<TRIPOS>MOLECULE
EPS
   30    30     1     0     0
SMALL
bcc


@<TRIPOS>ATOM
      1 C1         -0.0860   -0.2120    0.1470 ce        1 EPS     -0.230400
      2 C2          1.2420   -0.0770    0.0040 c2        1 EPS     -0.120200
      3 C3          2.2260    0.0560    1.1340 c3        1 EPS      0.206300
      4 C4          1.5640    0.5000    2.4840 c3        1 EPS      0.142100
      5 C5          0.0710    0.8750    2.3770 c3        1 EPS      0.131100
      6 C6         -0.6980   -0.1080    1.4980 c3        1 EPS     -0.037200
      7 O3          3.2600    0.9030    0.7820 os        1 EPS     -0.571200
      8 P           4.8810    0.3640    1.0320 p5        1 EPS      1.317900
      9 O1P         4.8290   -1.1390    0.9350 o         1 EPS     -0.938167
     10 O2P         5.6750    1.0430   -0.0550 o         1 EPS     -0.938167
     11 O3P         5.0990    0.9110    2.4240 o         1 EPS     -0.938167
     12 O4          2.2320    1.6040    3.0630 oh        1 EPS     -0.657800
     13 O5         -0.4580    0.8200    3.7310 os        1 EPS     -0.316900
     14 C7         -1.5960    1.5290    4.0010 ce        1 EPS      0.089900
     15 C8         -2.3050    2.2670    3.1250 c2        1 EPS     -0.424000
     16 C9         -2.0630    1.4130    5.4540 c         1 EPS      0.922800
     17 O91        -2.1360    2.4750    6.1460 o         1 EPS     -0.864800
     18 O92        -2.4430    0.2950    5.9060 o         1 EPS     -0.864800
     19 C10        -1.0130   -0.4990   -1.0050 c         1 EPS      0.907800
     20 O11        -0.6630   -0.2360   -2.2010 o         1 EPS     -0.895300
     21 O12        -2.1560   -1.0200   -0.7830 o         1 EPS     -0.895300
     22 H2          1.7020   -0.0980   -0.9970 ha        1 EPS      0.127000
     23 H3          2.6540   -0.9840    1.3140 h1        1 EPS      0.054700
     24 H4          1.6420   -0.3650    3.2060 h1        1 EPS      0.007700
     25 H5         -0.0140    1.9230    1.9860 h1        1 EPS      0.051700
     26 H61        -1.7680    0.2160    1.4130 hc        1 EPS      0.039700
     27 H62        -0.7010   -1.1160    1.9930 hc        1 EPS      0.039700
     28 HO4         3.1710    1.5580    2.7680 ho        1 EPS      0.471000
     29 H81        -2.0620    2.3590    2.0640 ha        1 EPS      0.093000
     30 H82        -3.1880    2.8160    3.4650 ha        1 EPS      0.093000
@<TRIPOS>BOND
     1    1    2 2   
     2    1    6 1   
     3    1   19 1   
     4    2    3 1   
     5    2   22 1   
     6    3    4 1   
     7    3    7 1   
     8    3   23 1   
     9    4    5 1   
    10    4   12 1   
    11    4   24 1   
    12    5    6 1   
    13    5   13 1   
    14    5   25 1   
    15    6   26 1   
    16    6   27 1   
    17    7    8 1   
    18    8    9 1   
    19    8   10 1   
    20    8   11 1   
    21   12   28 1   
    22   13   14 1   
    23   14   15 2   
    24   14   16 1   
    25   15   29 1   
    26   15   30 1   
    27   16   17 1   
    28   16   18 1   
    29   19   20 1   
    30   19   21 1   
@<TRIPOS>SUBSTRUCTURE
     1 EPS         1 TEMP              0 ****  ****    0 ROOT
