@<TRIPOS>MOLECULE
EPS
   30    30     1     0     0
SMALL
bcc


@<TRIPOS>ATOM
      1 C1         -2.2230    0.3650   -0.6290 ce        1 EPS     -0.214400
      2 C2         -1.9500    0.3650    0.6830 c2        1 EPS     -0.132200
      3 C3         -0.6090    0.6250    1.3120 c3        1 EPS      0.212300
      4 C4          0.5210    0.8430    0.2530 c3        1 EPS      0.144100
      5 C5          0.2330    0.2030   -1.1220 c3        1 EPS      0.129100
      6 C6         -1.1540    0.5670   -1.6420 c3        1 EPS     -0.044200
      7 O3         -0.2770   -0.3730    2.2090 os        1 EPS     -0.570200
      8 P           0.1050    0.0890    3.8290 p5        1 EPS      1.317900
      9 O1P        -0.6960    1.3380    4.0960 o         1 EPS     -0.937167
     10 O2P        -0.2830   -1.1070    4.6600 o         1 EPS     -0.937167
     11 O3P         1.5910    0.3130    3.6740 o         1 EPS     -0.937167
     12 O4          1.7760    0.3700    0.6970 oh        1 EPS     -0.656800
     13 O5          1.2290    0.7480   -2.0330 os        1 EPS     -0.315900
     14 C7          1.4870    0.0600   -3.1870 ce        1 EPS      0.087900
     15 C8          0.9230   -1.1010   -3.5690 c2        1 EPS     -0.423000
     16 C9          2.5140    0.7460   -4.0910 c         1 EPS      0.922800
     17 O91         3.5820    0.1200   -4.3700 o         1 EPS     -0.865800
     18 O92         2.2470    1.8710   -4.6060 o         1 EPS     -0.865800
     19 C10        -3.6170    0.1740   -1.1750 c         1 EPS      0.908800
     20 O11        -4.6020    0.7810   -0.6430 o         1 EPS     -0.893800
     21 O12        -3.8080   -0.5820   -2.1830 o         1 EPS     -0.893800
     22 H2         -2.7510    0.1830    1.4170 ha        1 EPS      0.119000
     23 H3         -0.7030    1.6070    1.8810 h1        1 EPS      0.051700
     24 H4          0.6270    1.9550    0.0840 h1        1 EPS      0.001700
     25 H5          0.3650   -0.9070   -1.0410 h1        1 EPS      0.054700
     26 H61        -1.1460    1.6430   -1.9640 hc        1 EPS      0.039700
     27 H62        -1.3840   -0.0500   -2.5520 hc        1 EPS      0.039700
     28 HO4         1.6970    0.1610    1.6580 ho        1 EPS      0.471000
     29 H81         1.2340   -1.5750   -4.5050 ha        1 EPS      0.093500
     30 H82         0.1490   -1.6220   -3.0010 ha        1 EPS      0.093500
@<TRIPOS>BOND
     1    1    2 2   
     2    1    6 1   
     3    1   19 1   
     4    2    3 1   
     5    2   22 1   
     6    3    4 1   
     7    3    7 1   
     8    3   23 1   
     9    4    5 1   
    10    4   12 1   
    11    4   24 1   
    12    5    6 1   
    13    5   13 1   
    14    5   25 1   
    15    6   26 1   
    16    6   27 1   
    17    7    8 1   
    18    8    9 1   
    19    8   10 1   
    20    8   11 1   
    21   12   28 1   
    22   13   14 1   
    23   14   15 2   
    24   14   16 1   
    25   15   29 1   
    26   15   30 1   
    27   16   17 1   
    28   16   18 1   
    29   19   20 1   
    30   19   21 1   
@<TRIPOS>SUBSTRUCTURE
     1 EPS         1 TEMP              0 ****  ****    0 ROOT
