@<TRIPOS>MOLECULE
EPT
   34    34     1     0     0
SMALL
bcc


@<TRIPOS>ATOM
      1 C1         -0.0860   -0.0650    0.0690 ca        1 EPT     -0.112300
      2 C2          1.2920   -0.3050    0.0580 ca        1 EPT     -0.092000
      3 C3          2.0270   -0.2870    1.2400 ca        1 EPT     -0.183000
      4 C4          1.3710   -0.0240    2.4500 ca        1 EPT      0.120100
      5 C5         -0.0120    0.2200    2.4790 ca        1 EPT     -0.183000
      6 C6         -0.7270    0.1970    1.2870 ca        1 EPT     -0.092000
      7 C7         -0.8580   -0.0790   -1.2040 c3        1 EPT     -0.032100
      8 C8         -1.0610   -1.4900   -1.7240 c3        1 EPT     -0.076400
      9 C9         -1.8190   -1.4830   -3.0340 c3        1 EPT     -0.079400
     10 C10        -2.0260   -2.8890   -3.5540 c3        1 EPT     -0.079400
     11 C11        -2.7830   -2.8850   -4.8650 c3        1 EPT     -0.079400
     12 C12        -2.9900   -4.2910   -5.3860 c3        1 EPT     -0.080400
     13 C13        -3.7440   -4.2910   -6.6910 c3        1 EPT     -0.092100
     14 O4          2.0270    0.0110    3.6600 oh        1 EPT     -0.499100
     15 H2          1.8000   -0.5110   -0.8970 ha        1 EPT      0.133500
     16 H3          3.1090   -0.4760    1.2250 ha        1 EPT      0.140500
     17 H5         -0.5070    0.4250    3.4380 ha        1 EPT      0.140500
     18 H6         -1.8110    0.3880    1.3030 ha        1 EPT      0.133500
     19 H71        -1.8590    0.4080   -1.0520 hc        1 EPT      0.046200
     20 H72        -0.3100    0.5260   -1.9760 hc        1 EPT      0.046200
     21 H81        -0.0630   -1.9830   -1.8650 hc        1 EPT      0.043700
     22 H82        -1.6240   -2.0930   -0.9640 hc        1 EPT      0.043700
     23 H91        -2.8140   -0.9850   -2.8900 hc        1 EPT      0.039200
     24 H92        -1.2550   -0.8800   -3.7930 hc        1 EPT      0.039200
     25 H101       -2.5910   -3.4920   -2.7950 hc        1 EPT      0.040200
     26 H102       -1.0300   -3.3880   -3.6970 hc        1 EPT      0.040200
     27 H111       -3.7780   -2.3860   -4.7220 hc        1 EPT      0.039700
     28 H112       -2.2180   -2.2820   -5.6240 hc        1 EPT      0.039700
     29 H121       -1.9940   -4.7880   -5.5270 hc        1 EPT      0.038700
     30 H122       -3.5540   -4.8920   -4.6250 hc        1 EPT      0.038700
     31 H131       -3.8860   -5.3360   -7.0570 hc        1 EPT      0.032700
     32 H132       -3.1860   -3.7170   -7.4700 hc        1 EPT      0.032700
     33 H133       -4.7500   -3.8210   -6.5660 hc        1 EPT      0.032700
     34 HO4         2.9630   -0.1720    3.4950 ho        1 EPT      0.418000
@<TRIPOS>BOND
     1    1    2 ar  
     2    1    6 ar  
     3    1    7 1   
     4    2    3 ar  
     5    2   15 1   
     6    3    4 ar  
     7    3   16 1   
     8    4    5 ar  
     9    4   14 1   
    10    5    6 ar  
    11    5   17 1   
    12    6   18 1   
    13    7    8 1   
    14    7   19 1   
    15    7   20 1   
    16    8    9 1   
    17    8   21 1   
    18    8   22 1   
    19    9   10 1   
    20    9   23 1   
    21    9   24 1   
    22   10   11 1   
    23   10   25 1   
    24   10   26 1   
    25   11   12 1   
    26   11   27 1   
    27   11   28 1   
    28   12   13 1   
    29   12   29 1   
    30   12   30 1   
    31   13   31 1   
    32   13   32 1   
    33   13   33 1   
    34   14   34 1   
@<TRIPOS>SUBSTRUCTURE
     1 EPT         1 TEMP              0 ****  ****    0 ROOT
