@<TRIPOS>MOLECULE
EPT
   34    34     1     0     0
SMALL
bcc


@<TRIPOS>ATOM
      1 C1         -0.0250   -0.6670   -1.7430 ca        1 EPT     -0.112300
      2 C2          1.1900   -0.1900   -2.2530 ca        1 EPT     -0.092000
      3 C3          1.2740    0.3200   -3.5430 ca        1 EPT     -0.183000
      4 C4          0.1170    0.3510   -4.3390 ca        1 EPT      0.120100
      5 C5         -1.1060   -0.1220   -3.8450 ca        1 EPT     -0.183000
      6 C6         -1.1670   -0.6280   -2.5490 ca        1 EPT     -0.092000
      7 C7         -0.0910   -1.2150   -0.3610 c3        1 EPT     -0.032100
      8 C8         -0.0140   -0.1190    0.6850 c3        1 EPT     -0.076400
      9 C9         -0.0480   -0.6970    2.0830 c3        1 EPT     -0.079400
     10 C10         0.0260    0.3940    3.1300 c3        1 EPT     -0.079400
     11 C11        -0.0060   -0.1830    4.5280 c3        1 EPT     -0.079400
     12 C12         0.0670    0.9070    5.5760 c3        1 EPT     -0.080400
     13 C13         0.0350    0.3380    6.9710 c3        1 EPT     -0.092100
     14 O4          0.2580    0.8650   -5.6080 oh        1 EPT     -0.499100
     15 H2          2.0910   -0.2190   -1.6200 ha        1 EPT      0.134000
     16 H3          2.2230    0.6950   -3.9500 ha        1 EPT      0.140500
     17 H5         -2.0060   -0.0950   -4.4740 ha        1 EPT      0.140500
     18 H6         -2.1260   -1.0010   -2.1590 ha        1 EPT      0.134000
     19 H71         0.7590   -1.9340   -0.2070 hc        1 EPT      0.046200
     20 H72        -1.0430   -1.7940   -0.2220 hc        1 EPT      0.046200
     21 H81        -0.8710    0.5910    0.5490 hc        1 EPT      0.044200
     22 H82         0.9300    0.4690    0.5410 hc        1 EPT      0.044200
     23 H91         0.8110   -1.4070    2.2180 hc        1 EPT      0.039700
     24 H92        -0.9900   -1.2890    2.2230 hc        1 EPT      0.039700
     25 H101       -0.8330    1.1030    2.9950 hc        1 EPT      0.040200
     26 H102        0.9690    0.9860    2.9890 hc        1 EPT      0.040200
     27 H111        0.8530   -0.8920    4.6630 hc        1 EPT      0.039700
     28 H112       -0.9490   -0.7760    4.6690 hc        1 EPT      0.039700
     29 H121       -0.7920    1.6160    5.4380 hc        1 EPT      0.038700
     30 H122        1.0100    1.5000    5.4330 hc        1 EPT      0.038700
     31 H131        0.0900    1.1580    7.7260 hc        1 EPT      0.032700
     32 H132       -0.9080   -0.2360    7.1410 hc        1 EPT      0.032700
     33 H133        0.8980   -0.3520    7.1350 hc        1 EPT      0.032700
     34 HO4        -0.6060    0.8270   -6.0420 ho        1 EPT      0.418000
@<TRIPOS>BOND
     1    1    2 ar  
     2    1    6 ar  
     3    1    7 1   
     4    2    3 ar  
     5    2   15 1   
     6    3    4 ar  
     7    3   16 1   
     8    4    5 ar  
     9    4   14 1   
    10    5    6 ar  
    11    5   17 1   
    12    6   18 1   
    13    7    8 1   
    14    7   19 1   
    15    7   20 1   
    16    8    9 1   
    17    8   21 1   
    18    8   22 1   
    19    9   10 1   
    20    9   23 1   
    21    9   24 1   
    22   10   11 1   
    23   10   25 1   
    24   10   26 1   
    25   11   12 1   
    26   11   27 1   
    27   11   28 1   
    28   12   13 1   
    29   12   29 1   
    30   12   30 1   
    31   13   31 1   
    32   13   32 1   
    33   13   33 1   
    34   14   34 1   
@<TRIPOS>SUBSTRUCTURE
     1 EPT         1 TEMP              0 ****  ****    0 ROOT
