@<TRIPOS>MOLECULE
EPT
   34    34     1     0     0
SMALL
bcc


@<TRIPOS>ATOM
      1 C1          0.1100   -0.0690   -0.0410 ca        1 EPT     -0.112300
      2 C2          1.4870    0.1810    0.0170 ca        1 EPT     -0.092000
      3 C3          2.1590    0.2010    1.2340 ca        1 EPT     -0.183000
      4 C4          1.4370   -0.0350    2.4160 ca        1 EPT      0.120100
      5 C5          0.0580   -0.2860    2.3760 ca        1 EPT     -0.183000
      6 C6         -0.5940   -0.3010    1.1460 ca        1 EPT     -0.092000
      7 C7         -0.6030   -0.0810   -1.3470 c3        1 EPT     -0.032100
      8 C8         -0.9580   -1.4900   -1.7830 c3        1 EPT     -0.076400
      9 C9         -1.7100   -1.4810   -3.0960 c3        1 EPT     -0.079400
     10 C10        -2.0630   -2.8860   -3.5350 c3        1 EPT     -0.079400
     11 C11        -2.8160   -2.8780   -4.8480 c3        1 EPT     -0.079400
     12 C12        -3.1690   -4.2830   -5.2890 c3        1 EPT     -0.080400
     13 C13        -3.9190   -4.2800   -6.5960 c3        1 EPT     -0.092100
     14 O4          2.1530   -0.0030    3.5910 oh        1 EPT     -0.499100
     15 H2          2.0470    0.3660   -0.9120 ha        1 EPT      0.133500
     16 H3          3.2390    0.3970    1.2880 ha        1 EPT      0.140500
     17 H5         -0.5000   -0.4690    3.3040 ha        1 EPT      0.140500
     18 H6         -1.6770   -0.4980    1.1060 ha        1 EPT      0.133500
     19 H71        -1.5430    0.5290   -1.2630 hc        1 EPT      0.046200
     20 H72         0.0340    0.4020   -2.1360 hc        1 EPT      0.046200
     21 H81        -0.0210   -2.0990   -1.8880 hc        1 EPT      0.043700
     22 H82        -1.5840   -1.9790   -0.9910 hc        1 EPT      0.043700
     23 H91        -2.6470   -0.8740   -2.9900 hc        1 EPT      0.039200
     24 H92        -1.0840   -0.9870   -3.8850 hc        1 EPT      0.039200
     25 H101       -2.6880   -3.3810   -2.7460 hc        1 EPT      0.040200
     26 H102       -1.1250   -3.4930   -3.6430 hc        1 EPT      0.040200
     27 H111       -3.7540   -2.2720   -4.7400 hc        1 EPT      0.039700
     28 H112       -2.1920   -2.3830   -5.6380 hc        1 EPT      0.039700
     29 H121       -2.2300   -4.8880   -5.3950 hc        1 EPT      0.038700
     30 H122       -3.7920   -4.7770   -4.4980 hc        1 EPT      0.038700
     31 H131       -4.1690   -5.3250   -6.9020 hc        1 EPT      0.032700
     32 H132       -3.3050   -3.8130   -7.4030 hc        1 EPT      0.032700
     33 H133       -4.8710   -3.7030   -6.5030 hc        1 EPT      0.032700
     34 HO4         1.5390   -0.1780    4.3180 ho        1 EPT      0.418000
@<TRIPOS>BOND
     1    1    2 ar  
     2    1    6 ar  
     3    1    7 1   
     4    2    3 ar  
     5    2   15 1   
     6    3    4 ar  
     7    3   16 1   
     8    4    5 ar  
     9    4   14 1   
    10    5    6 ar  
    11    5   17 1   
    12    6   18 1   
    13    7    8 1   
    14    7   19 1   
    15    7   20 1   
    16    8    9 1   
    17    8   21 1   
    18    8   22 1   
    19    9   10 1   
    20    9   23 1   
    21    9   24 1   
    22   10   11 1   
    23   10   25 1   
    24   10   26 1   
    25   11   12 1   
    26   11   27 1   
    27   11   28 1   
    28   12   13 1   
    29   12   29 1   
    30   12   30 1   
    31   13   31 1   
    32   13   32 1   
    33   13   33 1   
    34   14   34 1   
@<TRIPOS>SUBSTRUCTURE
     1 EPT         1 TEMP              0 ****  ****    0 ROOT
