@<TRIPOS>MOLECULE
EPT
   34    31     1     0     0
SMALL
bcc


@<TRIPOS>ATOM
      1 C1          1.0790    2.0350    1.5190 c1        1 EPT     -0.078100
      2 C2          1.7270    2.9820    0.7400 c1        1 EPT     -0.067000
      3 C3          2.8290    3.6560    1.2420 c1        1 EPT     -0.067000
      4 C4          3.2840    3.3840    2.5230 c1        1 EPT      0.103600
      5 C5          2.6370    2.4370    3.3010 c1        1 EPT     -0.154500
      6 C6          1.5340    1.7620    2.7990 c1        1 EPT     -0.031500
      7 C7         -0.1850    1.3750    1.0100 c3        1 EPT     -0.066300
      8 C8          0.1780    0.1680    0.1700 c3        1 EPT     -0.076400
      9 C9         -1.0620   -0.6670   -0.0750 c3        1 EPT     -0.079400
     10 C10        -0.8280   -1.5810   -1.2590 c3        1 EPT     -0.079400
     11 C11        -2.0730   -2.4040   -1.5150 c3        1 EPT     -0.079400
     12 C12        -1.9270   -3.1450   -2.8260 c3        1 EPT     -0.080400
     13 C13        -3.1910   -3.9290   -3.1060 c3        1 EPT     -0.092100
     14 O4          4.3470    4.1310    3.0650 oh        1 EPT     -0.482600
     15 H2          1.4060    3.1740   -0.1620 ha        1 EPT      0.084500
     16 H3          3.2850    4.3230    0.6940 ha        1 EPT      0.084500
     17 H5          2.9570    2.2450    4.2030 ha        1 EPT      0.074500
     18 H6          1.0790    1.0960    3.3480 ha        1 EPT      0.075500
     19 H71        -0.7330    1.0910    1.7690 hc        1 EPT      0.046200
     20 H72        -0.6890    2.0120    0.4650 hc        1 EPT      0.046200
     21 H81         0.5450    0.4660   -0.6860 hc        1 EPT      0.044200
     22 H82         0.8450   -0.3690    0.6430 hc        1 EPT      0.044200
     23 H91        -1.2550   -1.2040    0.7190 hc        1 EPT      0.039700
     24 H92        -1.8200   -0.0780   -0.2630 hc        1 EPT      0.039700
     25 H101       -0.0770   -2.1770   -1.0670 hc        1 EPT      0.040200
     26 H102       -0.6230   -1.0440   -2.0500 hc        1 EPT      0.040200
     27 H111       -2.1940   -3.0470   -0.7880 hc        1 EPT      0.039700
     28 H112       -2.8510   -1.8120   -1.5600 hc        1 EPT      0.039700
     29 H121       -1.1680   -3.7600   -2.7700 hc        1 EPT      0.038700
     30 H122       -1.7740   -2.5040   -3.5490 hc        1 EPT      0.038700
     31 H131       -3.3660   -4.5430   -2.3630 hc        1 EPT      0.032700
     32 H132       -3.9440   -3.3090   -3.2040 hc        1 EPT      0.032700
     33 H133       -3.0800   -4.4420   -3.9340 hc        1 EPT      0.032700
     34 HO4         5.1070    3.6800    2.9650 ho        1 EPT      0.418000
@<TRIPOS>BOND
     1    1    6 3   
     2    1    7 1   
     3    2    3 3   
     4    2   15 1   
     5    3   16 1   
     6    4    5 3   
     7    4   14 1   
     8    5   17 1   
     9    6   18 1   
    10    7    8 1   
    11    7   19 1   
    12    7   20 1   
    13    8    9 1   
    14    8   21 1   
    15    8   22 1   
    16    9   10 1   
    17    9   23 1   
    18    9   24 1   
    19   10   11 1   
    20   10   25 1   
    21   10   26 1   
    22   11   12 1   
    23   11   27 1   
    24   11   28 1   
    25   12   13 1   
    26   12   29 1   
    27   12   30 1   
    28   13   31 1   
    29   13   32 1   
    30   13   33 1   
    31   14   34 1   
@<TRIPOS>SUBSTRUCTURE
     1 EPT         1 TEMP              0 ****  ****    0 ROOT
