@<TRIPOS>MOLECULE
EPY
   58    54     1     0     0
SMALL
bcc


@<TRIPOS>ATOM
      1 S         115.6870   -4.5060   68.0880 ss        1 EPY      0.047000
      2 C2A       115.0750   -1.9540   68.6840 c3        1 EPY     -0.012000
      3 C3A       116.3810   -1.1090   68.7660 c2        1 EPY      0.273000
      4 N4A       117.5240   -1.7950   69.1400 n         1 EPY     -0.299000
      5 C1A       115.2410   -2.8970   67.4810 c3        1 EPY     -0.291000
      6 C5A       118.8030   -1.4120   68.5790 c3        1 EPY     -0.121000
      7 C6A       119.1970   -2.2770   67.3610 c2        1 EPY      0.308000
      8 O6A       120.3560   -2.7790   67.3340 o         1 EPY     -0.589500
      9 O3A       116.3570    0.1200   68.5470 o         1 EPY     -0.388000
     10 O7A       118.3330   -2.4890   66.4560 o         1 EPY     -0.589500
     11 C6B      -563.7530   18.6400 -334.3900 c2        1 EPY      0.407000
     12 O7B      -562.5120   18.4460 -334.4010 o         1 EPY     -0.540000
     13 C5B      -564.5810   17.8490 -333.3510 c2        1 EPY     -0.523000
     14 N5B      -562.0520   20.1410 -336.6700 n3        1 EPY     -0.393000
     15 C4B      -564.8390   18.3150 -332.1740 c1        1 EPY      0.025000
     16 C3B       111.9410    0.0810   69.4700 c3        1 EPY     -0.243000
     17 O2B       112.9180   -1.8460   70.5240 o         1 EPY     -0.386000
     18 N1B       113.9010   -1.1170   68.5690 n         1 EPY     -0.343000
     19 C1C       116.8110   -5.1060   66.8540 c3        1 EPY     -0.308000
     20 C3C       119.2900   -5.5120   66.5550 c3        1 EPY     -0.035000
     21 O2C       120.4730   -5.6870   67.2990 oh        1 EPY     -0.357000
     22 C2C       118.0650   -5.6890   67.4700 c3        1 EPY      0.008000
     23 O3C       117.8750   -7.1400   67.5680 os        1 EPY     -0.180000
     24 C4C       117.7650   -7.7240   68.7490 c2        1 EPY      0.355000
     25 C9C       114.7670   -3.7970   72.4080 c1        1 EPY     -0.164000
     26 C8C       115.6440   -4.4670   72.8720 c1        1 EPY     -0.199000
     27 C7C       116.7350   -5.2530   73.3540 c3        1 EPY     -0.135000
     28 C6C       117.6770   -6.6580   71.1090 c1        1 EPY      0.080000
     29 C5C       117.7350   -7.1460   69.9660 c1        1 EPY     -0.625000
     30 N8C       116.3720   -6.2280   74.4490 no        1 EPY      0.526000
     31 O8C       115.3640   -6.8800   74.3880 o         1 EPY     -0.397000
     32 O9C       117.1490   -6.3690   75.3610 o         1 EPY     -0.397000
     33 H3A1      114.9720   -2.5720   69.6320 h1        1 EPY      0.153000
     34 HNA4      117.4030   -2.7920   69.1780 hn        1 EPY      0.211000
     35 H1A1      116.0350   -2.5120   66.7840 h1        1 EPY      0.137500
     36 H1A2      114.2890   -2.9920   66.9060 h1        1 EPY      0.137500
     37 H5A1      118.7740   -0.3340   68.2630 h1        1 EPY      0.103000
     38 H5A2      119.5770   -1.5350   69.3860 h1        1 EPY      0.103000
     39 H5B1      111.2090   -0.0180   70.3080 hc        1 EPY      0.102333
     40 HN51     -562.3950   19.2370 -336.9400 hn        1 EPY      0.129333
     41 HN52     -562.8630   20.6650 -336.3920 hn        1 EPY      0.129333
     42 H4B1     -564.8750   16.8920 -333.7960 ha        1 EPY      0.177000
     43 H4B2     -561.5170   19.9890 -335.8340 hn        1 EPY      0.129333
     44 H3B1      111.3940    0.0130   68.4990 hc        1 EPY      0.102333
     45 H3B2      112.4410    1.0760   69.5380 hc        1 EPY      0.102333
     46 HNB1      114.0280   -0.3110   67.9930 hn        1 EPY      0.229000
     47 H1C1      116.2870   -5.8800   66.2420 h1        1 EPY      0.147000
     48 H3C1      119.2500   -4.4840   66.0900 h1        1 EPY      0.126500
     49 H3C2      117.1130   -4.2560   66.1780 h1        1 EPY      0.147000
     50 HOC2      120.7600   -4.8010   67.5820 ho        1 EPY      0.253000
     51 H2C1      119.2920   -6.3120   65.7680 h1        1 EPY      0.126500
     52 H2C2      118.2690   -5.2660   68.4920 h1        1 EPY      0.152000
     53 H9C1      117.6810   -8.8290   68.6160 h4        1 EPY      0.159000
     54 H8C1      113.9980   -3.2000   71.9750 ha        1 EPY      0.248000
     55 H6C1      117.5550   -4.6010   73.7660 h1        1 EPY      0.209500
     56 H5C1      117.1910   -5.9110   72.4520 h1        1 EPY      0.209500
     57 C2B       112.9650   -1.0250   69.5850 c2        1 EPY      0.302000
     58 O6B      -564.3850   19.3860 -335.1780 o         1 EPY     -0.540000
@<TRIPOS>BOND
     1    1    5 1   
     2    1   19 1   
     3    2    3 1   
     4    2    5 1   
     5    2   18 1   
     6    2   33 1   
     7    3    4 1   
     8    3    9 1   
     9    4    6 1   
    10    4   34 1   
    11    5   35 1   
    12    5   36 1   
    13    6    7 1   
    14    6   37 1   
    15    6   38 1   
    16    7    8 1   
    17    7   10 1   
    18   11   12 1   
    19   11   13 1   
    20   11   58 1   
    21   13   15 1   
    22   13   42 1   
    23   14   40 1   
    24   14   41 1   
    25   14   43 1   
    26   16   39 1   
    27   16   44 1   
    28   16   45 1   
    29   16   57 1   
    30   17   57 1   
    31   18   46 1   
    32   18   57 1   
    33   19   22 1   
    34   19   47 1   
    35   19   49 1   
    36   20   21 1   
    37   20   22 1   
    38   20   48 1   
    39   20   51 1   
    40   21   50 1   
    41   22   23 1   
    42   22   52 1   
    43   23   24 1   
    44   24   29 1   
    45   24   53 1   
    46   25   26 1   
    47   25   54 1   
    48   26   27 1   
    49   27   30 1   
    50   27   55 1   
    51   27   56 1   
    52   28   29 1   
    53   30   31 1   
    54   30   32 1   
@<TRIPOS>SUBSTRUCTURE
     1 EPY         1 TEMP              0 ****  ****    0 ROOT
