@<TRIPOS>MOLECULE
EPY
   61    56     1     0     0
SMALL
bcc


@<TRIPOS>ATOM
      1 S           2.2800   -1.7860    1.3500 ss        1 EPY      0.104000
      2 C2A         0.2230   -0.8520   -0.3270 c3        1 EPY     -0.029000
      3 C3A        -1.0500   -0.4960    0.4890 c2        1 EPY      0.290000
      4 N4A        -1.3290   -1.4890    1.3930 ns        1 EPY     -0.371000
      5 C1A         0.8010   -2.0830    0.4230 c3        1 EPY     -0.255000
      6 C5A        -0.2980   -2.5040    1.4310 c3        1 EPY     -0.022000
      7 C6A        -2.5750    2.1460   -3.5410 c1        1 EPY      0.464000
      8 O6A        -2.0480    2.0230   -4.5950 o         1 EPY     -0.232500
      9 O3A        -1.7330    0.5380    0.3340 o         1 EPY     -0.465000
     10 O7A        -3.1320    2.2780   -2.4920 o         1 EPY     -0.232500
     11 C6B        -5.2580   -0.8310    0.8430 cu        1 EPY      0.361000
     12 O7B        -4.3090   -0.6710    1.5710 o         1 EPY     -0.239000
     13 C5B        -6.3820   -1.2620    0.1100 cu        1 EPY     -0.047000
     14 N5B        -3.8820    2.1710    0.2460 n+        1 EPY     -0.085000
     15 C4B        -7.3820   -1.9590   -0.3690 c2        1 EPY     -0.104000
     16 C3B        -6.1130    3.2070    4.9650 c2        1 EPY     -0.394000
     17 O2B        -5.2330    2.5630    2.7130 o         1 EPY     -0.261000
     18 N1B         1.1180    0.2450   -0.5630 n8        1 EPY     -0.349000
     19 C1C         3.5570   -2.5980    0.4380 c3        1 EPY     -0.281000
     20 C3C        -1.8180    5.5660    0.2540 c2        1 EPY      0.184000
     21 O2C        -2.6310    4.6440    0.3510 o         1 EPY     -0.366000
     22 C2C         3.7970   -2.1270   -0.9780 c3        1 EPY     -0.031000
     23 O3C         4.7130   -1.0300   -0.9120 os        1 EPY     -0.256000
     24 C4C         5.0580   -0.5110   -2.1890 c3        1 EPY      0.071000
     25 C9C         2.3770   -0.1870   -6.2120 c1        1 EPY      0.321000
     26 C8C         1.8760    0.8730   -5.6060 c2        1 EPY     -0.538000
     27 C7C         1.9430    1.2250   -4.1640 c3        1 EPY      0.172000
     28 C6C         3.0300    0.5890   -3.4720 c1        1 EPY     -0.218000
     29 C5C         3.9410    0.0880   -2.8790 c1        1 EPY     -0.075000
     30 N8C         0.5850    0.8740   -3.4750 no        1 EPY      0.517000
     31 O8C         0.1610   -0.2420   -3.4950 o         1 EPY     -0.377000
     32 O9C        -0.0130    1.7760   -2.9450 o         1 EPY     -0.377000
     33 H3A1        1.8140    0.3220    0.1580 hn        1 EPY      0.176500
     34 HNA4       -0.8300    5.4220   -0.2320 h4        1 EPY      0.093500
     35 H1A1       -0.1480   -1.1890   -1.3450 h1        1 EPY      0.148000
     36 H1A2        0.9810   -2.9010   -0.3160 h1        1 EPY      0.133000
     37 H5A1        0.1290   -2.5910    2.4700 h1        1 EPY      0.109000
     38 H5A2       -0.7310   -3.5010    1.1390 h1        1 EPY      0.109000
     39 H5B1       -1.1320    3.1070   -0.8850 ha        1 EPY      0.004500
     40 HN51       -3.7530    1.3760    0.8850 hn        1 EPY      0.264000
     41 HN52       -2.9690    2.3940   -0.1830 hn        1 EPY      0.264000
     42 H4B1       -7.6020   -2.9730   -0.0020 ha        1 EPY      0.169000
     43 H4B2       -1.0940    2.4400   -1.0060 ha        1 EPY      0.004500
     44 H3B1       -8.0430   -1.5620   -1.1550 ha        1 EPY      0.169000
     45 H3B2       -5.5550    2.9900    5.8860 ha        1 EPY      0.194000
     46 HNB1        0.6020    1.1030   -0.6470 hn        1 EPY      0.176500
     47 H1C1        4.4740   -2.4140    1.0610 h1        1 EPY      0.135000
     48 H3C1       -2.0360    6.5810    0.6480 h4        1 EPY      0.093500
     49 H3C2        3.3580   -3.6970    0.4170 h1        1 EPY      0.135000
     50 HOC2       -4.2150    2.9860    0.7650 hn        1 EPY      0.264000
     51 H2C1        4.2600   -2.9520   -1.5870 h1        1 EPY      0.088500
     52 H2C2        2.8450   -1.7920   -1.4710 h1        1 EPY      0.088500
     53 H9C1        5.8400    0.2690   -1.9550 h1        1 EPY      0.123500
     54 H8C1        1.3420    1.6110   -6.2450 ha        1 EPY      0.212000
     55 H6C1        2.0210    2.3530   -4.0430 h1        1 EPY      0.162000
     56 H5C1        5.5070   -1.3220   -2.8300 h1        1 EPY      0.123500
     57 C2B        -5.6540    2.8730    3.7930 c1        1 EPY      0.269000
     58 H4A2       -2.0810   -1.4750    2.0350 hn        1 EPY      0.258000
     59 H5B3       -4.5440    1.9180   -0.4870 hn        1 EPY      0.264000
     60 H1B2       -7.0770    3.7190    5.0830 ha        1 EPY      0.194000
     61 O6B        -5.8060    0.0400   -0.1060 os        1 EPY     -0.301000
@<TRIPOS>BOND
     1    1    5 1   
     2    1   19 1   
     3    2    3 1   
     4    2    5 1   
     5    2   18 1   
     6    2   35 1   
     7    3    4 1   
     8    3    9 1   
     9    4    6 1   
    10    4   58 1   
    11    5    6 1   
    12    5   36 1   
    13    6   37 1   
    14    6   38 1   
    15    7    8 1   
    16    7   10 1   
    17   11   12 1   
    18   11   13 1   
    19   11   61 1   
    20   13   15 1   
    21   13   61 1   
    22   14   40 1   
    23   14   41 1   
    24   14   50 1   
    25   14   59 1   
    26   15   42 1   
    27   15   44 1   
    28   16   45 1   
    29   16   57 1   
    30   16   60 1   
    31   17   57 1   
    32   18   33 1   
    33   18   46 1   
    34   19   22 1   
    35   19   47 1   
    36   19   49 1   
    37   20   21 1   
    38   20   34 1   
    39   20   48 1   
    40   22   23 1   
    41   22   51 1   
    42   22   52 1   
    43   23   24 1   
    44   24   29 1   
    45   24   53 1   
    46   24   56 1   
    47   25   26 1   
    48   26   27 1   
    49   26   54 1   
    50   27   28 1   
    51   27   30 1   
    52   27   55 1   
    53   28   29 1   
    54   30   31 1   
    55   30   32 1   
    56   39   43 1   
@<TRIPOS>SUBSTRUCTURE
     1 EPY         1 TEMP              0 ****  ****    0 ROOT
