@<TRIPOS>MOLECULE
EPY
   58    56     1     0     0
SMALL
bcc


@<TRIPOS>ATOM
      1 S           0.6880   -0.3880    0.9570 ss        1 EPY      0.051000
      2 C2A        -1.4410    1.1190    0.3020 c3        1 EPY      0.019000
      3 C3A        -1.9740    0.9270    1.7040 c2        1 EPY      0.259000
      4 N4A        -2.9260   -0.0920    1.9670 n         1 EPY     -0.310000
      5 C1A         0.0720    1.1580    0.3390 c3        1 EPY     -0.295000
      6 C5A        -3.3370   -0.3540    3.3030 c3        1 EPY     -0.126000
      7 C6A        -4.5760   -1.2220    3.2890 c2        1 EPY      0.320000
      8 O6A        -5.7160   -0.6930    3.3640 o         1 EPY     -0.592000
      9 O3A        -1.5990    1.6540    2.6010 o         1 EPY     -0.405000
     10 O7A        -4.4670   -2.4730    3.2020 o         1 EPY     -0.592000
     11 O6B        -3.9550    5.8930   -5.1400 o         1 EPY     -0.583000
     12 C6B        -4.5500    5.8910   -4.0300 c2        1 EPY      0.307000
     13 O7B        -4.7840    6.9780   -3.4390 o         1 EPY     -0.583000
     14 C5B        -5.0180    4.5870   -3.4270 c3        1 EPY     -0.127000
     15 N5B        -5.8910    3.9300   -4.3380 n3        1 EPY     -0.321000
     16 C4B        -3.8240    3.7030   -3.1460 c3        1 EPY     -0.125000
     17 C3B        -3.7050    3.4730   -1.6550 c3        1 EPY     -0.187000
     18 C2B        -2.7420    2.3340   -1.3950 c2        1 EPY      0.312000
     19 O2B        -2.6920    1.3930   -2.1630 o         1 EPY     -0.393000
     20 N1B        -1.9320    2.3410   -0.2280 n         1 EPY     -0.388000
     21 C1C         2.4600   -0.3940    0.8730 c3        1 EPY     -0.250000
     22 C3C         3.0290    0.0670    2.1960 c3        1 EPY     -0.001000
     23 O2C         2.6260   -0.8210    3.2150 oh        1 EPY     -0.355000
     24 C2C         2.9460   -1.7960    0.5740 c3        1 EPY     -0.022000
     25 O3C         4.2450   -1.9630    1.0950 os        1 EPY     -0.205000
     26 C4C         4.8660   -3.1610    0.7010 c2        1 EPY      0.156000
     27 C9C         4.5000   -4.3590    1.2950 c2        1 EPY     -0.217000
     28 C8C         5.1700   -5.5280    0.9690 c1        1 EPY     -0.024000
     29 C7C         6.2060   -5.5000    0.0490 c1        1 EPY     -0.200000
     30 C6C         6.5720   -4.3030   -0.5460 c1        1 EPY     -0.045000
     31 C5C         5.9030   -3.1330   -0.2200 c1        1 EPY     -0.194000
     32 N8C         6.8700   -6.7020   -0.3090 no        1 EPY      0.577000
     33 O8C         7.8520   -6.6830   -1.2580 o         1 EPY     -0.392000
     34 O9C         6.5450   -7.7580    0.2140 o         1 EPY     -0.392000
     35 H3A1       -1.7340    0.3770   -0.2630 h1        1 EPY      0.147000
     36 HNA4       -3.2680   -0.5850    1.2800 hn        1 EPY      0.220000
     37 H1A1        0.4160    1.3080   -0.5650 h1        1 EPY      0.128500
     38 H1A2        0.3660    1.8840    0.9250 h1        1 EPY      0.128500
     39 H5A1       -3.5350    0.4920    3.7560 h1        1 EPY      0.097500
     40 H5A2       -2.6180   -0.8180    3.7800 h1        1 EPY      0.097500
     41 H5B1       -5.4940    4.7660   -2.5920 h1        1 EPY      0.080000
     42 HN51       -6.4410    4.5470   -4.7320 hn        1 EPY      0.124500
     43 HN52       -6.3970    3.3140   -3.8860 hn        1 EPY      0.124500
     44 H4B1       -3.9400    2.8440   -3.6000 hc        1 EPY      0.080000
     45 H4B2       -3.0110    4.1380   -3.4750 hc        1 EPY      0.080000
     46 H3B1       -3.3720    4.2860   -1.2260 hc        1 EPY      0.130000
     47 H3B2       -4.5830    3.2480   -1.2890 hc        1 EPY      0.130000
     48 HNB1       -1.7550    3.1270    0.1980 hn        1 EPY      0.236000
     49 H1C1        2.7540    0.2100    0.1640 h1        1 EPY      0.130000
     50 H3C1        2.7000    0.9670    2.3980 h1        1 EPY      0.091000
     51 H3C2        4.0070    0.0810    2.1430 h1        1 EPY      0.091000
     52 HOC2        3.0340   -0.6050    3.9750 ho        1 EPY      0.254000
     53 H2C1        2.9620   -1.9370   -0.3950 h1        1 EPY      0.129500
     54 H2C2        2.3420   -2.4460    0.9890 h1        1 EPY      0.129500
     55 H9C1        3.7700   -4.3790    1.9430 ha        1 EPY      0.219000
     56 H8C1        4.9120   -6.3710    1.3880 ha        1 EPY      0.168000
     57 H6C1        7.3020   -4.2830   -1.1940 ha        1 EPY      0.153000
     58 H5C1        6.1610   -2.2910   -0.6380 ha        1 EPY      0.154000
@<TRIPOS>BOND
     1    1    5 1   
     2    1   21 1   
     3    2    3 1   
     4    2    5 1   
     5    2   20 1   
     6    2   35 1   
     7    3    4 1   
     8    3    9 1   
     9    4    6 1   
    10    4   36 1   
    11    5   37 1   
    12    5   38 1   
    13    6    7 1   
    14    6   39 1   
    15    6   40 1   
    16    7    8 1   
    17    7   10 1   
    18   11   12 1   
    19   12   13 1   
    20   12   14 1   
    21   14   15 1   
    22   14   16 1   
    23   14   41 1   
    24   15   42 1   
    25   15   43 1   
    26   16   17 1   
    27   16   44 1   
    28   16   45 1   
    29   17   18 1   
    30   17   46 1   
    31   17   47 1   
    32   18   19 1   
    33   18   20 1   
    34   20   48 1   
    35   21   22 1   
    36   21   24 1   
    37   21   49 1   
    38   22   23 1   
    39   22   50 1   
    40   22   51 1   
    41   23   52 1   
    42   24   25 1   
    43   24   53 1   
    44   24   54 1   
    45   25   26 1   
    46   26   27 1   
    47   26   31 1   
    48   27   28 1   
    49   27   55 1   
    50   28   56 1   
    51   29   30 1   
    52   29   32 1   
    53   30   57 1   
    54   31   58 1   
    55   32   33 1   
    56   32   34 1   
@<TRIPOS>SUBSTRUCTURE
     1 EPY         1 TEMP              0 ****  ****    0 ROOT
