@<TRIPOS>MOLECULE
EPY
   58    58     1     0     0
SMALL
bcc


@<TRIPOS>ATOM
      1 S          -0.1860    0.5450   -0.2320 ss        1 EPY     -0.322200
      2 C2A         2.2830   -0.6440   -0.5700 c3        1 EPY      0.024700
      3 C3A         2.7220   -1.9820   -1.2340 c         1 EPY      0.614100
      4 N4A         2.0850   -3.1310   -0.7670 n         1 EPY     -0.489900
      5 C1A         0.9950   -0.2290   -1.3000 c3        1 EPY     -0.033300
      6 C5A         1.7400   -4.1770   -1.7070 c3        1 EPY     -0.077000
      7 C6A         0.2510   -4.1560   -2.1510 c         1 EPY      0.899600
      8 O6A        -0.1750   -5.1590   -2.7800 o         1 EPY     -0.849300
      9 O3A         3.6170   -2.0090   -2.1010 o         1 EPY     -0.612100
     10 O7A        -0.4540   -3.1420   -1.8560 o         1 EPY     -0.849300
     11 C6B         5.7330    5.1700   -1.2050 c         1 EPY      0.888600
     12 O7B         6.0110    6.3200   -0.7560 o         1 EPY     -0.845300
     13 C5B         6.0830    3.9290   -0.3170 c3        1 EPY      0.019500
     14 N5B         6.6720    4.2640    0.9740 n3        1 EPY     -0.895800
     15 C4B         4.8410    3.0400   -0.2090 c3        1 EPY     -0.062400
     16 C3B         5.1790    1.6830    0.3700 c3        1 EPY     -0.146400
     17 O2B         3.5480    0.4710    1.6780 o         1 EPY     -0.645100
     18 N1B         3.3160    0.3560   -0.6010 n         1 EPY     -0.549900
     19 C1C        -1.2680   -0.7950    0.2420 c3        1 EPY     -0.067600
     20 C3C        -0.9110   -1.3650    1.6060 c3        1 EPY      0.143400
     21 O2C        -0.9400   -0.4030    2.6420 oh        1 EPY     -0.619800
     22 C2C        -2.6630   -0.2020    0.2360 c3        1 EPY      0.143400
     23 O3C        -3.5730   -1.3240    0.2990 os        1 EPY     -0.295900
     24 C4C        -4.9020   -1.0320    0.2790 ca        1 EPY      0.208100
     25 C9C        -5.7580   -2.1610    0.2710 ca        1 EPY     -0.206500
     26 C8C        -7.1290   -1.9850    0.2720 ca        1 EPY     -0.030500
     27 C7C        -7.6670   -0.6810    0.2810 ca        1 EPY     -0.244200
     28 C6C        -6.8200    0.4410    0.2770 ca        1 EPY     -0.030500
     29 C5C        -5.4430    0.2660    0.2760 ca        1 EPY     -0.206500
     30 N8C        -9.1300   -0.4950    0.2920 no        1 EPY      0.322200
     31 O8C        -9.8510   -1.4610    0.3040 o         1 EPY     -0.236500
     32 O9C        -9.5860    0.6210    0.2930 o         1 EPY     -0.236500
     33 H3A1        2.0330   -0.8350    0.5210 h1        1 EPY      0.102700
     34 HNA4        1.3000   -2.9230   -0.1740 hn        1 EPY      0.279500
     35 H1A1        1.2080    0.5250   -2.0990 h1        1 EPY      0.115700
     36 H1A2        0.5200   -1.1270   -1.7900 h1        1 EPY      0.115700
     37 H5A1        2.3850   -4.1010   -2.6240 h1        1 EPY      0.054200
     38 H5A2        1.9490   -5.1620   -1.2070 h1        1 EPY      0.054200
     39 H5B1        6.8750    3.3550   -0.8830 h1        1 EPY      0.040700
     40 HN51        7.2530    5.0760    0.8340 hn        1 EPY      0.331300
     41 HN52        5.9370    4.5480    1.5980 hn        1 EPY      0.331300
     42 H4B1        4.0620    3.5390    0.4230 hc        1 EPY      0.056200
     43 H4B2        4.4200    2.9340   -1.2450 hc        1 EPY      0.056200
     44 H3B1        5.9250    1.1640   -0.2880 hc        1 EPY      0.066200
     45 H3B2        5.6430    1.8030    1.3850 hc        1 EPY      0.066200
     46 HNB1        3.7420    0.5230   -1.4840 hn        1 EPY      0.324500
     47 H1C1       -1.2060   -1.6380   -0.5120 h1        1 EPY      0.175700
     48 H3C1       -1.6790   -2.1300    1.9050 h1        1 EPY      0.055200
     49 H3C2        0.1030   -1.8470    1.5560 h1        1 EPY      0.055200
     50 HOC2       -0.2860    0.2740    2.4120 ho        1 EPY      0.419000
     51 H2C1       -2.8270    0.4450    1.1390 h1        1 EPY      0.059200
     52 H2C2       -2.8570    0.3690   -0.7100 h1        1 EPY      0.059200
     53 H9C1       -5.3100   -3.1670    0.2550 ha        1 EPY      0.165500
     54 H8C1       -7.8010   -2.8590    0.2640 ha        1 EPY      0.160500
     55 H6C1       -7.2480    1.4580    0.2760 ha        1 EPY      0.160500
     56 H5C1       -4.7850    1.1480    0.2710 ha        1 EPY      0.165500
     57 C2B         3.9610    0.7950    0.5430 c         1 EPY      0.663100
     58 O6B         5.2210    4.9540   -2.3370 o         1 EPY     -0.845300
@<TRIPOS>BOND
     1    1    5 1   
     2    1   19 1   
     3    2    3 1   
     4    2    5 1   
     5    2   18 1   
     6    2   33 1   
     7    3    4 1   
     8    3    9 2   
     9    4    6 1   
    10    4   34 1   
    11    5   35 1   
    12    5   36 1   
    13    6    7 1   
    14    6   37 1   
    15    6   38 1   
    16    7    8 1   
    17    7   10 1   
    18   11   12 1   
    19   11   13 1   
    20   11   58 1   
    21   13   14 1   
    22   13   15 1   
    23   13   39 1   
    24   14   40 1   
    25   14   41 1   
    26   15   16 1   
    27   15   42 1   
    28   15   43 1   
    29   16   44 1   
    30   16   45 1   
    31   16   57 1   
    32   17   57 2   
    33   18   46 1   
    34   18   57 1   
    35   19   20 1   
    36   19   22 1   
    37   19   47 1   
    38   20   21 1   
    39   20   48 1   
    40   20   49 1   
    41   21   50 1   
    42   22   23 1   
    43   22   51 1   
    44   22   52 1   
    45   23   24 1   
    46   24   25 ar  
    47   24   29 ar  
    48   25   26 ar  
    49   25   53 1   
    50   26   27 ar  
    51   26   54 1   
    52   27   28 ar  
    53   27   30 1   
    54   28   29 ar  
    55   28   55 1   
    56   29   56 1   
    57   30   31 1   
    58   30   32 1   
@<TRIPOS>SUBSTRUCTURE
     1 EPY         1 TEMP              0 ****  ****    0 ROOT
