@<TRIPOS>MOLECULE
EPY
   61    57     1     0     0
SMALL
bcc


@<TRIPOS>ATOM
      1 S          -0.2080   -3.5060    1.1850 s4        1 EPY      1.562000
      2 C2A        -1.0930   -1.0640    0.6480 c3        1 EPY      0.093000
      3 C3A        -1.2390    0.3410    1.2530 c2        1 EPY      0.323000
      4 N4A        -0.1100    0.9890    1.6910 n         1 EPY     -0.356000
      5 C1A        -0.4100   -1.9910    1.5210 c2        1 EPY     -1.148000
      6 C5A        -0.1710    2.2390    2.3810 c3        1 EPY     -0.017000
      7 C6A        -0.5050    3.4240    1.4920 c2        1 EPY      0.321000
      8 O6A        -1.0380    3.4390    0.3770 o         1 EPY     -0.415000
      9 O3A        -2.3670    0.8840    1.3000 o         1 EPY     -0.432000
     10 O7A        -0.1750    4.6100    2.0720 os        1 EPY     -0.306000
     11 C6B        -4.3780    5.3700    1.4470 c1        1 EPY      0.465000
     12 O7B        -4.4130    4.5460    0.5810 o         1 EPY     -0.232000
     13 C5B        -4.4180   -2.8840   -3.7870 c1        1 EPY     -0.220500
     14 N5B        -3.3090    2.3760   -0.8360 n4        1 EPY     -0.077000
     15 C4B        -5.1990   -2.5040   -4.6090 c1        1 EPY     -0.220500
     16 C3B        -0.6420   -0.2830   -4.1690 c3        1 EPY     -0.276000
     17 O2B        -2.1270    0.5750   -2.4860 o         1 EPY     -0.510000
     18 N1B        -0.3610   -0.9600   -0.7080 n4        1 EPY     -0.053000
     19 C1C        -1.0790   -4.5520    1.9120 c2        1 EPY     -1.032000
     20 C3C        -0.5650    5.8240    1.4230 c3        1 EPY      0.114000
     21 O2C        -1.9080    5.9870    1.7630 oh        1 EPY     -0.361000
     22 C2C        -1.4210   -5.6860    1.0400 c3        1 EPY      0.072000
     23 O3C        -1.5650   -5.1170   -0.3590 os        1 EPY     -0.129000
     24 C4C        -1.0240   -3.9160   -0.4340 c2        1 EPY     -0.108000
     25 C9C         4.6910    2.2120   -3.6560 c2        1 EPY     -0.094000
     26 C8C         4.2760    1.7420   -2.5220 c1        1 EPY     -0.073000
     27 C7C         3.8970    1.2690   -1.3610 c2        1 EPY     -0.153000
     28 C6C        -0.8850   -1.8220   -1.7380 c1        1 EPY     -0.182000
     29 C5C        -1.1390   -3.1540   -1.6140 c2        1 EPY     -0.311000
     30 N8C         2.5420    0.7610   -1.1000 no        1 EPY      0.557000
     31 O8C         2.3010    0.3000   -0.0070 o         1 EPY     -0.394500
     32 O9C         1.6800    0.7870   -1.9400 o         1 EPY     -0.394500
     33 H3A1       -0.4330   -0.0080   -1.0940 hn        1 EPY      0.241000
     34 HNA4       -3.0690    2.6070    0.1390 hn        1 EPY      0.264500
     35 H1A1       -2.1420   -1.4010    0.3760 hx        1 EPY      0.130000
     36 H1A2        0.0050   -1.5940    2.4530 h4        1 EPY      0.173000
     37 H5A1        0.8170    2.4400    2.8870 h1        1 EPY      0.144500
     38 H5A2       -0.9860    2.2130    3.1680 h1        1 EPY      0.144500
     39 H5B1       -5.8930   -2.1740   -5.3410 ha        1 EPY      0.221500
     40 HN51       -4.1240    2.9120   -1.1250 hn        1 EPY      0.264500
     41 HN52       -3.7320   -3.2390   -3.0580 ha        1 EPY      0.221500
     42 H4B1       -0.2310   -1.3080   -4.3300 hc        1 EPY      0.106000
     43 H4B2       -3.4860    1.3680   -0.9070 hn        1 EPY      0.264500
     44 H3B1       -0.9480    0.1420   -5.1590 hc        1 EPY      0.106000
     45 H3B2       -2.5490   -1.1840   -3.4590 h4        1 EPY      0.104000
     46 HNB1        0.6360   -1.1510   -0.5420 hn        1 EPY      0.241000
     47 H1C1       -1.5880   -4.5080    2.8740 h4        1 EPY      0.187000
     48 H3C1       -0.5140    5.7470    0.3050 h2        1 EPY      0.132500
     49 H3C2        0.1190    6.6000    1.8600 h2        1 EPY      0.132500
     50 HOC2       -1.9690    6.2750    2.6850 ho        1 EPY      0.236000
     51 H2C1       -0.6310   -6.4680    0.9180 h1        1 EPY      0.117500
     52 H2C2       -2.4190   -6.1440    1.2440 h1        1 EPY      0.117500
     53 H9C1        4.6220    3.2830   -3.9120 ha        1 EPY      0.175500
     54 H8C1        5.1500    1.5670   -4.4260 ha        1 EPY      0.175500
     55 H6C1        4.5450    1.1880   -0.4670 h4        1 EPY      0.210000
     56 H5C1       -1.5290   -3.6580   -2.5190 ha        1 EPY      0.167000
     57 C2B        -1.8370   -0.3460   -3.2820 c2        1 EPY      0.301000
     58 H4A2        0.7690    0.5190    1.6410 hn        1 EPY      0.272000
     59 H5B3       -2.5030    2.5970   -1.4300 hn        1 EPY      0.264500
     60 H1B2        0.1560    0.3640   -3.7300 hc        1 EPY      0.106000
     61 O6B        -4.3480    6.1730    2.3170 o         1 EPY     -0.232000
@<TRIPOS>BOND
     1    1    5 1   
     2    1   19 1   
     3    1   24 1   
     4    2    3 1   
     5    2    5 1   
     6    2   18 1   
     7    2   35 1   
     8    3    4 1   
     9    3    9 1   
    10    4    6 1   
    11    4   58 1   
    12    5   36 1   
    13    6    7 1   
    14    6   37 1   
    15    6   38 1   
    16    7    8 1   
    17    7   10 1   
    18   10   20 1   
    19   11   12 1   
    20   11   61 1   
    21   13   15 1   
    22   13   41 1   
    23   14   34 1   
    24   14   40 1   
    25   14   43 1   
    26   14   59 1   
    27   15   39 1   
    28   16   42 1   
    29   16   44 1   
    30   16   57 1   
    31   16   60 1   
    32   17   57 1   
    33   18   28 1   
    34   18   33 1   
    35   18   46 1   
    36   19   22 1   
    37   19   47 1   
    38   20   21 1   
    39   20   48 1   
    40   20   49 1   
    41   21   50 1   
    42   22   23 1   
    43   22   51 1   
    44   22   52 1   
    45   23   24 1   
    46   24   29 1   
    47   25   26 1   
    48   25   53 1   
    49   25   54 1   
    50   26   27 1   
    51   27   30 1   
    52   27   55 1   
    53   28   29 1   
    54   29   56 1   
    55   30   31 1   
    56   30   32 1   
    57   45   57 1   
@<TRIPOS>SUBSTRUCTURE
     1 EPY         1 TEMP              0 ****  ****    0 ROOT
