@<TRIPOS>MOLECULE
EQH
   44    47     1     0     0
SMALL
bcc


@<TRIPOS>ATOM
      1 N01         0.2740    1.2060   -0.1670 nh        1 EQH     -0.914500
      2 C02         1.5970    0.7500   -0.0790 ca        1 EQH      0.493900
      3 N03         2.3130    1.0120    1.0600 nb        1 EQH     -0.706000
      4 C04         3.5430    0.4820    1.1440 ca        1 EQH      0.294900
      5 C05         4.1110   -0.3200    0.1180 ca        1 EQH      0.342500
      6 C06         5.4620   -0.8250    0.2580 cc        1 EQH     -0.139600
      7 S07         6.2200   -0.8860    1.7740 ss        1 EQH     -0.052800
      8 C08         7.6450   -1.5050    1.1580 cc        1 EQH     -0.168100
      9 C09         7.5790   -1.6820   -0.2020 cd        1 EQH     -0.153000
     10 C10         6.3040   -1.2900   -0.7430 cd        1 EQH     -0.017300
     11 C11         5.9790   -1.4260   -2.1590 cx        1 EQH     -0.082400
     12 C12         5.9350   -0.2300   -3.0790 cx        1 EQH     -0.121900
     13 C13         7.0350   -1.2380   -3.2190 cx        1 EQH     -0.121900
     14 N14         3.4030   -0.5880   -1.0140 nb        1 EQH     -0.585000
     15 C15         2.1760   -0.0620   -1.1450 ca        1 EQH      0.307300
     16 C16         1.4190   -0.2710   -2.4340 c3        1 EQH     -0.104000
     17 C17         1.5610    0.9710   -3.3130 c3        1 EQH     -0.076900
     18 C18         0.7280    0.8320   -4.5700 c3        1 EQH     -0.046400
     19 C19         1.0930   -0.4090   -5.3640 c3        1 EQH     -0.187700
     20 C20         2.4610   -0.2540   -6.0790 c         1 EQH      0.916600
     21 O21         2.4700   -0.4070   -7.3320 o         1 EQH     -0.847300
     22 O22         3.4960    0.0160   -5.4010 o         1 EQH     -0.847300
     23 C23         1.0660   -1.6470   -4.4860 c3        1 EQH     -0.046400
     24 C24         1.9000   -1.4790   -3.2320 c3        1 EQH     -0.076900
     25 H011        0.0300    1.9290    0.4750 hn        1 EQH      0.400800
     26 H012       -0.0150    1.3930   -1.1030 hn        1 EQH      0.400800
     27 H04         4.1050    0.7150    2.0650 h4        1 EQH      0.019100
     28 H08         8.5030   -1.7300    1.7870 h4        1 EQH      0.159000
     29 H121        6.1780    0.7660   -2.6700 hc        1 EQH      0.081200
     30 H122        5.1300   -0.1830   -3.8460 hc        1 EQH      0.081200
     31 H131        8.0590   -0.9630   -2.9100 hc        1 EQH      0.081200
     32 H132        7.0320   -1.9150   -4.0910 hc        1 EQH      0.081200
     33 H16         0.3340   -0.4440   -2.1840 hc        1 EQH      0.039700
     34 H171        1.2560    1.8900   -2.7510 hc        1 EQH      0.056450
     35 H172        2.6410    1.0750   -3.6180 hc        1 EQH      0.056450
     36 H241        2.9710   -1.3220   -3.5430 hc        1 EQH      0.056450
     37 H242        1.8370   -2.4010   -2.6000 hc        1 EQH      0.056450
     38 H181        0.8860    1.7360   -5.2140 hc        1 EQH      0.017200
     39 H182       -0.3610    0.7940   -4.2960 hc        1 EQH      0.017200
     40 H19         0.3230   -0.5410   -6.1760 hc        1 EQH      0.039700
     41 H231        0.0040   -1.8800   -4.2020 hc        1 EQH      0.017200
     42 H232        1.4600   -2.5180   -5.0720 hc        1 EQH      0.017200
     43 H11         5.2090   -2.2110   -2.3300 hc        1 EQH      0.105700
     44 H09         8.3800   -2.0740   -0.8320 ha        1 EQH      0.153000
@<TRIPOS>BOND
     1    1    2 1   
     2    1   25 1   
     3    1   26 1   
     4    2    3 ar  
     5    2   15 ar  
     6    3    4 ar  
     7    4    5 ar  
     8    4   27 1   
     9    5    6 1   
    10    5   14 ar  
    11    6    7 1   
    12    6   10 2   
    13    7    8 1   
    14    8    9 2   
    15    8   28 1   
    16    9   10 1   
    17    9   44 1   
    18   10   11 1   
    19   11   12 1   
    20   11   13 1   
    21   11   43 1   
    22   12   13 1   
    23   12   29 1   
    24   12   30 1   
    25   13   31 1   
    26   13   32 1   
    27   14   15 ar  
    28   15   16 1   
    29   16   17 1   
    30   16   24 1   
    31   16   33 1   
    32   17   18 1   
    33   17   34 1   
    34   17   35 1   
    35   18   19 1   
    36   18   38 1   
    37   18   39 1   
    38   19   20 1   
    39   19   23 1   
    40   19   40 1   
    41   20   21 1   
    42   20   22 1   
    43   23   24 1   
    44   23   41 1   
    45   23   42 1   
    46   24   36 1   
    47   24   37 1   
@<TRIPOS>SUBSTRUCTURE
     1 EQH         1 TEMP              0 ****  ****    0 ROOT
