@<TRIPOS>MOLECULE
EQH
   44    47     1     0     0
SMALL
bcc


@<TRIPOS>ATOM
      1 N01        -1.2650    3.8680   -0.6150 nh        1 EQH     -0.914500
      2 C02        -0.2380    2.9450   -0.3740 ca        1 EQH      0.493900
      3 N03         1.0550    3.3090   -0.6400 nb        1 EQH     -0.706000
      4 C04         2.0170    2.4330   -0.3110 ca        1 EQH      0.294900
      5 C05         1.7450    1.1750    0.2890 ca        1 EQH      0.342500
      6 C06         2.8300    0.2610    0.5790 cc        1 EQH     -0.139600
      7 S07         4.4350    0.8060    0.6580 ss        1 EQH     -0.052800
      8 C08         5.0510   -0.7150    0.9780 cc        1 EQH     -0.168100
      9 C09         4.0610   -1.6640    1.0370 cd        1 EQH     -0.153000
     10 C10         2.7540   -1.1060    0.8070 cd        1 EQH     -0.017300
     11 C11         1.5380   -1.9110    0.8620 cx        1 EQH     -0.082400
     12 C12         0.8020   -2.3180   -0.3920 cx        1 EQH     -0.121900
     13 C13         1.5390   -3.3500    0.4080 cx        1 EQH     -0.121900
     14 N14         0.4620    0.8090    0.5610 nb        1 EQH     -0.585000
     15 C15        -0.5300    1.6490    0.2310 ca        1 EQH      0.307300
     16 C16        -1.9620    1.2160    0.4390 c3        1 EQH     -0.104000
     17 C17        -2.5390    0.7200   -0.8850 c3        1 EQH     -0.076900
     18 C18        -4.0060    0.3730   -0.7310 c3        1 EQH     -0.046400
     19 C19        -4.2380   -0.6610    0.3550 c3        1 EQH     -0.187700
     20 C20        -3.7720   -2.0730   -0.0860 c         1 EQH      0.916600
     21 O21        -2.5740   -2.2520   -0.4560 o         1 EQH     -0.847300
     22 O22        -4.6350   -2.9940   -0.0520 o         1 EQH     -0.847300
     23 C23        -3.5790   -0.2430    1.6570 c3        1 EQH     -0.046400
     24 C24        -2.1160    0.1050    1.4740 c3        1 EQH     -0.076900
     25 H011       -1.0260    4.6190   -1.2260 hn        1 EQH      0.400800
     26 H012       -2.1370    3.4360   -0.8400 hn        1 EQH      0.400800
     27 H04         3.0510    2.7440   -0.5450 h4        1 EQH      0.019100
     28 H08         6.1140   -0.8960    1.1190 h4        1 EQH      0.159000
     29 H121       -0.3120   -2.3030   -0.3790 hc        1 EQH      0.081200
     30 H122        1.2100   -2.0160   -1.3710 hc        1 EQH      0.081200
     31 H131        2.4700   -3.7810    0.0010 hc        1 EQH      0.081200
     32 H132        0.9600   -4.0870    0.9920 hc        1 EQH      0.081200
     33 H16        -2.5510    2.1030    0.8080 hc        1 EQH      0.039700
     34 H171       -2.4100    1.4910   -1.6870 hc        1 EQH      0.056450
     35 H172       -1.9890   -0.2160   -1.1910 hc        1 EQH      0.056450
     36 H241       -1.5790   -0.8190    1.1180 hc        1 EQH      0.056450
     37 H242       -1.6710    0.4300    2.4480 hc        1 EQH      0.056450
     38 H181       -4.5870    1.3040   -0.4920 hc        1 EQH      0.017200
     39 H182       -4.3890   -0.0280   -1.7050 hc        1 EQH      0.017200
     40 H19        -5.3480   -0.7340    0.5340 hc        1 EQH      0.039700
     41 H231       -4.1250    0.6410    2.0850 hc        1 EQH      0.017200
     42 H232       -3.6640   -1.0830    2.3940 hc        1 EQH      0.017200
     43 H11         0.9090   -1.6470    1.7420 hc        1 EQH      0.105700
     44 H09         4.2100   -2.7280    1.2340 ha        1 EQH      0.153000
@<TRIPOS>BOND
     1    1    2 1   
     2    1   25 1   
     3    1   26 1   
     4    2    3 ar  
     5    2   15 ar  
     6    3    4 ar  
     7    4    5 ar  
     8    4   27 1   
     9    5    6 1   
    10    5   14 ar  
    11    6    7 1   
    12    6   10 2   
    13    7    8 1   
    14    8    9 2   
    15    8   28 1   
    16    9   10 1   
    17    9   44 1   
    18   10   11 1   
    19   11   12 1   
    20   11   13 1   
    21   11   43 1   
    22   12   13 1   
    23   12   29 1   
    24   12   30 1   
    25   13   31 1   
    26   13   32 1   
    27   14   15 ar  
    28   15   16 1   
    29   16   17 1   
    30   16   24 1   
    31   16   33 1   
    32   17   18 1   
    33   17   34 1   
    34   17   35 1   
    35   18   19 1   
    36   18   38 1   
    37   18   39 1   
    38   19   20 1   
    39   19   23 1   
    40   19   40 1   
    41   20   21 1   
    42   20   22 1   
    43   23   24 1   
    44   23   41 1   
    45   23   42 1   
    46   24   36 1   
    47   24   37 1   
@<TRIPOS>SUBSTRUCTURE
     1 EQH         1 TEMP              0 ****  ****    0 ROOT
