@<TRIPOS>MOLECULE
EQH
   45    48     1     0     0
SMALL
bcc


@<TRIPOS>ATOM
      1 N01         0.1670    1.1380   -0.1130 n4        1 EQH     -0.793300
      2 C02         1.5220    0.5800   -0.0160 ca        1 EQH      0.208900
      3 N03         2.2120    0.8100    1.1480 nb        1 EQH     -0.611000
      4 C04         3.4570    0.3540    1.1930 ca        1 EQH      0.268900
      5 C05         4.0690   -0.3490    0.0810 ca        1 EQH      0.511500
      6 C06         5.4460   -0.7380    0.1640 cc        1 EQH     -0.257600
      7 S07         6.2970   -0.6840    1.6320 ss        1 EQH     -0.003800
      8 C08         7.7190   -1.2090    0.9510 cc        1 EQH     -0.113100
      9 C09         7.5970   -1.4380   -0.4010 cd        1 EQH     -0.173000
     10 C10         6.2710   -1.1690   -0.8830 cd        1 EQH      0.080700
     11 C11         5.8890   -1.3610   -2.2750 cx        1 EQH     -0.132400
     12 C12         5.8810   -0.2100   -3.2600 cx        1 EQH     -0.105400
     13 C13         6.9140   -1.2830   -3.3820 cx        1 EQH     -0.105400
     14 N14         3.3450   -0.6100   -1.0340 nb        1 EQH     -0.611000
     15 C15         2.0760   -0.1500   -1.1170 ca        1 EQH      0.438300
     16 C16         1.2960   -0.3420   -2.3980 c3        1 EQH     -0.123000
     17 C17         1.4850    0.9180   -3.2420 c3        1 EQH     -0.075900
     18 C18         0.8590    0.7850   -4.6160 c3        1 EQH     -0.052400
     19 C19         1.3990   -0.4420   -5.3260 c3        1 EQH     -0.194700
     20 C20         2.9360   -0.3520   -5.5360 c         1 EQH      0.909600
     21 O21         3.5490   -1.4080   -5.8480 o         1 EQH     -0.836800
     22 O22         3.5100    0.7620   -5.3460 o         1 EQH     -0.836800
     23 C23         1.0660   -1.6790   -4.5120 c3        1 EQH     -0.052400
     24 C24         1.7300   -1.5960   -3.1530 c3        1 EQH     -0.075900
     25 H011        0.0800    1.6010   -1.0290 hn        1 EQH      0.462467
     26 H012       -0.5110    0.3720   -0.0540 hn        1 EQH      0.462467
     27 H04         4.0220    0.5430    2.1240 h4        1 EQH      0.055100
     28 H08         8.6310   -1.3520    1.5320 h4        1 EQH      0.180000
     29 H121        5.0590   -0.1560   -4.0150 hc        1 EQH      0.091700
     30 H122        6.1890    0.7910   -2.9100 hc        1 EQH      0.091700
     31 H131        7.9640   -1.0530   -3.1290 hc        1 EQH      0.091700
     32 H132        6.8350   -2.0050   -4.2160 hc        1 EQH      0.091700
     33 H16         0.2050   -0.4700   -2.1450 hc        1 EQH      0.011700
     34 H171        2.5890    1.1020   -3.4000 hc        1 EQH      0.058950
     35 H172        1.0500    1.8050   -2.7090 hc        1 EQH      0.058950
     36 H241        2.8430   -1.5810   -3.3320 hc        1 EQH      0.058950
     37 H242        1.4820   -2.4970   -2.5370 hc        1 EQH      0.058950
     38 H181       -0.2570    0.7260   -4.5290 hc        1 EQH      0.037450
     39 H182        1.1260    1.6970   -5.2130 hc        1 EQH      0.037450
     40 H19         0.9290   -0.5210   -6.3410 hc        1 EQH      0.056700
     41 H231        1.4640   -2.5810   -5.0500 hc        1 EQH      0.037450
     42 H232       -0.0430   -1.7900   -4.4000 hc        1 EQH      0.037450
     43 H11         5.0780   -2.1160   -2.3870 hc        1 EQH      0.116700
     44 H09         8.3970   -1.7910   -1.0580 ha        1 EQH      0.175000
     45 H013       -0.0100    1.8130    0.6380 hn        1 EQH      0.462467
@<TRIPOS>BOND
     1    1    2 1   
     2    1   25 1   
     3    1   26 1   
     4    1   45 1   
     5    2    3 ar  
     6    2   15 ar  
     7    3    4 ar  
     8    4    5 ar  
     9    4   27 1   
    10    5    6 1   
    11    5   14 ar  
    12    6    7 1   
    13    6   10 2   
    14    7    8 1   
    15    8    9 2   
    16    8   28 1   
    17    9   10 1   
    18    9   44 1   
    19   10   11 1   
    20   11   12 1   
    21   11   13 1   
    22   11   43 1   
    23   12   13 1   
    24   12   29 1   
    25   12   30 1   
    26   13   31 1   
    27   13   32 1   
    28   14   15 ar  
    29   15   16 1   
    30   16   17 1   
    31   16   24 1   
    32   16   33 1   
    33   17   18 1   
    34   17   34 1   
    35   17   35 1   
    36   18   19 1   
    37   18   38 1   
    38   18   39 1   
    39   19   20 1   
    40   19   23 1   
    41   19   40 1   
    42   20   21 1   
    43   20   22 1   
    44   23   24 1   
    45   23   41 1   
    46   23   42 1   
    47   24   36 1   
    48   24   37 1   
@<TRIPOS>SUBSTRUCTURE
     1 EQH         1 TEMP              0 ****  ****    0 ROOT
