@<TRIPOS>MOLECULE
EQH
   44    47     1     0     0
SMALL
bcc


@<TRIPOS>ATOM
      1 N01         0.2630    1.1950   -0.1760 nv        1 EQH     -0.914500
      2 C02         1.5870    0.7450   -0.0840 ca        1 EQH      0.493900
      3 N03         2.2980    1.0090    1.0560 nb        1 EQH     -0.706000
      4 C04         3.5300    0.4850    1.1440 ca        1 EQH      0.294900
      5 C05         4.1050   -0.3150    0.1200 ca        1 EQH      0.342500
      6 C06         5.4570   -0.8150    0.2640 cc        1 EQH     -0.139600
      7 S07         6.2110   -0.8720    1.7820 ss        1 EQH     -0.052800
      8 C08         7.6400   -1.4860    1.1700 cc        1 EQH     -0.168100
      9 C09         7.5780   -1.6650   -0.1900 cd        1 EQH     -0.153000
     10 C10         6.3030   -1.2780   -0.7340 cd        1 EQH     -0.017300
     11 C11         5.9820   -1.4160   -2.1510 cx        1 EQH     -0.082400
     12 C12         5.9370   -0.2210   -3.0720 cx        1 EQH     -0.121900
     13 C13         7.0410   -1.2250   -3.2090 cx        1 EQH     -0.121900
     14 N14         3.4010   -0.5870   -1.0140 nb        1 EQH     -0.585000
     15 C15         2.1720   -0.0660   -1.1480 ca        1 EQH      0.307300
     16 C16         1.4180   -0.2780   -2.4390 c3        1 EQH     -0.104000
     17 C17         1.5580    0.9630   -3.3180 c3        1 EQH     -0.076900
     18 C18         0.7290    0.8200   -4.5780 c3        1 EQH     -0.046400
     19 C19         1.1010   -0.4200   -5.3700 c3        1 EQH     -0.187700
     20 C20         2.4700   -0.2590   -6.0810 c         1 EQH      0.916600
     21 O21         2.4830   -0.4140   -7.3340 o         1 EQH     -0.847300
     22 O22         3.5020    0.0150   -5.4010 o         1 EQH     -0.847300
     23 C23         1.0770   -1.6570   -4.4910 c3        1 EQH     -0.046400
     24 C24         1.9070   -1.4850   -3.2350 c3        1 EQH     -0.076900
     25 H011       -0.0260    1.3810   -1.1130 hn        1 EQH      0.400800
     26 H012        0.0140    1.9170    0.4650 hn        1 EQH      0.400800
     27 H04         4.0890    0.7200    2.0670 h4        1 EQH      0.019100
     28 H08         8.4980   -1.7070    1.8020 h4        1 EQH      0.159000
     29 H121        5.1330   -0.1780   -3.8420 hc        1 EQH      0.081200
     30 H122        6.1750    0.7760   -2.6640 hc        1 EQH      0.081200
     31 H131        8.0630   -0.9470   -2.8980 hc        1 EQH      0.081200
     32 H132        7.0420   -1.9030   -4.0800 hc        1 EQH      0.081200
     33 H16         0.3340   -0.4560   -2.1920 hc        1 EQH      0.039700
     34 H171        2.6390    1.0720   -3.6210 hc        1 EQH      0.056450
     35 H172        1.2480    1.8820   -2.7580 hc        1 EQH      0.056450
     36 H241        2.9780   -1.3250   -3.5430 hc        1 EQH      0.056450
     37 H242        1.8460   -2.4070   -2.6030 hc        1 EQH      0.056450
     38 H181       -0.3600    0.7780   -4.3060 hc        1 EQH      0.017200
     39 H182        0.8850    1.7250   -5.2210 hc        1 EQH      0.017200
     40 H19         0.3340   -0.5550   -6.1840 hc        1 EQH      0.039700
     41 H231        0.0150   -1.8950   -4.2100 hc        1 EQH      0.017200
     42 H232        1.4750   -2.5270   -5.0750 hc        1 EQH      0.017200
     43 H11         5.2150   -2.2040   -2.3240 hc        1 EQH      0.105700
     44 H09         8.3830   -2.0540   -0.8170 ha        1 EQH      0.153000
@<TRIPOS>BOND
     1    1    2 1   
     2    1   25 1   
     3    1   26 1   
     4    2    3 ar  
     5    2   15 ar  
     6    3    4 ar  
     7    4    5 ar  
     8    4   27 1   
     9    5    6 1   
    10    5   14 ar  
    11    6    7 1   
    12    6   10 2   
    13    7    8 1   
    14    8    9 2   
    15    8   28 1   
    16    9   10 1   
    17    9   44 1   
    18   10   11 1   
    19   11   12 1   
    20   11   13 1   
    21   11   43 1   
    22   12   13 1   
    23   12   29 1   
    24   12   30 1   
    25   13   31 1   
    26   13   32 1   
    27   14   15 ar  
    28   15   16 1   
    29   16   17 1   
    30   16   24 1   
    31   16   33 1   
    32   17   18 1   
    33   17   34 1   
    34   17   35 1   
    35   18   19 1   
    36   18   38 1   
    37   18   39 1   
    38   19   20 1   
    39   19   23 1   
    40   19   40 1   
    41   20   21 1   
    42   20   22 1   
    43   23   24 1   
    44   23   41 1   
    45   23   42 1   
    46   24   36 1   
    47   24   37 1   
@<TRIPOS>SUBSTRUCTURE
     1 EQH         1 TEMP              0 ****  ****    0 ROOT
