@<TRIPOS>MOLECULE
EQI
   40    43     1     0     0
SMALL
bcc


@<TRIPOS>ATOM
      1 C1         -0.0980    0.3060    0.0390 ca        1 EQI      0.126100
      2 C2          1.2880    0.1380   -0.0230 ca        1 EQI     -0.218000
      3 C3          2.0310    0.0230    1.1590 ca        1 EQI     -0.028300
      4 C4          1.3840    0.0650    2.4010 ca        1 EQI     -0.101300
      5 C5         -0.0080    0.2520    2.4410 ca        1 EQI     -0.095000
      6 C6         -0.7570    0.3700    1.2790 ca        1 EQI     -0.156000
      7 C10         3.5070   -0.1260    1.0340 c3        1 EQI     -0.002900
      8 C11         4.2220   -0.2290    2.3250 c2        1 EQI     -0.165200
      9 C12         3.6140   -0.2110    3.5150 c2        1 EQI     -0.091400
     10 C13         2.1300   -0.0440    3.6930 c3        1 EQI      0.024800
     11 C16         4.3010   -0.3360    4.8230 c3        1 EQI     -0.031500
     12 C17         3.7920   -1.6030    5.5580 c3        1 EQI     -0.149000
     13 C18         2.3190   -1.4000    5.8560 c3        1 EQI     -0.058400
     14 C19         1.5450   -1.1590    4.5700 c3        1 EQI     -0.070400
     15 C24         5.8200   -0.4210    4.9370 c3        1 EQI     -0.071400
     16 C25         6.0540   -1.0280    6.3240 c3        1 EQI     -0.189400
     17 C26         4.7450   -1.6700    6.7440 c         1 EQI      0.577100
     18 C27         4.0050   -2.8770    4.7500 c3        1 EQI     -0.082100
     19 O1         -0.8860    0.4220   -1.0830 oh        1 EQI     -0.497100
     20 O26         4.5140   -2.1610    7.8450 o         1 EQI     -0.518100
     21 H2          1.7990    0.0990   -0.9960 ha        1 EQI      0.133000
     22 H5         -0.5190    0.3130    3.4140 ha        1 EQI      0.135000
     23 H6         -1.8460    0.5130    1.3100 ha        1 EQI      0.151000
     24 H10         3.7320   -1.0440    0.4210 hc        1 EQI      0.060700
     25 H102        3.9130    0.7560    0.4620 hc        1 EQI      0.060700
     26 H11         5.3160   -0.3280    2.2460 ha        1 EQI      0.126000
     27 H131        1.9800    0.9340    4.2460 hc        1 EQI      0.061700
     28 H16         3.9860    0.5620    5.4380 hc        1 EQI      0.058700
     29 H181        2.1940   -0.5260    6.5480 hc        1 EQI      0.052200
     30 H182        1.9070   -2.3030    6.3770 hc        1 EQI      0.052200
     31 H191        0.4890   -0.8910    4.8370 hc        1 EQI      0.048200
     32 H192        1.5080   -2.1080    3.9740 hc        1 EQI      0.048200
     33 H241        6.2930    0.5850    4.8460 hc        1 EQI      0.051200
     34 H242        6.2470   -1.0800    4.1410 hc        1 EQI      0.051200
     35 H251        6.3420   -0.2430    7.0670 hc        1 EQI      0.075200
     36 H252        6.8640   -1.7980    6.3030 hc        1 EQI      0.075200
     37 H271        3.5500   -2.7740    3.7350 hc        1 EQI      0.045367
     38 H272        5.0950   -3.0840    4.6250 hc        1 EQI      0.045367
     39 H273        3.5320   -3.7410    5.2750 hc        1 EQI      0.045367
     40 HO1        -0.3100    0.3640   -1.8590 ho        1 EQI      0.418000
@<TRIPOS>BOND
     1    1    2 ar  
     2    1    6 ar  
     3    1   19 1   
     4    2    3 ar  
     5    2   21 1   
     6    3    4 ar  
     7    3    7 1   
     8    4    5 ar  
     9    4   10 1   
    10    5    6 ar  
    11    5   22 1   
    12    6   23 1   
    13    7    8 1   
    14    7   24 1   
    15    7   25 1   
    16    8    9 2   
    17    8   26 1   
    18    9   10 1   
    19    9   11 1   
    20   10   14 1   
    21   10   27 1   
    22   11   12 1   
    23   11   15 1   
    24   11   28 1   
    25   12   13 1   
    26   12   17 1   
    27   12   18 1   
    28   13   14 1   
    29   13   29 1   
    30   13   30 1   
    31   14   31 1   
    32   14   32 1   
    33   15   16 1   
    34   15   33 1   
    35   15   34 1   
    36   16   17 1   
    37   16   35 1   
    38   16   36 1   
    39   17   20 2   
    40   18   37 1   
    41   18   38 1   
    42   18   39 1   
    43   19   40 1   
@<TRIPOS>SUBSTRUCTURE
     1 EQI         1 TEMP              0 ****  ****    0 ROOT
