@<TRIPOS>MOLECULE
EQI
   40    43     1     0     0
SMALL
bcc


@<TRIPOS>ATOM
      1 C1          0.2520    0.0620   -4.4810 ca        1 EQI      0.126100
      2 C2         -0.8650    0.3310   -3.6860 ca        1 EQI     -0.218000
      3 C3         -0.8100    0.1010   -2.3040 ca        1 EQI     -0.028300
      4 C4          0.3670   -0.3850   -1.7210 ca        1 EQI     -0.101300
      5 C5          1.4720   -0.6650   -2.5420 ca        1 EQI     -0.095000
      6 C6          1.4320   -0.4450   -3.9120 ca        1 EQI     -0.156000
      7 C10        -2.0380    0.3780   -1.5090 c3        1 EQI     -0.002900
      8 C11        -1.9040    0.1000   -0.0630 c2        1 EQI     -0.165200
      9 C12        -0.7810   -0.3450    0.5080 c2        1 EQI     -0.091400
     10 C13         0.4780   -0.6560   -0.2540 c3        1 EQI      0.024800
     11 C16        -0.6110   -0.6100    1.9570 c3        1 EQI     -0.031500
     12 C17         0.4990    0.3130    2.5260 c3        1 EQI     -0.149000
     13 C18         1.8040   -0.0710    1.8560 c3        1 EQI     -0.058400
     14 C19         1.6870    0.0710    0.3470 c3        1 EQI     -0.070400
     15 C24        -1.7610   -0.4680    2.9490 c3        1 EQI     -0.071400
     16 C25        -1.0660   -0.3330    4.3070 c3        1 EQI     -0.189400
     17 C26         0.3740    0.0510    4.0210 c         1 EQI      0.577100
     18 C27         0.2010    1.7920    2.3120 c3        1 EQI     -0.082100
     19 O1          0.2640    0.2680   -5.8420 oh        1 EQI     -0.497100
     20 O26         1.2670    0.1400    4.8590 o         1 EQI     -0.518100
     21 H2         -1.7890    0.7180   -4.1380 ha        1 EQI      0.133000
     22 H5          2.3910   -1.0730   -2.0940 ha        1 EQI      0.135000
     23 H6          2.2970   -0.6600   -4.5530 ha        1 EQI      0.151000
     24 H10        -2.8850   -0.2400   -1.9230 hc        1 EQI      0.060700
     25 H102       -2.3260    1.4590   -1.6460 hc        1 EQI      0.060700
     26 H11        -2.8100    0.2910    0.5350 ha        1 EQI      0.126000
     27 H131        0.6590   -1.7690   -0.1350 hc        1 EQI      0.061700
     28 H16        -0.2420   -1.6770    2.0470 hc        1 EQI      0.058700
     29 H181        2.6330    0.5840    2.2310 hc        1 EQI      0.052200
     30 H182        2.0640   -1.1290    2.1220 hc        1 EQI      0.052200
     31 H191        1.6280    1.1580    0.0790 hc        1 EQI      0.048200
     32 H192        2.6220   -0.3370   -0.1200 hc        1 EQI      0.048200
     33 H241       -2.3740    0.4410    2.7280 hc        1 EQI      0.051200
     34 H242       -2.4350   -1.3570    2.9210 hc        1 EQI      0.051200
     35 H251       -1.5490    0.4520    4.9390 hc        1 EQI      0.075200
     36 H252       -1.0920   -1.2980    4.8730 hc        1 EQI      0.075200
     37 H271        1.0730    2.4050    2.6460 hc        1 EQI      0.045367
     38 H272        0.0040    1.9960    1.2330 hc        1 EQI      0.045367
     39 H273       -0.7000    2.0990    2.8970 hc        1 EQI      0.045367
     40 HO1        -0.6030    0.6130   -6.0990 ho        1 EQI      0.418000
@<TRIPOS>BOND
     1    1    2 ar  
     2    1    6 ar  
     3    1   19 1   
     4    2    3 ar  
     5    2   21 1   
     6    3    4 ar  
     7    3    7 1   
     8    4    5 ar  
     9    4   10 1   
    10    5    6 ar  
    11    5   22 1   
    12    6   23 1   
    13    7    8 1   
    14    7   24 1   
    15    7   25 1   
    16    8    9 2   
    17    8   26 1   
    18    9   10 1   
    19    9   11 1   
    20   10   14 1   
    21   10   27 1   
    22   11   12 1   
    23   11   15 1   
    24   11   28 1   
    25   12   13 1   
    26   12   17 1   
    27   12   18 1   
    28   13   14 1   
    29   13   29 1   
    30   13   30 1   
    31   14   31 1   
    32   14   32 1   
    33   15   16 1   
    34   15   33 1   
    35   15   34 1   
    36   16   17 1   
    37   16   35 1   
    38   16   36 1   
    39   17   20 2   
    40   18   37 1   
    41   18   38 1   
    42   18   39 1   
    43   19   40 1   
@<TRIPOS>SUBSTRUCTURE
     1 EQI         1 TEMP              0 ****  ****    0 ROOT
