@<TRIPOS>MOLECULE
EQI
   40    43     1     0     0
SMALL
bcc


@<TRIPOS>ATOM
      1 C1         -0.1070    0.1300    0.0100 ca        1 EQI      0.126100
      2 C2          1.2790   -0.0360   -0.0480 ca        1 EQI     -0.218000
      3 C3          2.0230   -0.1070    1.1370 ca        1 EQI     -0.028300
      4 C4          1.3770   -0.0220    2.3770 ca        1 EQI     -0.101300
      5 C5         -0.0140    0.1630    2.4110 ca        1 EQI     -0.095000
      6 C6         -0.7650    0.2370    1.2470 ca        1 EQI     -0.156000
      7 C10         3.5000   -0.2570    1.0160 c3        1 EQI     -0.002900
      8 C11         4.2160   -0.3120    2.3090 c2        1 EQI     -0.165200
      9 C12         3.6090   -0.2530    3.4970 c2        1 EQI     -0.091400
     10 C13         2.1250   -0.0830    3.6720 c3        1 EQI      0.024800
     11 C16         4.2980   -0.3290    4.8090 c3        1 EQI     -0.031500
     12 C17         3.7920   -1.5710    5.5890 c3        1 EQI     -0.149000
     13 C18         2.3190   -1.3600    5.8820 c3        1 EQI     -0.058400
     14 C19         1.5440   -1.1660    4.5880 c3        1 EQI     -0.070400
     15 C24         5.8170   -0.4070    4.9240 c3        1 EQI     -0.071400
     16 C25         6.0540   -0.9630    6.3320 c3        1 EQI     -0.189400
     17 C26         4.7470   -1.5930    6.7750 c         1 EQI      0.577100
     18 C27         4.0070   -2.8720    4.8270 c3        1 EQI     -0.082100
     19 O1         -0.8970    0.2040   -1.1150 oh        1 EQI     -0.497100
     20 O26         4.5180   -2.0450    7.8940 o         1 EQI     -0.518100
     21 H2          1.7890   -0.1090   -1.0190 ha        1 EQI      0.133000
     22 H5         -0.5250    0.2580    3.3830 ha        1 EQI      0.135000
     23 H6         -1.8540    0.3790    1.2740 ha        1 EQI      0.151000
     24 H10         3.9030    0.6050    0.4110 hc        1 EQI      0.060700
     25 H102        3.7260   -1.1960    0.4350 hc        1 EQI      0.060700
     26 H11         5.3110   -0.4120    2.2320 ha        1 EQI      0.126000
     27 H131        1.9730    0.9140    4.1890 hc        1 EQI      0.061700
     28 H16         3.9810    0.5890    5.3920 hc        1 EQI      0.058700
     29 H181        1.9090   -2.2440    6.4350 hc        1 EQI      0.052200
     30 H182        2.1930   -0.4620    6.5420 hc        1 EQI      0.052200
     31 H191        1.5070   -2.1370    4.0270 hc        1 EQI      0.048200
     32 H192        0.4870   -0.8920    4.8470 hc        1 EQI      0.048200
     33 H241        6.2450   -1.0930    4.1520 hc        1 EQI      0.051200
     34 H242        6.2880    0.5960    4.7960 hc        1 EQI      0.051200
     35 H251        6.3410   -0.1510    7.0450 hc        1 EQI      0.075200
     36 H252        6.8660   -1.7320    6.3380 hc        1 EQI      0.075200
     37 H271        5.0980   -3.0810    4.7080 hc        1 EQI      0.045367
     38 H272        3.5360   -3.7180    5.3830 hc        1 EQI      0.045367
     39 H273        3.5510   -2.8060    3.8100 hc        1 EQI      0.045367
     40 HO1        -0.3220    0.1200   -1.8890 ho        1 EQI      0.418000
@<TRIPOS>BOND
     1    1    2 ar  
     2    1    6 ar  
     3    1   19 1   
     4    2    3 ar  
     5    2   21 1   
     6    3    4 ar  
     7    3    7 1   
     8    4    5 ar  
     9    4   10 1   
    10    5    6 ar  
    11    5   22 1   
    12    6   23 1   
    13    7    8 1   
    14    7   24 1   
    15    7   25 1   
    16    8    9 2   
    17    8   26 1   
    18    9   10 1   
    19    9   11 1   
    20   10   14 1   
    21   10   27 1   
    22   11   12 1   
    23   11   15 1   
    24   11   28 1   
    25   12   13 1   
    26   12   17 1   
    27   12   18 1   
    28   13   14 1   
    29   13   29 1   
    30   13   30 1   
    31   14   31 1   
    32   14   32 1   
    33   15   16 1   
    34   15   33 1   
    35   15   34 1   
    36   16   17 1   
    37   16   35 1   
    38   16   36 1   
    39   17   20 2   
    40   18   37 1   
    41   18   38 1   
    42   18   39 1   
    43   19   40 1   
@<TRIPOS>SUBSTRUCTURE
     1 EQI         1 TEMP              0 ****  ****    0 ROOT
