@<TRIPOS>MOLECULE
EQI
   40    39     1     0     0
SMALL
bcc


@<TRIPOS>ATOM
      1 C1         -2.2060    1.2010   -3.4400 c1        1 EQI      0.079000
      2 C2         -0.8060    1.2010   -3.4400 c1        1 EQI     -0.161000
      3 C3         -0.1120    1.2010   -2.2390 c1        1 EQI     -0.026000
      4 C4         -0.8240    1.2010   -1.0070 c1        1 EQI     -0.095000
      5 C5         -2.2160    1.2010   -1.0100 c1        1 EQI     -0.090000
      6 C6         -2.9120    1.2010   -2.2190 c1        1 EQI     -0.212000
      7 C10         1.6240    1.1820   -2.1860 c3        1 EQI     -0.094000
      8 C11         2.2060    0.9100   -0.6970 c2        1 EQI     -0.159000
      9 C12         1.2770    0.5700    0.3020 c1        1 EQI     -0.093000
     10 C13        -0.0380    1.3180    0.2430 c2        1 EQI     -0.025000
     11 C16         1.0390   -0.9740    0.5600 c3        1 EQI     -0.064000
     12 C17         0.1060   -1.2750    1.8150 c3        1 EQI     -0.096000
     13 C18        -1.2000   -0.5400    1.7630 c3        1 EQI     -0.138000
     14 C19        -1.0130    0.9700    1.5440 c3        1 EQI     -0.150000
     15 C24         2.1480   -1.6090    0.8780 c3        1 EQI     -0.153000
     16 C25         2.3610   -1.2480    2.4760 c3        1 EQI     -0.216000
     17 C26         0.8370   -0.7580    2.8270 c2        1 EQI      0.241000
     18 C27        -0.1040   -2.7600    1.9980 c3        1 EQI     -0.200000
     19 O1         -2.9080    1.2800   -4.6550 oh        1 EQI     -0.252000
     20 O26         0.5350    0.2020    3.5080 o         1 EQI     -0.288000
     21 H2         -0.3180    1.2010   -4.2850 ha        1 EQI      0.149000
     22 H5         -2.7060    1.2010   -0.1650 ha        1 EQI      0.134000
     23 H6         -3.8880    1.2010   -2.2200 ha        1 EQI      0.134000
     24 H10         2.0270    1.9100   -2.6970 hc        1 EQI      0.102000
     25 H102        1.9270    0.4220   -2.7190 hc        1 EQI      0.102000
     26 H11         3.0890    1.2450   -0.4500 ha        1 EQI      0.124000
     27 H131        0.1920    2.2630    0.3250 ha        1 EQI      0.099000
     28 H16         0.6500   -1.3800   -0.2380 hc        1 EQI      0.100000
     29 H181       -1.6750   -0.6810    2.6040 hc        1 EQI      0.094500
     30 H182       -1.7370   -0.9020    1.0320 hc        1 EQI      0.094500
     31 H191       -1.8880    1.3770    1.3980 hc        1 EQI      0.088000
     32 H192       -0.6160    1.3570    2.3470 hc        1 EQI      0.088000
     33 H241        2.8970   -1.2760    0.3480 hc        1 EQI      0.091500
     34 H242        2.0390   -2.5710    0.7550 hc        1 EQI      0.091500
     35 H251        3.0700   -0.6540    2.7870 hc        1 EQI      0.115500
     36 H252        2.5900   -2.0770    2.9380 hc        1 EQI      0.115500
     37 H271        0.6840   -3.1500    2.4220 hc        1 EQI      0.083667
     38 H272       -0.2460   -3.1790    1.1280 hc        1 EQI      0.083667
     39 H273       -0.8850   -2.9110    2.5630 hc        1 EQI      0.083667
     40 HO1        -2.9980    2.1310   -4.8900 ho        1 EQI      0.218000
@<TRIPOS>BOND
     1    1    6 1   
     2    1   19 1   
     3    2    3 1   
     4    2   21 1   
     5    3    7 1   
     6    4    5 1   
     7    4   10 1   
     8    5   22 1   
     9    6   23 1   
    10    7    8 1   
    11    7   24 1   
    12    7   25 1   
    13    8    9 1   
    14    8   26 1   
    15    9   11 1   
    16   10   14 1   
    17   10   27 1   
    18   11   12 1   
    19   11   15 1   
    20   11   28 1   
    21   12   13 1   
    22   12   17 1   
    23   12   18 1   
    24   13   14 1   
    25   13   29 1   
    26   13   30 1   
    27   14   31 1   
    28   14   32 1   
    29   15   16 1   
    30   15   33 1   
    31   15   34 1   
    32   16   17 1   
    33   16   35 1   
    34   16   36 1   
    35   17   20 1   
    36   18   37 1   
    37   18   38 1   
    38   18   39 1   
    39   19   40 1   
@<TRIPOS>SUBSTRUCTURE
     1 EQI         1 TEMP              0 ****  ****    0 ROOT
