@<TRIPOS>MOLECULE
EQM
  100   101     1     0     0
SMALL
bcc


@<TRIPOS>ATOM
      1 BR         -9.0850    1.8800    0.2210 br        1 EQM     -0.092100
      2 C1          2.7850    0.3990    0.1660 c3        1 EQM      0.100800
      3 N1          5.1220    0.6880    1.0580 n         1 EQM     -0.542900
      4 O1          2.7930   -0.7760    0.9660 oh        1 EQM     -0.591800
      5 C2          4.0960    1.2130    0.3010 c         1 EQM      0.635100
      6 N2         -2.1670    1.1740    0.8090 n3        1 EQM     -0.477600
      7 O2          4.1760    2.3440   -0.2200 o         1 EQM     -0.616100
      8 C3          6.3980    1.3450    1.1830 c3        1 EQM      0.041700
      9 N3         -2.4300   -0.1730    0.9200 n         1 EQM     -0.422300
     10 C4          6.7990    1.6410    2.6590 c3        1 EQM     -0.053000
     11 N4         -4.5830   -2.7080   -0.2940 n         1 EQM     -0.521900
     12 O4         -5.5430   -2.5030    1.8520 o         1 EQM     -0.595000
     13 C5          6.6690    0.4070    3.5360 c3        1 EQM     -0.093767
     14 O5         -6.8630   -2.6930    0.0240 os        1 EQM     -0.433900
     15 C6          8.2420    2.1260    2.6790 c3        1 EQM     -0.093767
     16 C7          1.6420    1.3370    0.5860 c3        1 EQM     -0.110400
     17 C9         -0.7680    1.5220    1.1580 c3        1 EQM      0.165800
     18 C11        -4.5240    1.9410    1.2350 ca        1 EQM     -0.089300
     19 C12        -2.9090   -0.9060   -0.1830 c         1 EQM      0.637100
     20 C13        -3.2380   -2.3980    0.1220 c3        1 EQM      0.045700
     21 C14        -2.1710   -3.3120   -0.5490 c3        1 EQM     -0.044000
     22 C15        -2.3440   -3.3780   -2.0580 c3        1 EQM     -0.097100
     23 C16        -0.7910   -2.7580   -0.2220 c3        1 EQM     -0.097100
     24 C17        -2.2940   -4.7120    0.0360 c3        1 EQM     -0.097100
     25 C19        -7.9660   -2.7050    0.9340 c3        1 EQM      0.137700
     26 C20        -5.4760    2.0470    2.2550 ca        1 EQM     -0.116000
     27 C21        -6.8360    2.0290    1.9540 ca        1 EQM     -0.106000
     28 C22        -7.2560    1.8990    0.6270 ca        1 EQM     -0.024900
     29 C23        -6.3090    1.7830   -0.3940 ca        1 EQM     -0.106000
     30 C24        -4.9480    1.8040   -0.0910 ca        1 EQM     -0.116000
     31 C25         2.6110   -0.0510   -1.2920 c3        1 EQM     -0.022100
     32 C26         3.7580   -0.8020   -1.8670 ca        1 EQM     -0.095300
     33 C27         4.1270   -2.0490   -1.3470 ca        1 EQM     -0.117000
     34 C28         5.1650   -2.7750   -1.9300 ca        1 EQM     -0.130500
     35 C29         5.8390   -2.2650   -3.0390 ca        1 EQM     -0.125000
     36 C30         5.4770   -1.0240   -3.5610 ca        1 EQM     -0.130500
     37 C31         4.4420   -0.2940   -2.9780 ca        1 EQM     -0.117000
     38 C33        11.8090    0.3300   -0.3660 c2        1 EQM     -0.199000
     39 C34         7.5080    0.4800    0.5250 c         1 EQM      0.643100
     40 C35         5.9010    2.7450    3.1990 c3        1 EQM     -0.093767
     41 C36        10.7550    1.0450   -0.7510 c2        1 EQM     -0.201200
     42 C37         9.4180    0.4310   -1.0400 c3        1 EQM      0.114200
     43 HN1         5.0980   -0.2810    1.2950 hn        1 EQM      0.336500
     44 HO1         2.6560   -0.5030    1.8830 ho        1 EQM      0.407000
     45 H3          6.3220    2.3470    0.6570 h1        1 EQM      0.093700
     46 HN3        -2.7750   -0.4810    1.8130 hn        1 EQM      0.292500
     47 HN4        -4.7950   -2.6070   -1.2630 hn        1 EQM      0.337500
     48 H5          7.1610   -0.4710    3.0490 hc        1 EQM      0.041700
     49 H5A         7.1580    0.5900    4.5230 hc        1 EQM      0.041700
     50 H5B         5.5960    0.1610    3.7200 hc        1 EQM      0.041700
     51 HN5         8.2420    2.0790   -0.5290 hn        1 EQM      0.310500
     52 H6          8.3890    2.9550    1.9460 hc        1 EQM      0.041700
     53 H6A         8.5000    2.5050    3.6980 hc        1 EQM      0.041700
     54 H6B         8.9410    1.2900    2.4290 hc        1 EQM      0.041700
     55 H7          1.8070    1.6390    1.6550 hc        1 EQM      0.063200
     56 H7A         1.7010    2.2680   -0.0390 hc        1 EQM      0.063200
     57 H8          0.0230    0.5990   -0.6520 hc        1 EQM      0.064700
     58 H8A         0.3160   -0.3530    0.8580 hc        1 EQM      0.064700
     59 H9         -0.6510    2.5990    0.8450 h1        1 EQM      0.038700
     60 H9A        -0.5830    1.4590    2.2700 h1        1 EQM      0.038700
     61 H10        -2.9440    1.9080    2.6970 h1        1 EQM      0.053700
     62 H10A       -2.7500    3.1100    1.3390 h1        1 EQM      0.053700
     63 H13        -3.1780   -2.5910    1.2390 h1        1 EQM      0.094700
     64 H15        -2.4660   -2.3520   -2.4850 hc        1 EQM      0.044922
     65 H15A       -1.4430   -3.8510   -2.5190 hc        1 EQM      0.044922
     66 H15B       -3.2350   -3.9930   -2.3320 hc        1 EQM      0.044922
     67 H16        -0.6810   -2.5990    0.8780 hc        1 EQM      0.044922
     68 H16A       -0.0060   -3.4790   -0.5560 hc        1 EQM      0.044922
     69 H16B       -0.6210   -1.7840   -0.7450 hc        1 EQM      0.044922
     70 H17        -3.3050   -5.1390   -0.1630 hc        1 EQM      0.044922
     71 H17A       -1.5300   -5.3810   -0.4290 hc        1 EQM      0.044922
     72 H17B       -2.1240   -4.6920    1.1390 hc        1 EQM      0.044922
     73 H19        -7.9740   -1.7660    1.5380 h1        1 EQM      0.054700
     74 H19A       -8.8530   -2.7660    0.2560 h1        1 EQM      0.054700
     75 H19B       -7.8970   -3.5940    1.6050 h1        1 EQM      0.054700
     76 H20        -5.1560    2.1480    3.3030 ha        1 EQM      0.154500
     77 H21        -7.5730    2.1150    2.7680 ha        1 EQM      0.148500
     78 H23        -6.6270    1.6740   -1.4420 ha        1 EQM      0.148500
     79 H24        -4.2060    1.6940   -0.9020 ha        1 EQM      0.154500
     80 H25         1.6970   -0.7060   -1.3340 hc        1 EQM      0.071700
     81 H25A        2.4120    0.8740   -1.8980 hc        1 EQM      0.071700
     82 H27         3.5970   -2.4460   -0.4670 ha        1 EQM      0.140500
     83 H28         5.4540   -3.7490   -1.5100 ha        1 EQM      0.131000
     84 H29         6.6570   -2.8390   -3.4990 ha        1 EQM      0.129000
     85 H30         6.0080   -0.6170   -4.4340 ha        1 EQM      0.131000
     86 H31         4.1630    0.6870   -3.3930 ha        1 EQM      0.140500
     87 H33        12.7940    0.7840   -0.1980 ha        1 EQM      0.116000
     88 H33A       11.7640   -0.7550   -0.1960 ha        1 EQM      0.116000
     89 H35         4.8300    2.4340    3.1740 hc        1 EQM      0.041700
     90 H35A        6.1780    2.9740    4.2560 hc        1 EQM      0.041700
     91 H35B        6.0160    3.6750    2.5910 hc        1 EQM      0.041700
     92 H36        10.8270    2.1340   -0.9060 ha        1 EQM      0.119000
     93 H37         9.4100   -0.6550   -0.7330 h1        1 EQM      0.068700
     94 H37A        9.2560    0.4760   -2.1590 h1        1 EQM      0.068700
     95 C10        -3.0720    2.0560    1.5830 c3        1 EQM      0.179100
     96 C18        -5.6190   -2.6060    0.6150 c         1 EQM      0.731100
     97 O3         -3.0140   -0.4540   -1.3330 o         1 EQM     -0.571100
     98 C8          0.2840    0.6880    0.4360 c3        1 EQM     -0.082400
     99 N5          8.3110    1.0970   -0.4070 n         1 EQM     -0.556900
    100 O6          7.6260   -0.7310    0.8000 o         1 EQM     -0.615100
@<TRIPOS>BOND
     1    1   28 1   
     2    2    4 1   
     3    2    5 1   
     4    2   16 1   
     5    2   31 1   
     6    3    5 1   
     7    3    8 1   
     8    3   43 1   
     9    4   44 1   
    10    5    7 2   
    11    6    9 1   
    12    6   17 1   
    13    6   95 1   
    14    8   10 1   
    15    8   39 1   
    16    8   45 1   
    17    9   19 1   
    18    9   46 1   
    19   10   13 1   
    20   10   15 1   
    21   10   40 1   
    22   11   20 1   
    23   11   47 1   
    24   11   96 1   
    25   12   96 2   
    26   13   48 1   
    27   13   49 1   
    28   13   50 1   
    29   14   25 1   
    30   14   96 1   
    31   15   52 1   
    32   15   53 1   
    33   15   54 1   
    34   16   55 1   
    35   16   56 1   
    36   16   98 1   
    37   17   59 1   
    38   17   60 1   
    39   17   98 1   
    40   18   26 ar  
    41   18   30 ar  
    42   18   95 1   
    43   19   20 1   
    44   19   97 2   
    45   20   21 1   
    46   20   63 1   
    47   21   22 1   
    48   21   23 1   
    49   21   24 1   
    50   22   64 1   
    51   22   65 1   
    52   22   66 1   
    53   23   67 1   
    54   23   68 1   
    55   23   69 1   
    56   24   70 1   
    57   24   71 1   
    58   24   72 1   
    59   25   73 1   
    60   25   74 1   
    61   25   75 1   
    62   26   27 ar  
    63   26   76 1   
    64   27   28 ar  
    65   27   77 1   
    66   28   29 ar  
    67   29   30 ar  
    68   29   78 1   
    69   30   79 1   
    70   31   32 1   
    71   31   80 1   
    72   31   81 1   
    73   32   33 ar  
    74   32   37 ar  
    75   33   34 ar  
    76   33   82 1   
    77   34   35 ar  
    78   34   83 1   
    79   35   36 ar  
    80   35   84 1   
    81   36   37 ar  
    82   36   85 1   
    83   37   86 1   
    84   38   41 2   
    85   38   87 1   
    86   38   88 1   
    87   39   99 1   
    88   39  100 2   
    89   40   89 1   
    90   40   90 1   
    91   40   91 1   
    92   41   42 1   
    93   41   92 1   
    94   42   93 1   
    95   42   94 1   
    96   42   99 1   
    97   51   99 1   
    98   57   98 1   
    99   58   98 1   
   100   61   95 1   
   101   62   95 1   
@<TRIPOS>SUBSTRUCTURE
     1 EQM         1 TEMP              0 ****  ****    0 ROOT
