@<TRIPOS>MOLECULE
EQM
  100    95     1     0     0
SMALL
bcc


@<TRIPOS>ATOM
      1 BR          0.6620    1.2240    1.2470 br        1 EQM      0.056000
      2 C1          8.7380   -6.4780   -1.5830 c3        1 EQM      0.113000
      3 N1         10.7110   -7.7730   -0.7540 n         1 EQM     -0.402000
      4 O1          8.0940   -6.8900   -0.3780 oh        1 EQM     -0.346000
      5 C2         10.2570   -6.6240   -1.3220 c2        1 EQM      0.328000
      6 N2          5.6670   -2.7660   -1.4650 n3        1 EQM     -0.116000
      7 O2         11.0650   -5.7210   -1.6580 o         1 EQM     -0.464000
      8 C3         13.7590   -7.2100   -0.6320 c1        1 EQM      0.001000
      9 N3          5.9710   -2.8810   -0.1230 n         1 EQM     -0.341000
     10 C4         14.2260   -6.2940    0.3960 c3        1 EQM     -0.084000
     11 N4          7.0670   -3.0010    4.3530 n         1 EQM     -0.205000
     12 O4          6.3290   -1.4100    2.7580 os        1 EQM     -0.234000
     13 C5         13.0060   -5.6030    1.0100 c3        1 EQM     -0.211667
     14 O5          7.2070   -0.6900    4.7090 o         1 EQM     -0.356000
     15 C6         14.9030   -7.1640    1.4690 c3        1 EQM     -0.211667
     16 C7          8.4040   -5.0500   -1.9150 c2        1 EQM     -0.201000
     17 C9          6.7680   -3.2270   -2.3590 c3        1 EQM     -0.064000
     18 C11         4.1820   -0.7840   -1.0800 ca        1 EQM     -0.078000
     19 C12         5.7410   -4.0260    0.6330 c2        1 EQM      0.242000
     20 C13         6.7090   -4.0010    3.5660 c1        1 EQM     -0.063000
     21 C14         6.9080   -5.4390    3.9420 c3        1 EQM     -0.101000
     22 C15         5.5660   -6.1320    3.7110 c3        1 EQM     -0.206333
     23 C16         7.9370   -6.0010    2.9620 c3        1 EQM     -0.206333
     24 C17         7.3720   -5.6910    5.3670 c3        1 EQM     -0.206333
     25 C19         6.1400   -0.0210    2.4460 c3        1 EQM     -0.071000
     26 C20         4.2900    0.5390   -0.6390 ca        1 EQM     -0.121500
     27 C21         3.2390    1.1410    0.0500 ca        1 EQM     -0.107500
     28 C22         2.0720    0.4180    0.3140 ca        1 EQM     -0.165000
     29 C23         1.9610   -0.9060   -0.1200 ca        1 EQM     -0.107500
     30 C24         3.0110   -1.5030   -0.8170 ca        1 EQM     -0.121500
     31 C25         8.3410   -7.3970   -2.7520 c3        1 EQM     -0.157000
     32 C26         8.3840   -8.8370   -2.4050 c2        1 EQM     -0.172000
     33 C27         8.8350   -9.7810   -3.2270 c2        1 EQM     -0.215000
     34 C28        11.4590    0.8160    0.9130 c1        1 EQM     -0.170000
     35 C29        11.3710   -0.2830    0.4420 c1        1 EQM     -0.074500
     36 C30        11.2740   -1.5260   -0.0920 c1        1 EQM     -0.074500
     37 C31        11.1910   -2.6270   -0.5610 c1        1 EQM     -0.170000
     38 C33        17.6250   -8.6990    0.1790 c1        1 EQM     -0.085000
     39 C34        14.2710   -7.3780   -1.9690 c2        1 EQM      0.203000
     40 C35        15.2130   -5.2440   -0.0950 c3        1 EQM     -0.211667
     41 C36        17.3500   -9.9350   -0.4960 c3        1 EQM     -0.312000
     42 C37        13.8390   -6.8600   -4.3220 c1        1 EQM     -0.112000
     43 HN1        10.0660   -8.4610   -0.4560 hn        1 EQM      0.246500
     44 HO1         7.1990   -6.5160   -0.3750 ho        1 EQM      0.245000
     45 H3         11.6830   -7.8850   -0.5530 hn        1 EQM      0.246500
     46 HN3         6.0400   -2.0220    0.3910 hn        1 EQM      0.221000
     47 HN4         7.4890   -3.0980    5.2630 hn        1 EQM      0.207000
     48 H5         12.3080   -6.3580    1.4430 hc        1 EQM      0.095000
     49 H5A        12.4580   -5.0160    0.2310 hc        1 EQM      0.095000
     50 H5B        13.3470   -4.9110    1.8170 hc        1 EQM      0.095000
     51 HN5        12.7870   -6.1600   -2.7780 hn        1 EQM      0.276000
     52 H6         15.1890   -6.5030    2.3220 hc        1 EQM      0.095000
     53 H6A        15.8290   -7.6540    1.0620 hc        1 EQM      0.095000
     54 H6B        14.2000   -7.9470    1.8350 hc        1 EQM      0.095000
     55 H7         10.1920   -5.0160    0.7710 ha        1 EQM      0.001000
     56 H7A         9.5520   -5.2440    0.7560 ha        1 EQM      0.001000
     57 H8          6.2900   -5.3460   -2.0180 ha        1 EQM      0.155000
     58 H8A         9.2640   -4.3630   -1.9840 ha        1 EQM      0.156000
     59 H9          7.6760   -2.5600   -2.2990 h1        1 EQM      0.088000
     60 H9A         6.3550   -3.1630   -3.4070 h1        1 EQM      0.088000
     61 H10         6.1820   -0.6940   -1.8730 h1        1 EQM      0.095500
     62 H10A        4.9390   -1.4890   -2.9460 h1        1 EQM      0.095500
     63 H13         5.9240   -3.8410    1.7360 h5        1 EQM      0.212000
     64 H15         4.7980   -5.7380    4.4170 hc        1 EQM      0.084667
     65 H15A        5.2220   -5.9590    2.6610 hc        1 EQM      0.084667
     66 H15B        5.6800   -7.2300    3.8790 hc        1 EQM      0.084667
     67 H16         8.9180   -5.4820    3.0810 hc        1 EQM      0.084667
     68 H16A        7.5840   -5.8710    1.9070 hc        1 EQM      0.084667
     69 H16B        8.0800   -7.0900    3.1590 hc        1 EQM      0.084667
     70 H17         7.4400   -6.7900    5.5550 hc        1 EQM      0.084667
     71 H17A        6.6520   -5.2570    6.1010 hc        1 EQM      0.084667
     72 H17B        8.3830   -5.2480    5.5420 hc        1 EQM      0.084667
     73 H19         7.1320    0.4830    2.3620 h1        1 EQM      0.101667
     74 H19A        5.5200    0.4700    3.2350 h1        1 EQM      0.101667
     75 H19B        5.6030   -0.0530    1.4630 h1        1 EQM      0.101667
     76 H20         5.2020    1.1190   -0.8480 ha        1 EQM      0.149000
     77 H21         3.3350    2.1870    0.3810 ha        1 EQM      0.149500
     78 H23         1.0460   -1.4860    0.0820 ha        1 EQM      0.149500
     79 H24         2.9170   -2.5460   -1.1590 ha        1 EQM      0.149000
     80 H25         9.0080   -7.1660   -3.6240 hc        1 EQM      0.106500
     81 H25A        7.2870   -7.1390   -3.0510 hc        1 EQM      0.106500
     82 H27         9.2430   -9.5610   -4.2230 ha        1 EQM      0.114000
     83 H28         8.8260  -10.8450   -2.9560 ha        1 EQM      0.114000
     84 H29        11.5410    1.7870    1.3310 ha        1 EQM      0.243500
     85 H30        11.1160   -3.6060   -0.9790 ha        1 EQM      0.243500
     86 H31         7.9780   -9.0820   -1.4080 ha        1 EQM      0.132000
     87 H33        16.8650  -10.6680    0.2000 hc        1 EQM      0.122000
     88 H33A       18.5560   -8.1780   -0.0910 ha        1 EQM      0.039000
     89 H35        15.5650   -4.6190    0.7600 hc        1 EQM      0.095000
     90 H35A       14.7290   -4.5750   -0.8470 hc        1 EQM      0.095000
     91 H35B       16.0990   -5.7360   -0.5640 hc        1 EQM      0.095000
     92 H36        16.5740   -9.6640   -1.2790 hc        1 EQM      0.122000
     93 H37        14.6900   -7.5150   -4.6050 ha        1 EQM      0.067000
     94 H37A       18.2070  -10.4380   -1.0110 hc        1 EQM      0.122000
     95 C10         5.2940   -1.3920   -1.8780 c3        1 EQM     -0.066000
     96 C18         6.8890   -1.6440    3.9870 c2        1 EQM      0.400000
     97 O3          5.4690   -5.1480    0.1690 o         1 EQM     -0.404000
     98 C8          7.1440   -4.6460   -2.0940 c2        1 EQM     -0.137000
     99 N5         13.5660   -6.7360   -3.0520 n         1 EQM     -0.216000
    100 O6         15.1900   -8.1830   -2.2380 o         1 EQM     -0.361000
@<TRIPOS>BOND
     1    1   28 1   
     2    2    4 1   
     3    2    5 1   
     4    2   16 1   
     5    2   31 1   
     6    3    5 1   
     7    3   43 1   
     8    3   45 1   
     9    4   44 1   
    10    5    7 1   
    11    6    9 1   
    12    6   17 1   
    13    6   95 1   
    14    8   10 1   
    15    8   39 1   
    16    9   19 1   
    17    9   46 1   
    18   10   13 1   
    19   10   15 1   
    20   10   40 1   
    21   11   20 1   
    22   11   47 1   
    23   11   96 1   
    24   12   25 1   
    25   12   96 1   
    26   13   48 1   
    27   13   49 1   
    28   13   50 1   
    29   14   96 1   
    30   15   52 1   
    31   15   53 1   
    32   15   54 1   
    33   16   58 1   
    34   16   98 1   
    35   17   59 1   
    36   17   60 1   
    37   17   98 1   
    38   18   26 1   
    39   18   30 1   
    40   18   95 1   
    41   19   63 1   
    42   19   97 1   
    43   20   21 1   
    44   21   22 1   
    45   21   23 1   
    46   21   24 1   
    47   22   64 1   
    48   22   65 1   
    49   22   66 1   
    50   23   67 1   
    51   23   68 1   
    52   23   69 1   
    53   24   70 1   
    54   24   71 1   
    55   24   72 1   
    56   25   73 1   
    57   25   74 1   
    58   25   75 1   
    59   26   27 1   
    60   26   76 1   
    61   27   28 1   
    62   27   77 1   
    63   28   29 1   
    64   29   30 1   
    65   29   78 1   
    66   30   79 1   
    67   31   32 1   
    68   31   80 1   
    69   31   81 1   
    70   32   33 1   
    71   32   86 1   
    72   33   82 1   
    73   33   83 1   
    74   34   35 1   
    75   34   84 1   
    76   35   36 1   
    77   36   37 1   
    78   37   85 1   
    79   38   41 1   
    80   38   88 1   
    81   39   99 1   
    82   39  100 1   
    83   40   89 1   
    84   40   90 1   
    85   40   91 1   
    86   41   87 1   
    87   41   92 1   
    88   41   94 1   
    89   42   93 1   
    90   42   99 1   
    91   51   99 1   
    92   55   56 1   
    93   57   98 1   
    94   61   95 1   
    95   62   95 1   
@<TRIPOS>SUBSTRUCTURE
     1 EQM         1 TEMP              0 ****  ****    0 ROOT
