@<TRIPOS>MOLECULE
EQM
  100    95     1     0     0
SMALL
bcc


@<TRIPOS>ATOM
      1 BR         -1.9260   -6.8170    0.2390 br        1 EQM      0.046000
      2 C1          1.6880   -1.3240    2.5180 c3        1 EQM      0.074000
      3 N1          3.1080   -1.4220    0.3390 n         1 EQM     -0.350000
      4 O1          0.8910   -2.1790    1.7700 oh        1 EQM     -0.330000
      5 C2          2.8930   -0.8490    1.6520 c2        1 EQM      0.312000
      6 N2         -2.1630    0.2090    0.7230 n3        1 EQM     -0.115000
      7 O2          3.5770    0.0900    2.0240 o         1 EQM     -0.391000
      8 C3          2.9290   -0.6210   -0.8240 c3        1 EQM      0.020000
      9 N3         -2.6770    1.2900   -0.1300 n         1 EQM     -0.296000
     10 O3         -0.5750    1.9620   -0.8380 o         1 EQM     -0.403000
     11 C4          4.2870   -0.1950   -1.3610 c3        1 EQM     -0.054000
     12 N4         -2.4590    4.4130   -0.0560 n         1 EQM     -0.350000
     13 O4         -4.6650    4.8490   -0.6400 o         1 EQM     -0.418000
     14 C5          4.1180    0.4120   -2.7560 c3        1 EQM     -0.211000
     15 N5          1.3110   -0.7480   -2.7990 n         1 EQM     -0.353000
     16 O5         -4.0660    5.6250    1.4400 os        1 EQM     -0.270000
     17 C6          4.9210    0.8700   -0.4020 c3        1 EQM     -0.211000
     18 O6          2.2700   -2.6240   -1.8740 o         1 EQM     -0.376000
     19 C7          0.8730   -0.1240    2.9490 c3        1 EQM     -0.182000
     20 C8         -0.5930   -0.3300    2.5430 c3        1 EQM     -0.154000
     21 C9         -0.9670    0.6840    1.4570 c3        1 EQM     -0.115000
     22 C10        -1.8020   -0.9600   -0.1210 c3        1 EQM     -0.062000
     23 C11        -2.6040   -2.1830    0.3320 c2        1 EQM     -0.055000
     24 C12        -1.7410    2.2350   -0.7630 c2        1 EQM      0.268000
     25 C13        -2.2310    3.6230   -1.1930 c3        1 EQM      0.029000
     26 C14        -1.1650    4.2940   -2.0850 c3        1 EQM     -0.041000
     27 C15         0.2220    4.2170   -1.3880 c3        1 EQM     -0.215667
     28 C16        -1.0990    3.5440   -3.4730 c3        1 EQM     -0.215667
     29 C17        -1.5440    5.7840   -2.3140 c3        1 EQM     -0.215667
     30 C18        -3.7900    4.9610    0.1990 c2        1 EQM      0.393000
     31 C19        -5.3570    6.2830    1.4830 c3        1 EQM     -0.052000
     32 C20        -2.6570   -2.8710   -0.8740 c2        1 EQM     -0.129000
     33 C21        -2.4400   -4.2340   -0.9020 c1        1 EQM     -0.107000
     34 C22        -2.1700   -4.9150    0.2710 c1        1 EQM     -0.168000
     35 C23        -2.1170   -4.2300    1.4730 c1        1 EQM     -0.107000
     36 C24        -2.3350   -2.8610    1.5010 c1        1 EQM     -0.110000
     37 C25         2.1960   -2.0480    3.7330 c3        1 EQM     -0.154000
     38 C26         1.1880   -3.2120    4.1190 c2        1 EQM     -0.087000
     39 C27         0.0360   -2.9200    4.8260 c2        1 EQM     -0.123000
     40 C28        -0.8120   -3.9560    5.2390 c1        1 EQM     -0.128000
     41 C29        -0.4990   -5.2520    4.9420 c1        1 EQM     -0.165750
     42 C30         0.6590   -5.5420    4.2310 c1        1 EQM     -0.165750
     43 C31         1.4990   -4.5180    3.8220 c1        1 EQM     -0.136000
     44 C33        -1.1940   -0.8930   -5.4920 c1        1 EQM     -0.165750
     45 C34         2.2000   -1.4170   -1.8760 c2        1 EQM      0.282000
     46 C35         5.2050   -1.4150   -1.4490 c3        1 EQM     -0.211000
     47 C36        -0.6840   -0.7220   -4.2200 c1        1 EQM     -0.165750
     48 C37         0.5460   -1.5270   -3.7700 c2        1 EQM     -0.011000
     49 HN1         3.4190   -2.2890    0.2590 hn        1 EQM      0.258000
     50 HO1         1.4030   -2.8120    1.3920 ho        1 EQM      0.221000
     51 H3          2.4040    0.1750   -0.5950 h1        1 EQM      0.130000
     52 HN3        -3.5870    1.3570   -0.2970 hn        1 EQM      0.273000
     53 HN4        -1.7740    4.5900    0.5210 hn        1 EQM      0.255000
     54 H5          3.7520   -0.2610   -3.3630 hc        1 EQM      0.081000
     55 H5A         4.9930    0.7120   -3.0900 hc        1 EQM      0.081000
     56 H5B         3.5070    1.1780   -2.7090 hc        1 EQM      0.081000
     57 HN5         1.2380    0.1490   -2.7850 hn        1 EQM      0.241000
     58 H6          4.2980    1.6250   -0.2930 hc        1 EQM      0.081000
     59 H6A         5.0960    0.4600    0.4780 hc        1 EQM      0.081000
     60 H6B         5.7690    1.1960   -0.7880 hc        1 EQM      0.081000
     61 H7          0.9320   -0.0200    3.9310 hc        1 EQM      0.105500
     62 H7A         1.2210    0.6770    2.5150 hc        1 EQM      0.105500
     63 H8         -1.1760   -0.1990    3.3300 hc        1 EQM      0.095000
     64 H8A        -0.7120   -1.2350    2.1980 hc        1 EQM      0.095000
     65 H9         -0.2220    0.7830    0.8360 h1        1 EQM      0.100000
     66 H9A        -1.1620    1.5500    1.8720 h1        1 EQM      0.100000
     67 H10        -2.0090   -0.7610   -1.0590 h1        1 EQM      0.103000
     68 H10A       -0.8510   -1.1440   -0.0310 h1        1 EQM      0.103000
     69 H13        -3.0750    3.5310   -1.7040 h1        1 EQM      0.133000
     70 H15         0.9290    4.4250   -2.0400 hc        1 EQM      0.084222
     71 H15A        0.3600    3.3090   -1.0300 hc        1 EQM      0.084222
     72 H15B        0.2550    4.8700   -0.6490 hc        1 EQM      0.084222
     73 H16        -0.3000    3.8500   -3.9780 hc        1 EQM      0.084222
     74 H16A       -1.0370    2.5770   -3.3170 hc        1 EQM      0.084222
     75 H16B       -1.9150    3.7420   -3.9950 hc        1 EQM      0.084222
     76 H17        -0.9910    6.1550   -3.0390 hc        1 EQM      0.084222
     77 H17A       -2.4960    5.8470   -2.5610 hc        1 EQM      0.084222
     78 H17B       -1.3850    6.2930   -1.4880 hc        1 EQM      0.084222
     79 H19        -6.0650    5.6180    1.3730 h1        1 EQM      0.095000
     80 H19A       -5.4130    6.9440    0.7580 h1        1 EQM      0.095000
     81 H19B       -5.4660    6.7400    2.3560 h1        1 EQM      0.095000
     82 H20        -2.8500   -2.3860   -1.7120 ha        1 EQM      0.140000
     83 H21        -2.4780   -4.7240   -1.7620 ha        1 EQM      0.145000
     84 H23        -1.9250   -4.7130    2.3060 ha        1 EQM      0.146000
     85 H24        -2.2980   -2.3770    2.3500 ha        1 EQM      0.149000
     86 H25         2.2690   -1.4180    4.4820 hc        1 EQM      0.111500
     87 H25A        3.0810   -2.4310    3.5390 hc        1 EQM      0.111500
     88 H27        -0.1840   -2.0000    5.0360 ha        1 EQM      0.136000
     89 H28        -1.6290   -3.7520    5.7400 ha        1 EQM      0.135000
     90 H29        -1.0950   -5.9840    5.2320 ha        1 EQM      0.129500
     91 H30         0.8800   -6.4610    4.0210 ha        1 EQM      0.129500
     92 H31         2.3010   -4.7230    3.3290 ha        1 EQM      0.139000
     93 H33        -0.7730   -1.5250   -6.1050 DU        1 EQM      0.115000
     94 H33A       -1.9870   -0.3740   -5.7820 ha        1 EQM      0.129500
     95 H35         5.5730   -1.6170   -0.5550 hc        1 EQM      0.081000
     96 H35A        5.9470   -1.2230   -2.0760 hc        1 EQM      0.081000
     97 H35B        4.6950   -2.1840   -1.7730 hc        1 EQM      0.081000
     98 H36        -1.1090   -0.0840   -3.6000 ha        1 EQM      0.129500
     99 H37         0.2520   -2.3720   -3.3560 h4        1 EQM      0.106000
    100 H37A        1.1080   -1.7230   -4.5450 h4        1 EQM      0.106000
@<TRIPOS>BOND
     1    1   34 1   
     2    2    4 1   
     3    2    5 1   
     4    2   19 1   
     5    2   37 1   
     6    3    5 1   
     7    3    8 1   
     8    3   49 1   
     9    4   50 1   
    10    5    7 1   
    11    6    9 1   
    12    6   21 1   
    13    6   22 1   
    14    8   11 1   
    15    8   45 1   
    16    8   51 1   
    17    9   24 1   
    18    9   52 1   
    19   10   24 1   
    20   11   14 1   
    21   11   17 1   
    22   11   46 1   
    23   12   25 1   
    24   12   30 1   
    25   12   53 1   
    26   13   30 1   
    27   14   54 1   
    28   14   55 1   
    29   14   56 1   
    30   15   45 1   
    31   15   48 1   
    32   15   57 1   
    33   16   30 1   
    34   16   31 1   
    35   17   58 1   
    36   17   59 1   
    37   17   60 1   
    38   18   45 1   
    39   19   20 1   
    40   19   61 1   
    41   19   62 1   
    42   20   21 1   
    43   20   63 1   
    44   20   64 1   
    45   21   65 1   
    46   21   66 1   
    47   22   23 1   
    48   22   67 1   
    49   22   68 1   
    50   23   32 1   
    51   23   36 1   
    52   24   25 1   
    53   25   26 1   
    54   25   69 1   
    55   26   27 1   
    56   26   28 1   
    57   26   29 1   
    58   27   70 1   
    59   27   71 1   
    60   27   72 1   
    61   28   73 1   
    62   28   74 1   
    63   28   75 1   
    64   29   76 1   
    65   29   77 1   
    66   29   78 1   
    67   31   79 1   
    68   31   80 1   
    69   31   81 1   
    70   32   33 1   
    71   32   82 1   
    72   33   83 1   
    73   34   35 1   
    74   35   84 1   
    75   36   85 1   
    76   37   38 1   
    77   37   86 1   
    78   37   87 1   
    79   38   39 1   
    80   38   43 1   
    81   39   40 1   
    82   39   88 1   
    83   40   89 1   
    84   41   42 1   
    85   41   90 1   
    86   42   91 1   
    87   43   92 1   
    88   44   47 1   
    89   44   94 1   
    90   46   95 1   
    91   46   96 1   
    92   46   97 1   
    93   47   98 1   
    94   48   99 1   
    95   48  100 1   
@<TRIPOS>SUBSTRUCTURE
     1 EQM         1 TEMP              0 ****  ****    0 ROOT
