@<TRIPOS>MOLECULE
EQN
   50    50     1     0     0
SMALL
bcc


@<TRIPOS>ATOM
      1 CAA         0.7920   -0.5100   -0.5500 c3        1 EQN     -0.207000
      2 CAB         1.5560   -2.8340   -0.9420 c3        1 EQN     -0.207000
      3 CAC         3.6430   -1.6890    3.1760 c3        1 EQN     -0.204500
      4 CAD         2.8020    0.6010    3.5600 c3        1 EQN     -0.204500
      5 OAE         6.8930   -1.2560   -5.6730 o         1 EQN     -0.579000
      6 OAF         4.8690    1.8220   -3.1500 o         1 EQN     -0.338000
      7 OAG         7.6620   -1.5600   -7.7400 o         1 EQN     -0.579000
      8 CAH         6.8810    2.6110   -5.6480 c2        1 EQN     -0.238000
      9 CAI         5.7480   -2.0610   -1.7350 c1        1 EQN     -0.621000
     10 CAJ         6.7950    1.5900   -6.4490 c1        1 EQN     -0.151000
     11 CAK         5.5900   -2.6150   -0.6290 c1        1 EQN     -0.021000
     12 CAL         4.5100    1.2560   -0.3070 c2        1 EQN      0.013000
     13 CAM         3.9780    0.9530    0.9930 c2        1 EQN     -0.213000
     14 CAN         3.6420   -0.8510   -1.1920 c1        1 EQN     -0.030000
     15 CAO         1.1220   -2.0800    1.3790 c3        1 EQN     -0.157000
     16 CAP         1.3250   -1.0410    2.4560 c3        1 EQN     -0.144000
     17 NAQ         5.6310   -0.3110   -3.4070 n         1 EQN     -0.255000
     18 CAR         7.1250   -0.8470   -6.8540 c2        1 EQN      0.375000
     19 CAT         5.9560   -1.5460   -2.9820 c2        1 EQN      0.329000
     20 CAU         6.7120    0.5580   -7.2340 c2        1 EQN     -0.168000
     21 CAV         4.3970    0.3540   -1.3260 c2        1 EQN     -0.206000
     22 CAW         3.3070   -0.2020    1.2310 c2        1 EQN     -0.006000
     23 CAX         3.1100   -1.2020    0.1340 c3        1 EQN     -0.152000
     24 CAY         1.6360   -1.6450    0.0080 c3        1 EQN      0.000000
     25 CAZ         2.7800   -0.5750    2.5880 c3        1 EQN     -0.028000
     26 HAA         0.8690    0.3960    0.0970 hc        1 EQN      0.079667
     27 HAAA        1.1480   -0.2470   -1.5770 hc        1 EQN      0.079667
     28 HAAB       -0.2790   -0.8180   -0.6100 hc        1 EQN      0.079667
     29 HAB         0.4900   -3.1340   -1.0880 hc        1 EQN      0.079667
     30 HABA        2.1220   -3.7030   -0.5300 hc        1 EQN      0.079667
     31 HABB        2.0030   -2.5580   -1.9290 hc        1 EQN      0.079667
     32 HAC         3.2780   -1.9500    4.1980 hc        1 EQN      0.077333
     33 HACA        4.7050   -1.3540    3.2480 hc        1 EQN      0.077333
     34 HACB        3.6040   -2.6030    2.5370 hc        1 EQN      0.077333
     35 HAD         2.2960    0.3110    4.5130 hc        1 EQN      0.077333
     36 HADA        2.2660    1.4800    3.1270 hc        1 EQN      0.077333
     37 HADB        3.8520    0.8960    3.7960 hc        1 EQN      0.077333
     38 HAH         6.0620    2.8890   -4.9680 ha        1 EQN      0.117000
     39 HAI         6.4650   -2.1710   -3.7690 h4        1 EQN      0.217000
     40 HAJ         7.7820    3.2360   -5.5890 ha        1 EQN      0.117000
     41 HAK         6.3430    0.6540   -8.2680 ha        1 EQN      0.129000
     42 HAL         4.9980    2.2340   -0.4530 ha        1 EQN      0.138000
     43 HAM         4.1570    1.6990    1.7820 ha        1 EQN      0.129000
     44 HAN         3.7080   -2.1340    0.4370 hc        1 EQN      0.209000
     45 HAO         1.6430   -3.0300    1.6750 hc        1 EQN      0.079500
     46 HAOA        0.0270   -2.3110    1.2970 hc        1 EQN      0.079500
     47 HAP         0.9930   -1.4610    3.4420 hc        1 EQN      0.076500
     48 HAPA        0.6820   -0.1470    2.2380 hc        1 EQN      0.076500
     49 HNAQ        5.9100   -0.0690   -4.3640 hn        1 EQN      0.315000
     50 CAS         4.9630    0.6830   -2.6590 c2        1 EQN      0.367000
@<TRIPOS>BOND
     1    1   24 1   
     2    1   26 1   
     3    1   27 1   
     4    1   28 1   
     5    2   24 1   
     6    2   29 1   
     7    2   30 1   
     8    2   31 1   
     9    3   25 1   
    10    3   32 1   
    11    3   33 1   
    12    3   34 1   
    13    4   25 1   
    14    4   35 1   
    15    4   36 1   
    16    4   37 1   
    17    5   18 1   
    18    6   50 1   
    19    7   18 1   
    20    8   10 1   
    21    8   38 1   
    22    8   40 1   
    23    9   11 1   
    24    9   19 1   
    25   10   20 1   
    26   12   13 1   
    27   12   21 1   
    28   12   42 1   
    29   13   22 1   
    30   13   43 1   
    31   14   21 1   
    32   14   23 1   
    33   15   16 1   
    34   15   24 1   
    35   15   45 1   
    36   15   46 1   
    37   16   25 1   
    38   16   47 1   
    39   16   48 1   
    40   17   19 1   
    41   17   49 1   
    42   17   50 1   
    43   18   20 1   
    44   19   39 1   
    45   20   41 1   
    46   21   50 1   
    47   22   23 1   
    48   22   25 1   
    49   23   24 1   
    50   23   44 1   
@<TRIPOS>SUBSTRUCTURE
     1 EQN         1 TEMP              0 ****  ****    0 ROOT
