@<TRIPOS>MOLECULE
EQN
   50    52     1     0     0
SMALL
bcc


@<TRIPOS>ATOM
      1 CAA         3.9300    2.0270   -1.7670 c3        1 EQN     -0.086600
      2 CAB         3.8560    2.9040    0.5530 c3        1 EQN     -0.086600
      3 CAC         5.5600   -1.4660    1.5820 c3        1 EQN     -0.084100
      4 CAD         5.0740   -2.5060   -0.6180 c3        1 EQN     -0.084100
      5 OAE        -7.8080   -0.9570   -1.1060 o         1 EQN     -0.831800
      6 OAF        -0.8840    1.4470    1.1370 o         1 EQN     -0.601100
      7 OAG        -7.8240    0.8000    0.2730 o         1 EQN     -0.831800
      8 CAH        -3.6240   -1.2840   -0.8240 ca        1 EQN     -0.186500
      9 CAI        -3.6210    0.6280    0.6790 ca        1 EQN     -0.186500
     10 CAJ        -5.0060   -1.1890   -0.9300 ca        1 EQN     -0.090500
     11 CAK        -5.0080    0.7030    0.5540 ca        1 EQN     -0.090500
     12 CAL         1.2540   -1.3750    0.7990 ca        1 EQN     -0.111000
     13 CAM         2.6000   -1.7070    0.6960 ca        1 EQN     -0.141000
     14 CAN         1.7950    0.8890    0.1640 ca        1 EQN     -0.083000
     15 CAO         5.5680    1.2350   -0.0500 c3        1 EQN     -0.069400
     16 CAP         5.8440   -0.1650   -0.5360 c3        1 EQN     -0.069400
     17 NAQ        -1.5080   -0.5300    0.0860 n         1 EQN     -0.452100
     18 CAR        -7.2280   -0.1110   -0.3680 c         1 EQN      0.909200
     19 CAT        -2.9090   -0.3720   -0.0100 ca        1 EQN      0.015600
     20 CAU        -5.7150   -0.1980   -0.2430 ca        1 EQN     -0.135600
     21 CAV         0.8450   -0.0690    0.5150 ca        1 EQN     -0.136600
     22 CAW         3.5620   -0.7590    0.3110 ca        1 EQN     -0.051300
     23 CAX         3.1570    0.5640    0.0690 ca        1 EQN     -0.069300
     24 CAY         4.1200    1.6610   -0.2970 c3        1 EQN     -0.003700
     25 CAZ         4.9930   -1.2100    0.1880 c3        1 EQN     -0.005700
     26 HAA         4.6020    2.8770   -2.0390 hc        1 EQN      0.037867
     27 HAAA        4.1680    1.1570   -2.4230 hc        1 EQN      0.037867
     28 HAAB        2.8720    2.3330   -1.9520 hc        1 EQN      0.037867
     29 HAB         2.9020    3.3980    0.2520 hc        1 EQN      0.037867
     30 HABA        3.7900    2.6290    1.6330 hc        1 EQN      0.037867
     31 HABB        4.6880    3.6370    0.4180 hc        1 EQN      0.037867
     32 HAC         6.6070   -1.8460    1.5050 hc        1 EQN      0.035867
     33 HACA        5.5620   -0.5260    2.1840 hc        1 EQN      0.035867
     34 HACB        4.9410   -2.2270    2.1150 hc        1 EQN      0.035867
     35 HAD         4.6670   -3.3650   -0.0350 hc        1 EQN      0.035867
     36 HADA        4.4950   -2.4100   -1.5670 hc        1 EQN      0.035867
     37 HADB        6.1400   -2.7280   -0.8680 hc        1 EQN      0.035867
     38 HAH        -3.0950   -2.0730   -1.3760 ha        1 EQN      0.125000
     39 HAI        -3.0920    1.3550    1.3130 ha        1 EQN      0.125000
     40 HAJ        -5.5750   -1.8940   -1.5580 ha        1 EQN      0.154000
     41 HAK        -5.5750    1.4830    1.0900 ha        1 EQN      0.154000
     42 HAL         0.5260   -2.1360    1.1150 ha        1 EQN      0.140000
     43 HAM         2.9150   -2.7360    0.9240 ha        1 EQN      0.130000
     44 HAN         1.4550    1.9200   -0.0310 ha        1 EQN      0.154000
     45 HAO         5.7870    1.3010    1.0490 hc        1 EQN      0.041700
     46 HAOA        6.2530    1.9540   -0.5720 hc        1 EQN      0.041700
     47 HAP         5.6400   -0.2270   -1.6380 hc        1 EQN      0.040700
     48 HAPA        6.9280   -0.4090   -0.3820 hc        1 EQN      0.040700
     49 HNAQ       -1.1450   -1.3360   -0.3730 hn        1 EQN      0.306500
     50 CAS        -0.5910    0.3540    0.6110 c         1 EQN      0.667700
@<TRIPOS>BOND
     1    1   24 1   
     2    1   26 1   
     3    1   27 1   
     4    1   28 1   
     5    2   24 1   
     6    2   29 1   
     7    2   30 1   
     8    2   31 1   
     9    3   25 1   
    10    3   32 1   
    11    3   33 1   
    12    3   34 1   
    13    4   25 1   
    14    4   35 1   
    15    4   36 1   
    16    4   37 1   
    17    5   18 1   
    18    6   50 2   
    19    7   18 1   
    20    8   10 ar  
    21    8   19 ar  
    22    8   38 1   
    23    9   11 ar  
    24    9   19 ar  
    25    9   39 1   
    26   10   20 ar  
    27   10   40 1   
    28   11   20 ar  
    29   11   41 1   
    30   12   13 ar  
    31   12   21 ar  
    32   12   42 1   
    33   13   22 ar  
    34   13   43 1   
    35   14   21 ar  
    36   14   23 ar  
    37   14   44 1   
    38   15   16 1   
    39   15   24 1   
    40   15   45 1   
    41   15   46 1   
    42   16   25 1   
    43   16   47 1   
    44   16   48 1   
    45   17   19 1   
    46   17   49 1   
    47   17   50 1   
    48   18   20 1   
    49   21   50 1   
    50   22   23 ar  
    51   22   25 1   
    52   23   24 1   
@<TRIPOS>SUBSTRUCTURE
     1 EQN         1 TEMP              0 ****  ****    0 ROOT
