@<TRIPOS>MOLECULE
EQN
   50    49     1     0     0
SMALL
bcc


@<TRIPOS>ATOM
      1 CAA         0.7980   -1.3270   -0.7420 c3        1 EQN     -0.213000
      2 CAB         1.0780   -2.4750    1.4480 c3        1 EQN     -0.213000
      3 CAC         4.1330   -0.1660    2.2810 c3        1 EQN     -0.216500
      4 CAD         5.6530    0.9550    0.7070 c3        1 EQN     -0.216500
      5 OAE         6.4500    1.8450   -2.3810 o         1 EQN     -0.581500
      6 OAF         4.2220   -3.7420   -4.2090 o         1 EQN     -0.350000
      7 OAG         4.4340    2.7220   -2.1290 o         1 EQN     -0.581500
      8 CAH         8.4420    4.9190   -3.6230 c2        1 EQN     -0.237000
      9 CAI         2.2780   -7.2160   -3.1150 c1        1 EQN     -0.676000
     10 CAJ         7.2310    4.4720   -3.4710 c1        1 EQN     -0.120000
     11 CAK         1.6990   -8.2900   -2.8300 c1        1 EQN      0.076000
     12 CAL         4.3290   -1.4930   -2.4180 c2        1 EQN      0.128000
     13 CAM         4.4450   -0.4650   -1.4460 c2        1 EQN     -0.227000
     14 CAN         3.0780   -2.8890   -0.8630 c1        1 EQN     -0.147000
     15 CAO         2.3570    1.9830    1.5260 c2        1 EQN     -0.258000
     16 CAP         3.2820    1.5730    0.6640 c2        1 EQN     -0.139000
     17 NAQ         3.0170   -4.9790   -2.6840 ns        1 EQN     -0.282000
     18 CAR         5.6260    2.7890   -2.5610 c2        1 EQN      0.357000
     19 CAT         2.9160   -6.0760   -3.4650 c2        1 EQN      0.298000
     20 CAU         6.0180    4.0290   -3.3180 c2        1 EQN     -0.156000
     21 CAV         3.7190   -2.6990   -2.0960 c2        1 EQN     -0.301000
     22 CAW         3.9340   -0.6140   -0.1860 c2        1 EQN      0.034000
     23 CAX         3.1140   -1.8220    0.1450 c3        1 EQN     -0.135000
     24 CAY         1.6560   -1.4460    0.5000 c3        1 EQN     -0.056000
     25 CAZ         4.2250    0.4200    0.8760 c3        1 EQN     -0.009000
     26 HAA         1.2470   -0.5950   -1.4560 hc        1 EQN      0.078000
     27 HAAA        0.7040   -2.3170   -1.2530 hc        1 EQN      0.078000
     28 HAAB       -0.2240   -0.9710   -0.4660 hc        1 EQN      0.078000
     29 HAB         1.1600   -3.4960    1.0040 hc        1 EQN      0.078000
     30 HABA        1.6260   -2.4620    2.4210 hc        1 EQN      0.078000
     31 HABB        0.0010   -2.2520    1.6450 hc        1 EQN      0.078000
     32 HAC         3.1200   -0.5810    2.4980 hc        1 EQN      0.085500
     33 HACA        4.3490    0.6330    3.0310 hc        1 EQN      0.085500
     34 HACB        4.8880   -0.9790    2.4050 hc        1 EQN      0.085500
     35 HAD         6.3780    0.1080    0.6860 hc        1 EQN      0.085500
     36 HADA        5.7550    1.5420   -0.2460 hc        1 EQN      0.085500
     37 HADB        5.9040    1.6250    1.5630 hc        1 EQN      0.085500
     38 HAH         8.9110    5.6040   -2.9040 ha        1 EQN      0.107000
     39 HAI         3.4090   -5.9920   -4.4650 h4        1 EQN      0.158000
     40 HAJ         9.0740    4.6230   -4.4710 ha        1 EQN      0.107000
     41 HAK         5.1600    4.5820   -3.7390 ha        1 EQN      0.130000
     42 HAL         4.7530   -1.3190   -3.4250 ha        1 EQN      0.165000
     43 HAM         4.9810    0.4730   -1.7490 ha        1 EQN      0.253000
     44 HAN         3.5820   -2.3070    1.0610 hc        1 EQN      0.155000
     45 HAO         1.6750   -0.4390    1.0100 hc        1 EQN      0.103000
     46 HAOA        2.1690    1.5090    2.4980 ha        1 EQN      0.100500
     47 HAP         1.7170    2.8480    1.3070 ha        1 EQN      0.100500
     48 HAPA        3.4500    2.0880   -0.3090 ha        1 EQN      0.203000
     49 HNAQ        2.6030   -4.9580   -1.7640 hn        1 EQN      0.286000
     50 CAS         3.6960   -3.7920   -3.0830 c2        1 EQN      0.372000
@<TRIPOS>BOND
     1    1   24 1   
     2    1   26 1   
     3    1   27 1   
     4    1   28 1   
     5    2   24 1   
     6    2   29 1   
     7    2   30 1   
     8    2   31 1   
     9    3   25 1   
    10    3   32 1   
    11    3   33 1   
    12    3   34 1   
    13    4   25 1   
    14    4   35 1   
    15    4   36 1   
    16    4   37 1   
    17    5   18 1   
    18    6   50 1   
    19    7   18 1   
    20    8   10 1   
    21    8   38 1   
    22    8   40 1   
    23    9   11 1   
    24    9   19 1   
    25   10   20 1   
    26   12   13 1   
    27   12   21 1   
    28   12   42 1   
    29   13   22 1   
    30   13   43 1   
    31   14   21 1   
    32   14   23 1   
    33   15   16 1   
    34   15   46 1   
    35   15   47 1   
    36   16   25 1   
    37   16   48 1   
    38   17   19 1   
    39   17   49 1   
    40   17   50 1   
    41   18   20 1   
    42   19   39 1   
    43   20   41 1   
    44   21   50 1   
    45   22   23 1   
    46   22   25 1   
    47   23   24 1   
    48   23   44 1   
    49   24   45 1   
@<TRIPOS>SUBSTRUCTURE
     1 EQN         1 TEMP              0 ****  ****    0 ROOT
