@<TRIPOS>MOLECULE
EQN
   51    49     1     0     0
SMALL
bcc


@<TRIPOS>ATOM
      1 CAA         0.6310   -0.4970   -0.6510 c3        1 EQN     -0.216000
      2 CAB         0.7940   -2.9210   -0.1050 c3        1 EQN     -0.216000
      3 CAC         2.6550   -1.9380    3.2950 c3        1 EQN     -0.210000
      4 CAD         3.8000    0.1850    3.7780 c3        1 EQN     -0.210000
      5 OAE        10.9110    1.6640   -5.5470 o         1 EQN     -0.207500
      6 OAF         5.4980    0.6700   -2.9810 o         1 EQN     -0.351000
      7 OAG        12.0870    0.3210   -7.1190 o         1 EQN     -0.207500
      8 CAH         7.4250    1.9030   -5.5260 c3        1 EQN     -0.130000
      9 CAI         4.4330   -2.3590   -5.6070 c1        1 EQN     -0.669000
     10 CAJ         7.1020    0.9410   -6.5280 c1        1 EQN     -0.178000
     11 CAK         4.1260   -3.2660   -6.4240 c1        1 EQN      0.132000
     12 CAL         4.4450    0.7200   -0.3470 c2        1 EQN      0.090000
     13 CAM         3.9550    0.6540    0.9930 c2        1 EQN     -0.236000
     14 CAN         3.2720   -1.3370   -0.9080 c1        1 EQN     -0.098000
     15 CAO         0.3670   -0.2140    3.6550 c2        1 EQN     -0.205000
     16 CAP         1.4600    0.2670    3.0670 c2        1 EQN     -0.162000
     17 NAQ         4.3480   -1.2670   -3.4870 n         1 EQN     -0.292000
     18 CAR        11.4960    0.9910   -6.3340 c1        1 EQN      0.415000
     19 CAT         4.7910   -1.3670   -4.7710 c2        1 EQN      0.296000
     20 CAU         6.8290    0.1310   -7.3670 c1        1 EQN     -0.224000
     21 CAV         4.1460   -0.2800   -1.2450 c2        1 EQN     -0.261000
     22 CAW         3.1540   -0.3640    1.4200 c2        1 EQN      0.027000
     23 CAX         2.7150   -1.4130    0.4440 c3        1 EQN     -0.143000
     24 CAY         1.1760   -1.5200    0.3240 c3        1 EQN     -0.054000
     25 CAZ         2.7520   -0.4750    2.8740 c3        1 EQN     -0.007000
     26 HAA         1.0110   -0.6970   -1.6830 hc        1 EQN      0.083667
     27 HAAA       -0.4850   -0.5480   -0.6690 hc        1 EQN      0.083667
     28 HAAB        0.9330    0.5340   -0.3490 hc        1 EQN      0.083667
     29 HAB        -0.3080   -2.9800   -0.2740 hc        1 EQN      0.083667
     30 HABA        1.0730   -3.6610    0.6840 hc        1 EQN      0.083667
     31 HABB        1.3200   -3.1920   -1.0530 hc        1 EQN      0.083667
     32 HAC         1.8540   -2.4740    2.7320 hc        1 EQN      0.085000
     33 HACA        2.4210   -2.0040    4.3860 hc        1 EQN      0.085000
     34 HACB        3.6310   -2.4520    3.1150 hc        1 EQN      0.085000
     35 HAD         3.5930   -0.0760    4.8440 hc        1 EQN      0.085000
     36 HADA        3.7690    1.2960    3.6840 hc        1 EQN      0.085000
     37 HADB        4.8220   -0.1770    3.5130 hc        1 EQN      0.085000
     38 HAH         7.1030    2.9280   -5.8460 hc        1 EQN      0.102000
     39 HAI         5.4900   -0.5570   -5.1040 h4        1 EQN      0.174000
     40 HAJ         8.5320    1.9230   -5.3400 hc        1 EQN      0.102000
     41 HAK         6.5790   -0.5910   -8.1030 ha        1 EQN      0.228000
     42 HAL         5.0830    1.5750   -0.6380 ha        1 EQN      0.162000
     43 HAM         4.2770    1.4580    1.6750 ha        1 EQN      0.150000
     44 HAN         3.0940   -2.4120    0.8440 hc        1 EQN      0.174000
     45 HAO         0.7340   -1.3140    1.3410 hc        1 EQN      0.096000
     46 HAOA        0.2870   -1.2360    4.0490 ha        1 EQN      0.119500
     47 HAP        -0.5350    0.4000    3.7810 ha        1 EQN      0.119500
     48 HAPA        1.4880    1.3020    2.6870 ha        1 EQN      0.126000
     49 HNAQ        3.7150   -1.9580   -3.1170 hn        1 EQN      0.283000
     50 HAQ2        6.9060    1.6530   -4.5620 hc        1 EQN      0.102000
     51 CAS         4.7220   -0.2290   -2.6110 c2        1 EQN      0.368000
@<TRIPOS>BOND
     1    1   24 1   
     2    1   26 1   
     3    1   27 1   
     4    1   28 1   
     5    2   24 1   
     6    2   29 1   
     7    2   30 1   
     8    2   31 1   
     9    3   25 1   
    10    3   32 1   
    11    3   33 1   
    12    3   34 1   
    13    4   25 1   
    14    4   35 1   
    15    4   36 1   
    16    4   37 1   
    17    5   18 1   
    18    6   51 1   
    19    7   18 1   
    20    8   10 1   
    21    8   38 1   
    22    8   40 1   
    23    8   50 1   
    24    9   11 1   
    25    9   19 1   
    26   10   20 1   
    27   12   13 1   
    28   12   21 1   
    29   12   42 1   
    30   13   22 1   
    31   13   43 1   
    32   14   21 1   
    33   14   23 1   
    34   15   16 1   
    35   15   46 1   
    36   15   47 1   
    37   16   25 1   
    38   16   48 1   
    39   17   19 1   
    40   17   49 1   
    41   17   51 1   
    42   19   39 1   
    43   20   41 1   
    44   21   51 1   
    45   22   23 1   
    46   22   25 1   
    47   23   24 1   
    48   23   44 1   
    49   24   45 1   
@<TRIPOS>SUBSTRUCTURE
     1 EQN         1 TEMP              0 ****  ****    0 ROOT
