@<TRIPOS>MOLECULE
EQN
   50    46     1     0     0
SMALL
bcc


@<TRIPOS>ATOM
      1 CAA        -3.9430    0.4470    0.7680 c3        1 EQN     -0.085350
      2 CAB        -3.2360   -1.9790    0.6070 c3        1 EQN     -0.085350
      3 CAC        -0.7950   -1.0120    4.5310 c3        1 EQN     -0.085350
      4 CAD        -1.0170    1.4610    4.3340 c3        1 EQN     -0.085350
      5 OAE         4.3030    0.1750   -8.0490 o         1 EQN     -0.831800
      6 OAF         0.3710   -0.1220   -2.7220 o         1 EQN     -0.601100
      7 OAG         6.2630    0.5750   -7.1790 o         1 EQN     -0.831800
      8 CAH         3.4660    1.6290   -3.7960 c1        1 EQN     -0.089000
      9 CAI         3.2180   -0.7630   -3.9450 c1        1 EQN     -0.111500
     10 CAJ         4.1730    1.6260   -4.9960 c1        1 EQN     -0.089000
     11 CAK         3.9150   -0.7650   -5.1290 c1        1 EQN     -0.034500
     12 CAL         1.2490    0.4110    0.7940 c1        1 EQN     -0.053500
     13 CAM         0.6820    0.3840    2.0940 c1        1 EQN     -0.054500
     14 CAN        -0.9410   -0.2120   -0.1840 c1        1 EQN     -0.054500
     15 CAO        -3.3800   -0.8960    2.6800 c3        1 EQN     -0.069400
     16 CAP        -2.7920   -0.0090    3.6730 c3        1 EQN     -0.069400
     17 NAQ         2.4120    0.4220   -1.9340 n         1 EQN     -0.465700
     18 CAR         5.0210    0.3970   -7.0420 c         1 EQN      0.857800
     19 CAS         1.0570    0.1220   -1.7640 c         1 EQN      0.616300
     20 CAT         2.9890    0.4400   -3.2700 c1        1 EQN      0.029200
     21 CAU         4.3980    0.4400   -5.6610 cg        1 EQN     -0.084200
     22 CAV         0.4370    0.1130   -0.3510 cg        1 EQN     -0.085200
     23 CAW        -0.6680    0.0660    2.2600 c1        1 EQN     -0.026100
     24 CAX        -1.5000   -0.2400    1.0850 c1        1 EQN     -0.026100
     25 CAY        -3.0130   -0.6850    1.3430 c3        1 EQN     -0.038900
     26 CAZ        -1.3760    0.1150    3.6680 c3        1 EQN     -0.038900
     27 HAA        -3.6780    1.3010    1.1340 hc        1 EQN      0.036867
     28 HAAA       -4.8680    0.2630    1.0110 hc        1 EQN      0.036867
     29 HAAB       -3.8630    0.4710   -0.1970 hc        1 EQN      0.036867
     30 HAB        -2.4990   -2.6030    0.8080 hc        1 EQN      0.036867
     31 HABA       -4.1090   -2.3860    0.9010 hc        1 EQN      0.036867
     32 HABB       -3.2640   -1.8120   -0.3260 hc        1 EQN      0.036867
     33 HAC        -0.9410   -1.8690    4.0890 hc        1 EQN      0.036867
     34 HACA        0.1760   -0.8650    4.6530 hc        1 EQN      0.036867
     35 HACB       -1.2560   -1.0170    5.4420 hc        1 EQN      0.036867
     36 HAD        -1.5890    1.5920    5.1550 hc        1 EQN      0.036867
     37 HADA       -0.0640    1.4570    4.5950 hc        1 EQN      0.036867
     38 HADB       -1.1860    2.2220    3.6760 hc        1 EQN      0.036867
     39 HAH         3.3080    2.4650   -3.3280 ha        1 EQN      0.070500
     40 HAI         2.8770   -1.6140   -3.5690 ha        1 EQN      0.089500
     41 HAJ         4.4480    2.4800   -5.4070 ha        1 EQN      0.070500
     42 HAK         4.0750   -1.6060   -5.5990 ha        1 EQN      0.097500
     43 HAL         2.1870    0.6320    0.6790 ha        1 EQN      0.082500
     44 HAM         1.2450    0.5910    2.8880 ha        1 EQN      0.084500
     45 HAN        -1.4990   -0.4170   -0.9740 ha        1 EQN      0.084500
     46 HAO        -4.3570   -0.8110    2.7410 hc        1 EQN      0.041200
     47 HAOA       -3.1360   -1.8290    2.9200 hc        1 EQN      0.041200
     48 HAP        -3.0620   -0.3260    4.5570 hc        1 EQN      0.041200
     49 HAPA       -3.1630    0.8630    3.5440 hc        1 EQN      0.041200
     50 HNAQ        2.9230    0.6810   -1.2080 hn        1 EQN      0.306500
@<TRIPOS>BOND
     1    1   25 1   
     2    1   27 1   
     3    1   28 1   
     4    1   29 1   
     5    2   25 1   
     6    2   30 1   
     7    2   31 1   
     8    2   32 1   
     9    3   26 1   
    10    3   33 1   
    11    3   34 1   
    12    3   35 1   
    13    4   26 1   
    14    4   36 1   
    15    4   37 1   
    16    4   38 1   
    17    5   18 1   
    18    6   19 2   
    19    7   18 1   
    20    8   10 3   
    21    8   39 1   
    22    9   20 3   
    23    9   40 1   
    24   10   41 1   
    25   11   21 3   
    26   11   42 1   
    27   12   22 3   
    28   12   43 1   
    29   13   23 3   
    30   13   44 1   
    31   14   24 3   
    32   14   45 1   
    33   15   16 1   
    34   15   25 1   
    35   15   46 1   
    36   15   47 1   
    37   16   26 1   
    38   16   48 1   
    39   16   49 1   
    40   17   19 1   
    41   17   20 1   
    42   17   50 1   
    43   18   21 1   
    44   19   22 1   
    45   23   26 1   
    46   24   25 1   
@<TRIPOS>SUBSTRUCTURE
     1 EQN         1 TEMP              0 ****  ****    0 ROOT
