@<TRIPOS>MOLECULE
EQO
   54    57     1     0     0
SMALL
bcc


@<TRIPOS>ATOM
      1 CAA         0.0000    0.0000    0.0000 c3        1 EQO     -0.170500
      2 CAB         0.1300   -0.9490    2.3070 c3        1 EQO     -0.170500
      3 OAC        -0.0420  -13.2400   -2.9380 o         1 EQO     -0.593500
      4 OAD         2.0890  -12.5440   -4.1390 o         1 EQO     -0.593500
      5 CAE         3.9200   -1.0730   -1.9680 c1        1 EQO     -0.140000
      6 CAF         4.6180   -1.0650   -2.9110 c1        1 EQO     -0.109000
      7 CAG         1.3490   -7.0080   -0.9130 c2        1 EQO     -0.694000
      8 CAH         2.1030   -5.9450   -1.2380 c2        1 EQO     -0.125000
      9 CAI         3.0340    0.0000    0.0000 c2        1 EQO     -0.132000
     10 CAJ         7.7570    0.0000   -6.3260 c2        1 EQO     -0.083000
     11 CAK         7.7890    0.5350   -5.2990 c2        1 EQO     -0.070000
     12 CAL         6.9890   -0.8460   -6.7330 c2        1 EQO     -0.070000
     13 CAM         6.9710    0.2790   -4.4240 c2        1 EQO     -0.151000
     14 CAN         6.0140   -1.1850   -5.7600 c2        1 EQO     -0.151000
     15 CAO         0.1410   -9.4850   -1.0800 c2        1 EQO     -0.149500
     16 CAP         2.0610   -8.6800   -2.3190 c2        1 EQO     -0.149500
     17 CAQ         0.7170   -4.4690    0.2080 ca        1 EQO     -0.161000
     18 CAR         0.3290  -10.7330   -1.6010 c2        1 EQO     -0.124500
     19 CAS         2.2490   -9.9290   -2.8400 c2        1 EQO     -0.124500
     20 CAT         0.4240   -3.2300    0.7400 ca        1 EQO     -0.139000
     21 CAU         2.5760   -3.5130   -1.0070 ca        1 EQO     -0.085000
     22 CAV         2.1700    0.0000    1.2300 c3        1 EQO     -0.166000
     23 CAW         1.1770  -12.3240   -3.2390 c2        1 EQO      0.402000
     24 CAX         3.0880   -1.0770   -0.8020 c2        1 EQO      0.078000
     25 CAY         5.9200   -0.6480   -4.5120 c1        1 EQO      0.170000
     26 CAZ         1.0050   -8.4430   -1.4330 c3        1 EQO      0.154000
     27 CBA         1.7940   -4.6210   -0.6700 ca        1 EQO      0.304000
     28 CBB         1.3850  -10.9710   -2.4860 c2        1 EQO     -0.117000
     29 CBC         2.2730   -2.2730   -0.4650 ca        1 EQO     -0.043000
     30 CBD         1.1940   -2.1320    0.4100 ca        1 EQO     -0.113000
     31 CBE         0.8790   -0.7760    0.9840 c3        1 EQO      0.030000
     32 HAA        -0.6650    0.8530    0.0660 hc        1 EQO      0.054833
     33 HAAA        0.6360    0.0900   -0.8720 hc        1 EQO      0.054833
     34 HAAB       -0.7930   -0.6650   -0.3210 hc        1 EQO      0.054833
     35 HAB        -0.6700   -1.6230    2.0230 hc        1 EQO      0.054833
     36 HABA        0.5250   -1.8280    2.8010 hc        1 EQO      0.054833
     37 HABB        0.0140   -0.1740    3.0550 hc        1 EQO      0.054833
     38 HAG         1.7670   -7.9560   -1.2300 DU        1 EQO      0.325000
     39 HAH         1.8170   -5.1150   -0.6030 ha        1 EQO     -0.014000
     40 HAI         3.7610    0.8030    0.0210 ha        1 EQO      0.103000
     41 HAJ         8.3110    0.4660   -7.1320 ha        1 EQO      0.077000
     42 HAK         8.5350    1.2600   -4.9960 ha        1 EQO      0.113000
     43 HAL         6.8760   -1.5680   -7.5320 ha        1 EQO      0.113000
     44 HAM         7.0090    0.7940   -3.4720 ha        1 EQO      0.100500
     45 HAN         5.3520   -2.0030   -6.0160 ha        1 EQO      0.100500
     46 HAO        -0.7760   -9.5390   -0.5060 ha        1 EQO      0.140000
     47 HAP         2.8350   -8.0960   -2.8030 ha        1 EQO      0.140000
     48 HAQ         0.0020   -5.0840    0.7410 ha        1 EQO      0.133000
     49 HAR        -0.5150  -11.4120   -1.6280 ha        1 EQO      0.179500
     50 HAS         2.7900  -10.5850   -3.5110 ha        1 EQO      0.179500
     51 HAT        -0.5040   -2.9580    1.2290 ha        1 EQO      0.115000
     52 HAU         3.6100   -3.4990   -0.6830 ha        1 EQO      0.125000
     53 HAV         2.8110   -0.3290    2.0390 hc        1 EQO      0.115000
     54 HAVA        1.3480    0.7050    1.2300 hc        1 EQO      0.115000
@<TRIPOS>BOND
     1    1   31 1   
     2    1   32 1   
     3    1   33 1   
     4    1   34 1   
     5    2   31 1   
     6    2   35 1   
     7    2   36 1   
     8    2   37 1   
     9    3   23 1   
    10    4   23 1   
    11    5    6 1   
    12    5   24 1   
    13    7    8 1   
    14    7   26 1   
    15    7   38 1   
    16    8   27 1   
    17    8   39 1   
    18    9   22 1   
    19    9   24 1   
    20    9   40 1   
    21   10   11 1   
    22   10   12 1   
    23   10   41 1   
    24   11   13 1   
    25   11   42 1   
    26   12   14 1   
    27   12   43 1   
    28   13   25 1   
    29   13   44 1   
    30   14   25 1   
    31   14   45 1   
    32   15   18 1   
    33   15   26 1   
    34   15   46 1   
    35   16   19 1   
    36   16   26 1   
    37   16   47 1   
    38   17   20 1   
    39   17   27 1   
    40   17   48 1   
    41   18   28 1   
    42   18   49 1   
    43   19   28 1   
    44   19   50 1   
    45   20   30 1   
    46   20   51 1   
    47   21   27 1   
    48   21   29 1   
    49   21   52 1   
    50   22   31 1   
    51   22   53 1   
    52   22   54 1   
    53   23   28 1   
    54   24   29 1   
    55   26   38 1   
    56   29   30 1   
    57   30   31 1   
@<TRIPOS>SUBSTRUCTURE
     1 EQO         1 TEMP              0 ****  ****    0 ROOT
