@<TRIPOS>MOLECULE
EQO
   54    44     1     0     0
SMALL
bcc


@<TRIPOS>ATOM
      1 CAA        -2.5150    3.4800    2.2840 c3        1 EQO     -0.204500
      2 CAB        -2.0390    2.1770    4.2910 c3        1 EQO     -0.204500
      3 OAC        -0.6660   -8.5440   -0.9030 o         1 EQO     -0.562500
      4 OAD        -2.0140   -8.0220   -2.5360 o         1 EQO     -0.562500
      5 CAE         1.7360    2.4990   -0.0560 c1        1 EQO     -0.107500
      6 CAF         2.5180    2.5380   -0.9550 c1        1 EQO     -0.107500
      7 CAG        -1.6520   -2.3880   -1.4300 c1        1 EQO     -0.124125
      8 CAH        -1.5600   -1.1180   -1.0000 c1        1 EQO     -0.124125
      9 CAI         0.7930    3.4910    2.1720 c1        1 EQO     -0.132000
     10 CAJ         5.2580    2.3510   -4.2350 c1        1 EQO     -0.124125
     11 CAK         4.6360    1.2240   -3.7200 c1        1 EQO     -0.124125
     12 CAL         5.0060    3.5960   -3.6810 c1        1 EQO     -0.124125
     13 CAM         3.7620    1.3430   -2.6500 c1        1 EQO     -0.124125
     14 CAN         4.1330    3.7150   -2.6110 c1        1 EQO     -0.119000
     15 CAO        -2.2720   -4.3760   -0.0280 c1        1 EQO     -0.119000
     16 CAP        -0.2720   -4.0230   -1.3060 c1        1 EQO     -0.124125
     17 CAQ        -2.0760   -0.7940    1.3630 c1        1 EQO     -0.119000
     18 CAR        -2.2410   -5.7230   -0.3520 c1        1 EQO     -0.116000
     19 CAS        -0.2410   -5.3690   -1.6310 c1        1 EQO     -0.124125
     20 CAT        -2.1820    0.2960    2.2140 c1        1 EQO     -0.129000
     21 CAU        -0.1820    0.2290    0.2880 c1        1 EQO     -0.113000
     22 CAV        -0.2700    3.5070    3.2540 c2        1 EQO     -0.126000
     23 CAW        -1.3090   -7.6770   -1.5510 c2        1 EQO      0.354000
     24 CAX         0.7450    2.4480    1.0850 c1        1 EQO      0.033000
     25 CAY         3.5110    2.5880   -2.0960 c1        1 EQO     -0.029333
     26 CAZ        -1.2880   -3.5260   -0.5050 c1        1 EQO     -0.029333
     27 CBA        -1.0750   -0.8280    0.3990 c1        1 EQO     -0.029333
     28 CBB        -1.2250   -6.2190   -1.1540 c1        1 EQO     -0.088000
     29 CBC        -0.2890    1.3310    1.1480 c2        1 EQO     -0.046000
     30 CBD        -1.2800    1.3640    2.1020 c2        1 EQO     -0.059000
     31 CBE        -1.4730    2.6210    2.9640 c3        1 EQO     -0.008000
     32 HAA        -2.1590    3.8140    1.4340 hc        1 EQO      0.077000
     33 HAAA       -2.7410    4.2370    2.8630 hc        1 EQO      0.077000
     34 HAAB       -3.3180    2.9460    2.1150 hc        1 EQO      0.077000
     35 HAB        -2.7950    1.5760    4.1380 hc        1 EQO      0.077000
     36 HABA       -2.3410    2.9600    4.7950 hc        1 EQO      0.077000
     37 HABB       -1.3460    1.7080    4.8010 hc        1 EQO      0.077000
     38 HAG        -1.9660   -2.5760   -2.3340 ha        1 EQO      0.127500
     39 HAH        -1.7950   -0.3830   -1.5980 ha        1 EQO      0.127500
     40 HAI         1.5400    4.1190    2.2130 ha        1 EQO      0.125000
     41 HAJ         5.8570    2.2700   -5.0010 ha        1 EQO      0.127500
     42 HAK         4.8090    0.3480   -4.1140 ha        1 EQO      0.127500
     43 HAL         5.4630    4.3860   -4.0280 ha        1 EQO      0.127500
     44 HAM         3.3400    0.5460   -2.2730 ha        1 EQO      0.127500
     45 HAN         4.0290    4.6460   -2.3300 ha        1 EQO      0.135333
     46 HAO        -2.9880   -4.0260    0.5370 ha        1 EQO      0.135333
     47 HAP         0.4220   -3.4230   -1.6420 ha        1 EQO      0.127500
     48 HAQ        -2.6930   -1.5440    1.4510 ha        1 EQO      0.135333
     49 HAR        -2.9350   -6.3220   -0.0160 ha        1 EQO      0.153000
     50 HAS         0.4670   -5.7160   -2.2070 ha        1 EQO      0.127500
     51 HAT        -2.8790    0.3150    2.8970 ha        1 EQO      0.137000
     52 HAU         0.5070    0.2150   -0.4040 ha        1 EQO      0.132000
     53 HAV         0.1000    3.2820    4.1310 ha        1 EQO      0.092500
     54 HAVA       -0.5550    4.4290    3.4100 ha        1 EQO      0.092500
@<TRIPOS>BOND
     1    1   31 1   
     2    1   32 1   
     3    1   33 1   
     4    1   34 1   
     5    2   31 1   
     6    2   35 1   
     7    2   36 1   
     8    2   37 1   
     9    3   23 1   
    10    4   23 1   
    11    5    6 1   
    12    7    8 1   
    13    7   38 1   
    14    8   39 1   
    15    9   24 1   
    16    9   40 1   
    17   10   12 1   
    18   10   41 1   
    19   11   13 1   
    20   11   42 1   
    21   12   43 1   
    22   13   44 1   
    23   14   25 1   
    24   14   45 1   
    25   15   26 1   
    26   15   46 1   
    27   16   19 1   
    28   16   47 1   
    29   17   27 1   
    30   17   48 1   
    31   18   28 1   
    32   18   49 1   
    33   19   50 1   
    34   20   30 1   
    35   20   51 1   
    36   21   29 1   
    37   21   52 1   
    38   22   31 1   
    39   22   53 1   
    40   22   54 1   
    41   23   28 1   
    42   24   29 1   
    43   29   30 1   
    44   30   31 1   
@<TRIPOS>SUBSTRUCTURE
     1 EQO         1 TEMP              0 ****  ****    0 ROOT
