@<TRIPOS>MOLECULE
EQO
   54    57     1     0     0
SMALL
bcc


@<TRIPOS>ATOM
      1 CAA         4.3050    3.6730   -1.5990 c3        1 EQO     -0.085600
      2 CAB         3.6550    5.0770    0.3420 c3        1 EQO     -0.085600
      3 OAC        -8.6090   -0.6470    0.3440 o         1 EQO     -0.826300
      4 OAD        -7.6410   -2.5090   -0.4220 o         1 EQO     -0.826300
      5 CAE         3.6160   -0.6120    0.2760 cg        1 EQO     -0.126300
      6 CAF         3.5940   -1.8110    0.2200 ch        1 EQO     -0.117000
      7 CAG        -2.4870    1.4070   -0.0320 ce        1 EQO     -0.037200
      8 CAH        -1.2740    0.8450   -0.1820 cf        1 EQO     -0.178200
      9 CAI         4.7840    1.4620    0.6360 c2        1 EQO     -0.141200
     10 CAJ         3.4590   -6.0100    0.0230 ca        1 EQO     -0.126000
     11 CAK         4.6820   -5.3580    0.1780 ca        1 EQO     -0.134000
     12 CAL         2.2810   -5.2670   -0.0660 ca        1 EQO     -0.134000
     13 CAM         4.7340   -3.9680    0.2430 ca        1 EQO     -0.107500
     14 CAN         2.3210   -3.8770   -0.0020 ca        1 EQO     -0.107500
     15 CAO        -4.9120    1.3740    0.3730 ca        1 EQO     -0.132000
     16 CAP        -3.8640   -0.6360   -0.4640 ca        1 EQO     -0.132000
     17 CAQ         0.0520    2.9550   -0.4030 ca        1 EQO     -0.128000
     18 CAR        -6.1440    0.7290    0.3760 ca        1 EQO     -0.118500
     19 CAS        -5.1000   -1.2760   -0.4620 ca        1 EQO     -0.118500
     20 CAT         1.2780    3.6150   -0.3890 ca        1 EQO     -0.129000
     21 CAU         1.1750    0.8750    0.0630 ca        1 EQO     -0.112000
     22 CAV         4.8200    2.9360    0.7320 c3        1 EQO     -0.041200
     23 CAW        -7.6020   -1.3060   -0.0400 c         1 EQO      0.905200
     24 CAX         3.6460    0.7940    0.3400 ce        1 EQO      0.084100
     25 CAY         3.5520   -3.2140    0.1540 ca        1 EQO      0.030000
     26 CAZ        -3.7500    0.6980   -0.0440 ca        1 EQO     -0.117800
     27 CBA        -0.0190    1.5740   -0.1710 ca        1 EQO     -0.020800
     28 CBB        -6.2510   -0.6030   -0.0420 ca        1 EQO     -0.101600
     29 CBC         2.4080    1.5340    0.0820 ca        1 EQO     -0.046800
     30 CBD         2.4680    2.9250   -0.1390 ca        1 EQO     -0.075300
     31 CBE         3.7910    3.6420   -0.1610 c3        1 EQO      0.000300
     32 HAA         5.2470    4.2680   -1.6570 hc        1 EQO      0.036200
     33 HAAA        4.5100    2.6350   -1.9550 hc        1 EQO      0.036200
     34 HAAB        3.5430    4.1380   -2.2690 hc        1 EQO      0.036200
     35 HAB         3.1420    5.7150   -0.4170 hc        1 EQO      0.036200
     36 HABA        3.0690    5.1030    1.2900 hc        1 EQO      0.036200
     37 HABB        4.6670    5.5100    0.5310 hc        1 EQO      0.036200
     38 HAG        -2.5740    2.4970    0.1320 ha        1 EQO      0.110000
     39 HAH        -1.1740   -0.2470   -0.3090 ha        1 EQO      0.129000
     40 HAI         5.7230    0.9310    0.8480 ha        1 EQO      0.127000
     41 HAJ         3.4220   -7.1070   -0.0270 ha        1 EQO      0.129000
     42 HAK         5.6110   -5.9430    0.2480 ha        1 EQO      0.132500
     43 HAL         1.3150   -5.7790   -0.1870 ha        1 EQO      0.132500
     44 HAM         5.6990   -3.4550    0.3650 ha        1 EQO      0.140500
     45 HAN         1.3920   -3.2910   -0.0720 ha        1 EQO      0.140500
     46 HAO        -4.8400    2.4200    0.7030 ha        1 EQO      0.107500
     47 HAP        -2.9720   -1.1810   -0.8060 ha        1 EQO      0.107500
     48 HAQ        -0.8670    3.5250   -0.6060 ha        1 EQO      0.135000
     49 HAR        -7.0600    1.2460    0.7030 ha        1 EQO      0.154000
     50 HAS        -5.2010   -2.3230   -0.7910 ha        1 EQO      0.154000
     51 HAT         1.3000    4.6980   -0.5820 ha        1 EQO      0.126000
     52 HAU         1.1390   -0.2120    0.2400 ha        1 EQO      0.140000
     53 HAV         4.6320    3.2210    1.8050 hc        1 EQO      0.051700
     54 HAVA        5.8450    3.3100    0.4630 hc        1 EQO      0.051700
@<TRIPOS>BOND
     1    1   31 1   
     2    1   32 1   
     3    1   33 1   
     4    1   34 1   
     5    2   31 1   
     6    2   35 1   
     7    2   36 1   
     8    2   37 1   
     9    3   23 1   
    10    4   23 1   
    11    5    6 3   
    12    5   24 1   
    13    6   25 1   
    14    7    8 2   
    15    7   26 1   
    16    7   38 1   
    17    8   27 1   
    18    8   39 1   
    19    9   22 1   
    20    9   24 2   
    21    9   40 1   
    22   10   11 ar  
    23   10   12 ar  
    24   10   41 1   
    25   11   13 ar  
    26   11   42 1   
    27   12   14 ar  
    28   12   43 1   
    29   13   25 ar  
    30   13   44 1   
    31   14   25 ar  
    32   14   45 1   
    33   15   18 ar  
    34   15   26 ar  
    35   15   46 1   
    36   16   19 ar  
    37   16   26 ar  
    38   16   47 1   
    39   17   20 ar  
    40   17   27 ar  
    41   17   48 1   
    42   18   28 ar  
    43   18   49 1   
    44   19   28 ar  
    45   19   50 1   
    46   20   30 ar  
    47   20   51 1   
    48   21   27 ar  
    49   21   29 ar  
    50   21   52 1   
    51   22   31 1   
    52   22   53 1   
    53   22   54 1   
    54   23   28 1   
    55   24   29 1   
    56   29   30 ar  
    57   30   31 1   
@<TRIPOS>SUBSTRUCTURE
     1 EQO         1 TEMP              0 ****  ****    0 ROOT
