@<TRIPOS>MOLECULE
EQP
   39    39     1     0     0
SMALL
bcc


@<TRIPOS>ATOM
      1 P1          0.6100    0.9190   -2.4300 p5        1 EQP      1.227700
      2 C2         -0.2360   -0.4580   -1.4630 c3        1 EQP     -0.032100
      3 C3         -1.5710    0.0610   -1.0540 c3        1 EQP     -0.087400
      4 C4         -2.0300   -0.6500    0.2140 c3        1 EQP      0.115100
      5 C5         -1.0150   -0.3220    1.3330 c3        1 EQP      0.030700
      6 C6          0.4120   -0.7480    0.9000 c3        1 EQP      0.128100
      7 C7          1.4510    0.0960    1.6790 c3        1 EQP      0.137100
      8 C8          2.8950   -0.2650    1.2740 c3        1 EQP      0.097100
      9 C9          3.3490    0.3520   -0.0620 c3        1 EQP      0.112400
     10 C11        -2.6780   -1.2200    4.6700 c3        1 EQP     -0.178100
     11 N5         -1.3650   -0.9150    2.6120 n         1 EQP     -0.534900
     12 O1P         0.7540    1.9570   -1.3340 o         1 EQP     -0.931167
     13 O2P         1.9210    0.2950   -2.8400 o         1 EQP     -0.931167
     14 O3P        -0.3760    1.2250   -3.5180 o         1 EQP     -0.931167
     15 O4         -3.3520   -0.2900    0.5940 oh        1 EQP     -0.635800
     16 O6          0.7410   -0.5290   -0.4520 os        1 EQP     -0.371600
     17 O7          1.2210    1.4790    1.5480 oh        1 EQP     -0.668800
     18 O8          3.7610    0.1460    2.3340 oh        1 EQP     -0.644800
     19 O9          3.8370   -0.6680   -0.9060 oh        1 EQP     -0.675800
     20 O10        -2.8640    0.7170    3.2690 o         1 EQP     -0.633100
     21 H2         -0.2970   -1.4390   -1.9800 h1        1 EQP      0.018700
     22 H31        -2.3310   -0.1080   -1.8610 hc        1 EQP      0.069200
     23 H32        -1.4870    1.1700   -0.8800 hc        1 EQP      0.069200
     24 H4         -2.0910   -1.7600    0.0420 h1        1 EQP      0.042700
     25 H5         -1.0140    0.8050    1.4740 h1        1 EQP      0.115700
     26 H6          0.5670   -1.8430    1.1270 h1        1 EQP     -0.008300
     27 H7          1.3330   -0.1130    2.7820 h1        1 EQP      0.024700
     28 H8          3.0100   -1.3820    1.2340 h1        1 EQP      0.060700
     29 H91         2.5030    0.9100   -0.5780 h1        1 EQP      0.069700
     30 H92         4.2050    1.0530    0.1390 h1        1 EQP      0.069700
     31 H111       -3.4180   -0.6520    5.2820 hc        1 EQP      0.046367
     32 H112       -3.1310   -2.1920    4.3620 hc        1 EQP      0.046367
     33 H113       -1.7710   -1.4190    5.2890 hc        1 EQP      0.046367
     34 HN5        -1.0860   -1.8570    2.7510 hn        1 EQP      0.287500
     35 HO4        -3.3250    0.6400    0.8510 ho        1 EQP      0.410000
     36 HO7         1.0760    1.6840    0.5900 ho        1 EQP      0.504000
     37 HO8         3.6570    1.1030    2.3990 ho        1 EQP      0.395000
     38 HO9         3.2630   -0.6590   -1.7020 ho        1 EQP      0.482000
     39 C10        -2.3210   -0.3960    3.4470 c         1 EQP      0.658100
@<TRIPOS>BOND
     1    1    2 1   
     2    1   12 1   
     3    1   13 1   
     4    1   14 1   
     5    2    3 1   
     6    2   16 1   
     7    2   21 1   
     8    3    4 1   
     9    3   22 1   
    10    3   23 1   
    11    4    5 1   
    12    4   15 1   
    13    4   24 1   
    14    5    6 1   
    15    5   11 1   
    16    5   25 1   
    17    6    7 1   
    18    6   16 1   
    19    6   26 1   
    20    7    8 1   
    21    7   17 1   
    22    7   27 1   
    23    8    9 1   
    24    8   18 1   
    25    8   28 1   
    26    9   19 1   
    27    9   29 1   
    28    9   30 1   
    29   10   31 1   
    30   10   32 1   
    31   10   33 1   
    32   10   39 1   
    33   11   34 1   
    34   11   39 1   
    35   15   35 1   
    36   17   36 1   
    37   18   37 1   
    38   19   38 1   
    39   20   39 2   
@<TRIPOS>SUBSTRUCTURE
     1 EQP         1 TEMP              0 ****  ****    0 ROOT
