@<TRIPOS>MOLECULE
EQP
   39    38     1     0     0
SMALL
bcc


@<TRIPOS>ATOM
      1 P1      -1962.1490 -942.8810    0.9070 p3        1 EQP      2.361000
      2 C2        228.1970  106.4430 -141.7270 c3        1 EQP     -0.028000
      3 C3        229.7130  106.5020 -141.7440 c3        1 EQP     -0.220000
      4 C4        230.2030  107.2760 -142.9660 c3        1 EQP      0.027000
      5 C5        229.5060  108.6640 -142.9820 c3        1 EQP     -0.043000
      6 C6        227.9690  108.4190 -143.0120 c3        1 EQP     -0.001000
      7 C7        227.1460  109.7280 -143.0470 c3        1 EQP      0.029000
      8 C8        226.8720  110.1770 -144.5240 c3        1 EQP      0.100000
      9 C9        225.4560  110.4770 -144.7240 c2        1 EQP     -0.662000
     10 C11       231.1470  111.4990 -144.9020 c3        1 EQP     -0.243000
     11 N5        229.9660  109.5040 -144.0620 n         1 EQP     -0.339000
     12 O1P     -1962.2210 -941.4090    0.8760 o         1 EQP     -1.120000
     13 O2P     -1963.3570 -943.6730    0.1980 o         1 EQP     -1.120000
     14 O3P     -1960.8670 -943.5610    0.6470 o         1 EQP     -1.120000
     15 O4        231.6170  107.3570 -142.9420 oh        1 EQP     -0.345000
     16 O6        227.6180  107.7370 -141.8050 os        1 EQP     -0.230000
     17 O7        225.9530  109.5270 -142.3350 oh        1 EQP     -0.368000
     18 O8        227.7600  111.2850 -144.7830 oh        1 EQP     -0.426000
     19 O9        224.7720  109.7430 -145.6560 oh        1 EQP     -0.252000
     20 O10       231.7730  110.3210 -142.8940 o         1 EQP     -0.422000
     21 H2        227.8220  105.8030 -142.5700 h1        1 EQP      0.076500
     22 H31       227.8200  106.0350 -140.7520 h1        1 EQP      0.076500
     23 H32       230.0850  107.0070 -140.8150 hc        1 EQP      0.086000
     24 H4        230.1380  105.4680 -141.7640 hc        1 EQP      0.086000
     25 H5        229.9640  106.7060 -143.9060 h1        1 EQP      0.101000
     26 H6        229.7540  109.1680 -141.9970 h1        1 EQP      0.112000
     27 H7        227.7050  107.7690 -143.8910 h1        1 EQP      0.082000
     28 H8        227.7220  110.5260 -142.5020 h1        1 EQP      0.066000
     29 H91       227.2190  109.3720 -145.2330 h1        1 EQP      0.057000
     30 H92       225.0810  111.4810 -144.5220 h4        1 EQP      0.066000
     31 H111      230.1670  112.0080 -145.0850 hc        1 EQP      0.103667
     32 H112      231.8930  112.2430 -144.5360 hc        1 EQP      0.103667
     33 H113      231.5110  111.0560 -145.8600 hc        1 EQP      0.103667
     34 HN5       229.2840  109.7330 -144.7550 hn        1 EQP      0.252000
     35 HO4       231.8610  108.1670 -142.4720 ho        1 EQP      0.224000
     36 HO7       225.2170  109.6250 -142.9970 ho        1 EQP      0.264000
     37 HO8       227.2560  112.0870 -144.6220 ho        1 EQP      0.195000
     38 HO9       225.0120  110.0890 -146.5390 ho        1 EQP      0.067000
     39 C10       230.9850  110.4150 -143.8630 c2        1 EQP      0.304000
@<TRIPOS>BOND
     1    1   12 1   
     2    1   13 1   
     3    1   14 1   
     4    2    3 1   
     5    2   16 1   
     6    2   21 1   
     7    2   22 1   
     8    3    4 1   
     9    3   23 1   
    10    3   24 1   
    11    4    5 1   
    12    4   15 1   
    13    4   25 1   
    14    5    6 1   
    15    5   11 1   
    16    5   26 1   
    17    6    7 1   
    18    6   16 1   
    19    6   27 1   
    20    7    8 1   
    21    7   17 1   
    22    7   28 1   
    23    8    9 1   
    24    8   18 1   
    25    8   29 1   
    26    9   19 1   
    27    9   30 1   
    28   10   31 1   
    29   10   32 1   
    30   10   33 1   
    31   10   39 1   
    32   11   34 1   
    33   11   39 1   
    34   15   35 1   
    35   17   36 1   
    36   18   37 1   
    37   19   38 1   
    38   20   39 1   
@<TRIPOS>SUBSTRUCTURE
     1 EQP         1 TEMP              0 ****  ****    0 ROOT
