@<TRIPOS>MOLECULE
EQP
   40    52     1     0     0
SMALL
bcc


@<TRIPOS>ATOM
      1 P1          0.0000    0.0000    0.0000 p5        1 EQP      0.872500
      2 C2          1.8230    0.0000    0.0000 DU        1 EQP     -0.211000
      3 C3          2.3320    0.0000    1.4430 DU        1 EQP     -0.164000
      4 C4          3.8640   -0.0340    1.4310 DU        1 EQP     -0.007000
      5 C5          4.3740    1.1180    0.5590 DU        1 EQP     -0.423000
      6 C6          3.7100    1.0370   -0.8170 DU        1 EQP     -0.229000
      7 C7          4.2360    2.1660   -1.7050 DU        1 EQP     -0.096000
      8 C8          3.5790    2.0790   -3.0830 DU        1 EQP     -0.298000
      9 C9          4.1040    3.2070   -3.9720 c3        1 EQP     -0.241000
     10 C11         8.1360    1.5210    1.1380 c3        1 EQP     -0.488000
     11 N5          5.8270    1.0150    0.4090 ny        1 EQP      0.182000
     12 O1P        -0.5370    0.0010   -1.5160 o         1 EQP     -0.503833
     13 O2P        -0.5370   -1.3130    0.7600 o         1 EQP     -0.503833
     14 O3P        -0.4920    1.2090    0.6980 o         1 EQP     -0.503833
     15 O4          4.3610    0.1170    2.7630 oh        1 EQP     -0.270000
     16 O6          2.2970    1.1600   -0.6790 os        1 EQP     -0.012000
     17 O7          3.9230    3.4250   -1.1070 oh        1 EQP     -0.226000
     18 O8          3.8910    0.8180   -3.6800 oh        1 EQP     -0.466000
     19 O9          3.4920    3.1250   -5.2600 oh        1 EQP     -0.269000
     20 O10         6.1700    2.2620    2.2110 o         1 EQP     -0.323000
     21 H2          2.8070    0.3500    0.2860 DU        1 EQP      0.194500
     22 H31         2.2600   -0.4480    0.4590 DU        1 EQP      0.194500
     23 H32         1.9560   -0.8750    1.9590 ha        1 EQP      0.170000
     24 H4          2.9240    0.4370    1.6910 DU        1 EQP      0.055000
     25 H5          4.2880    0.0630    0.7880 DU        1 EQP      0.077000
     26 H6          3.9160    1.5560    0.1120 DU        1 EQP      0.154000
     27 H7          4.0890    1.1150   -1.4880 DU        1 EQP      0.147000
     28 H8          4.4530    2.0750   -2.4430 DU        1 EQP      0.179000
     29 H91         3.2970    2.6870   -3.4710 DU        1 EQP      0.203000
     30 H92         5.1780    3.1140   -4.0760 h1        1 EQP      0.054000
     31 H111        7.4610    1.9390    0.4020 DU        1 EQP      0.290000
     32 H112        8.5100    2.3730    0.5830 hc        1 EQP      0.141500
     33 H113        8.6490    1.4570    2.0900 hc        1 EQP      0.141500
     34 HN5         6.8130    0.8550    0.4720 DU        1 EQP      0.011000
     35 HO4         4.7760    0.4250    1.9740 DU        1 EQP      0.246000
     36 HO7         3.9740    2.7770   -0.4240 ho        1 EQP      0.212000
     37 HO8         4.0610    1.5610   -3.1250 DU        1 EQP      0.313000
     38 HO9         3.4200    2.2380   -4.9500 ho        1 EQP      0.210000
     39 C10         6.6410    1.6270    1.2910 DU        1 EQP      0.112000
     40 H52         6.0740    0.0460    0.4410 hn        1 EQP      0.074000
@<TRIPOS>BOND
     1    1    2 1   
     2    1   12 1   
     3    1   13 1   
     4    1   14 1   
     5    2    3 1   
     6    2   16 1   
     7    2   21 1   
     8    2   22 1   
     9    3    4 1   
    10    3   21 1   
    11    3   22 1   
    12    3   23 1   
    13    3   24 1   
    14    4    5 1   
    15    4   15 1   
    16    4   24 1   
    17    4   25 1   
    18    4   35 1   
    19    5    6 1   
    20    5   11 1   
    21    5   25 1   
    22    5   26 1   
    23    6    7 1   
    24    6   16 1   
    25    6   26 1   
    26    6   27 1   
    27    7    8 1   
    28    7   17 1   
    29    7   27 1   
    30    7   28 1   
    31    8    9 1   
    32    8   18 1   
    33    8   28 1   
    34    8   29 1   
    35    8   37 1   
    36    9   19 1   
    37    9   29 1   
    38    9   30 1   
    39   10   31 1   
    40   10   32 1   
    41   10   33 1   
    42   10   39 1   
    43   11   34 1   
    44   11   39 1   
    45   11   40 1   
    46   15   35 1   
    47   17   36 1   
    48   18   37 1   
    49   19   38 1   
    50   20   39 1   
    51   31   39 1   
    52   34   39 1   
@<TRIPOS>SUBSTRUCTURE
     1 EQP         1 TEMP              0 ****  ****    0 ROOT
