@<TRIPOS>MOLECULE
EQU
   38    41     1     0     0
SMALL
bcc


@<TRIPOS>ATOM
      1 C1          0.1170    0.1660   -4.4750 ca        1 EQU      0.119100
      2 C2         -1.0390    0.1900   -3.7190 ca        1 EQU     -0.158000
      3 C3         -0.9590    0.0440   -2.3100 ca        1 EQU     -0.004000
      4 C4          0.3040   -0.1230   -1.6820 ca        1 EQU     -0.061000
      5 C5          1.4690   -0.1430   -2.4990 ca        1 EQU     -0.084000
      6 C6          1.3880   -0.0030   -3.8610 ca        1 EQU     -0.192000
      7 C10        -2.1390    0.0620   -1.5170 ca        1 EQU     -0.127000
      8 C11        -2.0620   -0.0880   -0.1570 ca        1 EQU     -0.109000
      9 C12        -0.8070   -0.2570    0.4780 ca        1 EQU     -0.071300
     10 C13         0.3680   -0.2680   -0.2600 ca        1 EQU     -0.050300
     11 C16        -0.7130   -0.4960    1.9360 c3        1 EQU     -0.023400
     12 C17         0.5410    0.2060    2.5140 c3        1 EQU     -0.151000
     13 C18         1.7480   -0.4750    1.9040 c3        1 EQU     -0.055400
     14 C19         1.7120   -0.4030    0.3820 c3        1 EQU     -0.038100
     15 C24        -1.8430   -0.1000    2.8810 c3        1 EQU     -0.070400
     16 C25        -1.1740   -0.0370    4.2570 c3        1 EQU     -0.188400
     17 C26         0.3210    0.0400    4.0120 c         1 EQU      0.579100
     18 C27         0.5750    1.7020    2.2380 c3        1 EQU     -0.082100
     19 O1         -0.0150    0.3120   -5.8380 oh        1 EQU     -0.497100
     20 O26         1.1880   -0.0110    4.8790 o         1 EQU     -0.518100
     21 H2         -2.0180    0.3200   -4.2020 ha        1 EQU      0.152000
     22 H5          2.4550   -0.2770   -2.0270 ha        1 EQU      0.135000
     23 H6          2.2920   -0.0200   -4.4870 ha        1 EQU      0.134000
     24 H10        -3.1090    0.1960   -2.0170 ha        1 EQU      0.136000
     25 H11        -2.9710   -0.0800    0.4640 ha        1 EQU      0.134000
     26 H16        -0.5640   -1.6130    2.0600 hc        1 EQU      0.063700
     27 H181        2.6880    0.0090    2.2780 hc        1 EQU      0.053700
     28 H182        1.7740   -1.5470    2.2340 hc        1 EQU      0.053700
     29 H191        2.3320    0.4790    0.0580 hc        1 EQU      0.053200
     30 H192        2.2090   -1.3260   -0.0250 hc        1 EQU      0.053200
     31 H241       -2.2710    0.8940    2.6000 hc        1 EQU      0.052200
     32 H242       -2.6690   -0.8500    2.8640 hc        1 EQU      0.052200
     33 H251       -1.5090    0.8600    4.8350 hc        1 EQU      0.076200
     34 H252       -1.4090   -0.9460    4.8640 hc        1 EQU      0.076200
     35 H271        1.4770    2.1520    2.7200 hc        1 EQU      0.046367
     36 H272        0.6200    1.8930    1.1390 hc        1 EQU      0.046367
     37 H273       -0.3380    2.1980    2.6470 hc        1 EQU      0.046367
     38 HO1         0.8700    0.2740   -6.2290 ho        1 EQU      0.419000
@<TRIPOS>BOND
     1    1    2 ar  
     2    1    6 ar  
     3    1   19 1   
     4    2    3 ar  
     5    2   21 1   
     6    3    4 ar  
     7    3    7 ar  
     8    4    5 ar  
     9    4   10 ar  
    10    5    6 ar  
    11    5   22 1   
    12    6   23 1   
    13    7    8 ar  
    14    7   24 1   
    15    8    9 ar  
    16    8   25 1   
    17    9   10 ar  
    18    9   11 1   
    19   10   14 1   
    20   11   12 1   
    21   11   15 1   
    22   11   26 1   
    23   12   13 1   
    24   12   17 1   
    25   12   18 1   
    26   13   14 1   
    27   13   27 1   
    28   13   28 1   
    29   14   29 1   
    30   14   30 1   
    31   15   16 1   
    32   15   31 1   
    33   15   32 1   
    34   16   17 1   
    35   16   33 1   
    36   16   34 1   
    37   17   20 2   
    38   18   35 1   
    39   18   36 1   
    40   18   37 1   
    41   19   38 1   
@<TRIPOS>SUBSTRUCTURE
     1 EQU         1 TEMP              0 ****  ****    0 ROOT
