@<TRIPOS>MOLECULE
EQU
   38    41     1     0     0
SMALL
bcc


@<TRIPOS>ATOM
      1 C1          0.0280   -0.0170   -0.1430 ca        1 EQU      0.119100
      2 C2          1.4080   -0.0750   -0.1010 ca        1 EQU     -0.158000
      3 C3          2.0720   -0.0790    1.1530 ca        1 EQU     -0.004000
      4 C4          1.3210   -0.0250    2.3570 ca        1 EQU     -0.061000
      5 C5         -0.0980    0.0360    2.2680 ca        1 EQU     -0.084000
      6 C6         -0.7370    0.0400    1.0540 ca        1 EQU     -0.192000
      7 C10         3.4920   -0.1350    1.2150 ca        1 EQU     -0.127000
      8 C11         4.1340   -0.1280    2.4260 ca        1 EQU     -0.109000
      9 C12         3.3930   -0.0730    3.6310 ca        1 EQU     -0.071300
     10 C13         2.0060   -0.0300    3.6130 ca        1 EQU     -0.050300
     11 C16         4.0720    0.0110    4.9440 c3        1 EQU     -0.023400
     12 C17         3.2850   -0.7930    6.0080 c3        1 EQU     -0.151000
     13 C18         1.9510   -0.0990    6.1870 c3        1 EQU     -0.055400
     14 C19         1.1920   -0.0120    4.8680 c3        1 EQU     -0.038100
     15 C24         5.5190   -0.4380    5.1200 c3        1 EQU     -0.070400
     16 C25         5.6590   -0.6680    6.6280 c3        1 EQU     -0.188400
     17 C26         4.2530   -0.7760    7.1840 c         1 EQU      0.579100
     18 C27         3.0800   -2.2540    5.6290 c3        1 EQU     -0.082100
     19 O1         -0.5680   -0.0170   -1.3850 oh        1 EQU     -0.497100
     20 O26         3.9600   -0.8470    8.3740 o         1 EQU     -0.518100
     21 H2          1.9930   -0.1180   -1.0310 ha        1 EQU      0.152000
     22 H5         -0.6930    0.0830    3.1930 ha        1 EQU      0.135000
     23 H6         -1.8330    0.0880    0.9920 ha        1 EQU      0.134000
     24 H10         4.0600   -0.1800    0.2730 ha        1 EQU      0.136000
     25 H11         5.2330   -0.1660    2.4820 ha        1 EQU      0.134000
     26 H16         4.0330    1.1020    5.2470 hc        1 EQU      0.063700
     27 H181        2.1220    0.9310    6.5960 hc        1 EQU      0.053700
     28 H182        1.3300   -0.6540    6.9380 hc        1 EQU      0.053700
     29 H191        0.4750   -0.8790    4.8180 hc        1 EQU      0.053200
     30 H192        0.5760    0.9280    4.8790 hc        1 EQU      0.053200
     31 H241        5.7190   -1.3800    4.5530 hc        1 EQU      0.052200
     32 H242        6.2340    0.3410    4.7590 hc        1 EQU      0.052200
     33 H251        6.1940    0.1820    7.1200 hc        1 EQU      0.076200
     34 H252        6.2260   -1.6060    6.8480 hc        1 EQU      0.076200
     35 H271        4.0630   -2.7540    5.4510 hc        1 EQU      0.046367
     36 H272        2.5500   -2.7850    6.4560 hc        1 EQU      0.046367
     37 H273        2.4680   -2.3310    4.6990 hc        1 EQU      0.046367
     38 HO1        -1.5260    0.0280   -1.2540 ho        1 EQU      0.419000
@<TRIPOS>BOND
     1    1    2 ar  
     2    1    6 ar  
     3    1   19 1   
     4    2    3 ar  
     5    2   21 1   
     6    3    4 ar  
     7    3    7 ar  
     8    4    5 ar  
     9    4   10 ar  
    10    5    6 ar  
    11    5   22 1   
    12    6   23 1   
    13    7    8 ar  
    14    7   24 1   
    15    8    9 ar  
    16    8   25 1   
    17    9   10 ar  
    18    9   11 1   
    19   10   14 1   
    20   11   12 1   
    21   11   15 1   
    22   11   26 1   
    23   12   13 1   
    24   12   17 1   
    25   12   18 1   
    26   13   14 1   
    27   13   27 1   
    28   13   28 1   
    29   14   29 1   
    30   14   30 1   
    31   15   16 1   
    32   15   31 1   
    33   15   32 1   
    34   16   17 1   
    35   16   33 1   
    36   16   34 1   
    37   17   20 2   
    38   18   35 1   
    39   18   36 1   
    40   18   37 1   
    41   19   38 1   
@<TRIPOS>SUBSTRUCTURE
     1 EQU         1 TEMP              0 ****  ****    0 ROOT
