@<TRIPOS>MOLECULE
EQU
   38    41     1     0     0
SMALL
bcc


@<TRIPOS>ATOM
      1 C1         -0.0830    0.1810   -0.0480 ca        1 EQU      0.130100
      2 C2          1.2940    0.1000   -0.0400 ca        1 EQU     -0.219000
      3 C3          1.9900    0.0510    1.1980 ca        1 EQU      0.002000
      4 C4          1.2670    0.0840    2.4190 ca        1 EQU     -0.059000
      5 C5         -0.1550    0.1700    2.3620 ca        1 EQU     -0.093000
      6 C6         -0.8240    0.2180    1.1680 ca        1 EQU     -0.140000
      7 C10         3.4080   -0.0300    1.2250 ca        1 EQU     -0.131000
      8 C11         4.0770   -0.0680    2.4220 ca        1 EQU     -0.108000
      9 C12         3.3650   -0.0340    3.6440 ca        1 EQU     -0.073300
     10 C13         1.9770    0.0330    3.6570 ca        1 EQU     -0.048300
     11 C16         4.0730    0.0030    4.9440 c3        1 EQU     -0.023400
     12 C17         3.2950   -0.8170    6.0020 c3        1 EQU     -0.151000
     13 C18         1.9770   -0.1060    6.2290 c3        1 EQU     -0.055400
     14 C19         1.1920    0.0300    4.9300 c3        1 EQU     -0.038100
     15 C24         5.5160   -0.4730    5.0750 c3        1 EQU     -0.070400
     16 C25         5.6840   -0.7470    6.5730 c3        1 EQU     -0.188400
     17 C26         4.2880   -0.8470    7.1560 c         1 EQU      0.578100
     18 C27         3.0580   -2.2630    5.5880 c3        1 EQU     -0.082100
     19 O1         -0.8340    0.2330   -1.2000 oh        1 EQU     -0.496100
     20 O26         4.0200   -0.9470    8.3500 o         1 EQU     -0.518100
     21 H2          1.8680    0.0720   -0.9770 ha        1 EQU      0.136000
     22 H5         -0.7280    0.2020    3.3030 ha        1 EQU      0.137000
     23 H6         -1.9200    0.2860    1.1160 ha        1 EQU      0.152000
     24 H10         3.9560   -0.0590    0.2720 ha        1 EQU      0.133000
     25 H11         5.1760   -0.1260    2.4520 ha        1 EQU      0.134000
     26 H16         4.0590    1.0870    5.2770 hc        1 EQU      0.063700
     27 H181        1.3640   -0.6710    6.9790 hc        1 EQU      0.053700
     28 H182        2.1750    0.9100    6.6620 hc        1 EQU      0.053700
     29 H191        0.5920    0.9800    4.9800 hc        1 EQU      0.054200
     30 H192        0.4590   -0.8240    4.8730 hc        1 EQU      0.054200
     31 H241        6.2350    0.3030    4.7200 hc        1 EQU      0.052200
     32 H242        5.6870   -1.4030    4.4790 hc        1 EQU      0.052200
     33 H251        6.2390   -1.7000    6.7550 hc        1 EQU      0.076200
     34 H252        6.2430    0.0810    7.0760 hc        1 EQU      0.076200
     35 H271        2.4240   -2.3040    4.6700 hc        1 EQU      0.046367
     36 H272        4.0270   -2.7740    5.3750 hc        1 EQU      0.046367
     37 H273        2.5360   -2.8070    6.4120 hc        1 EQU      0.046367
     38 HO1        -0.2270    0.2020   -1.9540 ho        1 EQU      0.420000
@<TRIPOS>BOND
     1    1    2 ar  
     2    1    6 ar  
     3    1   19 1   
     4    2    3 ar  
     5    2   21 1   
     6    3    4 ar  
     7    3    7 ar  
     8    4    5 ar  
     9    4   10 ar  
    10    5    6 ar  
    11    5   22 1   
    12    6   23 1   
    13    7    8 ar  
    14    7   24 1   
    15    8    9 ar  
    16    8   25 1   
    17    9   10 ar  
    18    9   11 1   
    19   10   14 1   
    20   11   12 1   
    21   11   15 1   
    22   11   26 1   
    23   12   13 1   
    24   12   17 1   
    25   12   18 1   
    26   13   14 1   
    27   13   27 1   
    28   13   28 1   
    29   14   29 1   
    30   14   30 1   
    31   15   16 1   
    32   15   31 1   
    33   15   32 1   
    34   16   17 1   
    35   16   33 1   
    36   16   34 1   
    37   17   20 2   
    38   18   35 1   
    39   18   36 1   
    40   18   37 1   
    41   19   38 1   
@<TRIPOS>SUBSTRUCTURE
     1 EQU         1 TEMP              0 ****  ****    0 ROOT
