@<TRIPOS>MOLECULE
EQU
   38    37     1     0     0
SMALL
bcc


@<TRIPOS>ATOM
      1 C1         -2.7800    0.2160   -3.5820 c1        1 EQU      0.085000
      2 C2         -1.3810    0.2160   -3.5820 c1        1 EQU     -0.219000
      3 C3         -0.6830    0.2160   -2.3740 c1        1 EQU      0.002000
      4 C4         -1.3920    0.2160   -1.1470 c1        1 EQU     -0.059000
      5 C5         -2.7910    0.2160   -1.1500 c1        1 EQU     -0.093000
      6 C6         -3.4870    0.2160   -2.3610 c1        1 EQU     -0.140000
      7 C10         0.8250    0.2240   -2.3780 c2        1 EQU     -0.131000
      8 C11         1.5490    0.2320   -1.1420 c1        1 EQU     -0.108000
      9 C12         0.8710    0.2320    0.0510 c1        1 EQU     -0.066000
     10 C13        -0.7010    0.2240    0.0540 c2        1 EQU     -0.041000
     11 C16         1.3250    0.2930    1.0070 c3        1 EQU     -0.070000
     12 C17         0.8700   -0.2930    1.8430 c3        1 EQU     -0.101000
     13 C18        -0.5280    0.1410    2.3040 c3        1 EQU     -0.134000
     14 C19        -1.3250    0.2050    1.4140 c3        1 EQU     -0.124000
     15 C24         2.6670    0.1370    1.0420 c3        1 EQU     -0.149000
     16 C25         3.0490    0.1750    2.4370 c3        1 EQU     -0.217000
     17 C26         1.9580   -0.2770    3.0090 c2        1 EQU      0.239000
     18 C27         0.7490   -1.7250    1.3660 c3        1 EQU     -0.200000
     19 O1         -3.5100    0.1750   -4.7840 oh        1 EQU     -0.250000
     20 O26         1.7270   -0.2830    4.2020 o         1 EQU     -0.279000
     21 H2         -0.8930    0.2160   -4.4280 ha        1 EQU      0.136000
     22 H5         -3.2810    0.2160   -0.3060 ha        1 EQU      0.137000
     23 H6         -4.4630    0.2160   -2.3630 ha        1 EQU      0.152000
     24 H10         1.3100    0.2240   -3.2260 ha        1 EQU      0.133000
     25 H11         2.5250    0.2670   -1.1480 ha        1 EQU      0.134000
     26 H16         1.1860    1.2240    1.2670 hc        1 EQU      0.103000
     27 H181       -0.4600    1.0190    2.7250 hc        1 EQU      0.093000
     28 H182       -0.8510   -0.4990    2.9660 hc        1 EQU      0.093000
     29 H191       -1.8530    1.0190    1.5260 hc        1 EQU      0.093500
     30 H192       -1.9210   -0.5650    1.4730 hc        1 EQU      0.093500
     31 H241        2.9140   -0.7220    0.6500 hc        1 EQU      0.091500
     32 H242        3.1010    0.8640    0.5560 hc        1 EQU      0.091500
     33 H251        3.8980   -0.2370    2.6880 hc        1 EQU      0.115500
     34 H252        3.2020    1.1000    2.7090 hc        1 EQU      0.115500
     35 H271        1.6300   -2.1460    1.3710 hc        1 EQU      0.085667
     36 H272        0.3880   -1.7370    0.4590 hc        1 EQU      0.085667
     37 H273        0.1510   -2.2170    1.9600 hc        1 EQU      0.085667
     38 HO1        -3.5940    0.9970   -5.1080 ho        1 EQU      0.219000
@<TRIPOS>BOND
     1    1    6 1   
     2    1   19 1   
     3    2    3 1   
     4    2   21 1   
     5    3    7 1   
     6    4    5 1   
     7    4   10 1   
     8    5   22 1   
     9    6   23 1   
    10    7    8 1   
    11    7   24 1   
    12    8   25 1   
    13    9   10 1   
    14    9   11 1   
    15   10   14 1   
    16   11   12 1   
    17   11   15 1   
    18   11   26 1   
    19   12   13 1   
    20   12   17 1   
    21   12   18 1   
    22   13   14 1   
    23   13   27 1   
    24   13   28 1   
    25   14   29 1   
    26   14   30 1   
    27   15   16 1   
    28   15   31 1   
    29   15   32 1   
    30   16   17 1   
    31   16   33 1   
    32   16   34 1   
    33   17   20 1   
    34   18   35 1   
    35   18   36 1   
    36   18   37 1   
    37   19   38 1   
@<TRIPOS>SUBSTRUCTURE
     1 EQU         1 TEMP              0 ****  ****    0 ROOT
