@<TRIPOS>MOLECULE
ER4
   60    61     1     0     0
SMALL
bcc


@<TRIPOS>ATOM
      1 CAQ        -0.6510    1.5320    1.6620 c3        1 ER4     -0.047000
      2 CAO         0.4230    0.9770    0.7310 c3        1 ER4     -0.143000
      3 CBB         1.6720    0.4690    1.4380 c3        1 ER4     -0.208000
      4 CAP         1.4460   -0.8450    2.0250 c1        1 ER4     -0.051000
      5 CAR        -1.6710   -0.5780    2.3900 c3        1 ER4     -0.175000
      6 NBC        -1.0240    0.6620    2.7730 n3        1 ER4     -0.147000
      7 CAT        -0.7330    1.0330    3.9910 c1        1 ER4     -0.199000
      8 CBD         2.2710    1.5180    2.4000 c3        1 ER4      0.106000
      9 OAB         3.4290    0.9790    3.0240 oh        1 ER4     -0.314000
     10 CAD         2.5430    2.7670    1.7270 c1        1 ER4     -0.196000
     11 CAC         2.7490    3.8230    1.1990 c1        1 ER4     -0.082000
     12 CAY         2.9810    5.0550    0.5680 c2        1 ER4     -0.069000
     13 CAJ         3.4980    5.0910   -0.7370 c2        1 ER4     -0.036000
     14 CAK         3.7220    6.3130   -1.3610 c2        1 ER4     -0.254000
     15 CAZ         3.4110    7.4880   -0.6370 c2        1 ER4      0.144000
     16 OAW         3.5490    8.7690   -1.1350 os        1 ER4     -0.180000
     17 CAN         4.1790    8.9130   -2.4090 c3        1 ER4     -0.022000
     18 CAL         5.6800    8.7210   -2.3170 c3        1 ER4     -0.202000
     19 CAM         6.3250    9.0550   -3.6490 c3        1 ER4     -0.019000
     20 OAV         7.7070    8.7280   -3.5230 os        1 ER4     -0.275000
     21 CAA         8.4500    9.0470   -4.6870 c3        1 ER4     -0.074000
     22 NAU         2.9160    7.4890    0.6300 n2        1 ER4     -0.158000
     23 CBA         2.7030    6.2920    1.2190 c2        1 ER4      0.064000
     24 CAS         2.1600    6.2900    2.6270 c3        1 ER4     -0.085000
     25 CAX         0.6800    6.4630    2.6570 ca        1 ER4     -0.078000
     26 CAH         0.1040    7.6950    2.3250 ca        1 ER4     -0.118000
     27 CAF        -1.2780    7.8610    2.3850 ca        1 ER4     -0.134500
     28 CAE        -2.0960    6.8030    2.7820 ca        1 ER4     -0.130000
     29 CAG        -1.5260    5.5760    3.1190 ca        1 ER4     -0.134500
     30 CAI        -0.1440    5.4040    3.0560 ca        1 ER4     -0.118000
     31 H1         -1.5770    1.7320    1.0500 h1        1 ER4      0.110000
     32 H2         -0.2960    2.5120    2.0960 h1        1 ER4      0.110000
     33 H3          0.7120    1.8080    0.0340 hc        1 ER4      0.100500
     34 H4         -0.0010    0.1370    0.1190 hc        1 ER4      0.100500
     35 H5          2.4490    0.2410    0.6350 hc        1 ER4      0.147000
     36 H6         -0.9250   -1.2510    1.8810 h1        1 ER4      0.099000
     37 H7          1.9520   -1.0370    2.9860 ha        1 ER4      0.062000
     38 H8         -2.0710   -1.0960    3.3010 h1        1 ER4      0.099000
     39 H9         -2.5200   -0.3750    1.6860 h1        1 ER4      0.099000
     40 H11        -1.0510    0.3510    4.8070 ha        1 ER4      0.050000
     41 H12         1.5530    1.6940    3.2650 h1        1 ER4      0.174000
     42 H13         4.1470    0.9850    2.3790 ho        1 ER4      0.199000
     43 H14         3.7270    4.1520   -1.2640 ha        1 ER4      0.143000
     44 H15         4.1300    6.3520   -2.3770 ha        1 ER4      0.151000
     45 H16         3.7160    8.2280   -3.1640 h1        1 ER4      0.100500
     46 H17         3.9290    9.9790   -2.6720 h1        1 ER4      0.100500
     47 H18         5.9250    7.6650   -2.0330 hc        1 ER4      0.112000
     48 H19         6.1000    9.3830   -1.5160 hc        1 ER4      0.112000
     49 H20         6.2130   10.1470   -3.8890 h1        1 ER4      0.066000
     50 H21         5.8730    8.4520   -4.4820 h1        1 ER4      0.066000
     51 H22         8.4050   10.1440   -4.8960 h1        1 ER4      0.074000
     52 H23         8.0660    8.4760   -5.5690 h1        1 ER4      0.074000
     53 H24         9.4960    8.7360   -4.4430 h1        1 ER4      0.074000
     54 H25         2.6370    7.1210    3.2180 hc        1 ER4      0.114000
     55 H26         2.4480    5.3220    3.1200 hc        1 ER4      0.114000
     56 H27         0.7480    8.5330    2.0140 ha        1 ER4      0.146000
     57 H28        -1.7240    8.8310    2.1200 ha        1 ER4      0.131500
     58 H29        -3.1860    6.9380    2.8330 ha        1 ER4      0.128000
     59 H30        -2.1640    4.7400    3.4410 ha        1 ER4      0.131500
     60 H31         0.2980    4.4320    3.3280 ha        1 ER4      0.146000
@<TRIPOS>BOND
     1    1    2 1   
     2    1    6 1   
     3    1   31 1   
     4    1   32 1   
     5    2    3 1   
     6    2   33 1   
     7    2   34 1   
     8    3    4 1   
     9    3    8 1   
    10    3   35 1   
    11    4   37 1   
    12    5    6 1   
    13    5   36 1   
    14    5   38 1   
    15    5   39 1   
    16    6    7 1   
    17    7   40 1   
    18    8    9 1   
    19    8   10 1   
    20    8   41 1   
    21    9   42 1   
    22   10   11 1   
    23   11   12 1   
    24   12   13 1   
    25   12   23 1   
    26   13   14 1   
    27   13   43 1   
    28   14   15 1   
    29   14   44 1   
    30   15   16 1   
    31   15   22 1   
    32   16   17 1   
    33   17   18 1   
    34   17   45 1   
    35   17   46 1   
    36   18   19 1   
    37   18   47 1   
    38   18   48 1   
    39   19   20 1   
    40   19   49 1   
    41   19   50 1   
    42   20   21 1   
    43   21   51 1   
    44   21   52 1   
    45   21   53 1   
    46   22   23 1   
    47   23   24 1   
    48   24   25 1   
    49   24   54 1   
    50   24   55 1   
    51   25   26 1   
    52   25   30 1   
    53   26   27 1   
    54   26   56 1   
    55   27   28 1   
    56   27   57 1   
    57   28   29 1   
    58   28   58 1   
    59   29   30 1   
    60   29   59 1   
    61   30   60 1   
@<TRIPOS>SUBSTRUCTURE
     1 ER4         1 TEMP              0 ****  ****    0 ROOT
