@<TRIPOS>MOLECULE
ER4
   60    61     1     0     0
SMALL
bcc


@<TRIPOS>ATOM
      1 CAQ        -0.2090   -0.3330    0.7580 c3        1 ER4     -0.046000
      2 CAO         1.1250    0.3010    1.1380 c3        1 ER4     -0.111000
      3 CBB         1.4250    0.2820    2.6350 c3        1 ER4     -0.202000
      4 CAP         0.6870   -0.7660    3.3210 c1        1 ER4     -0.054000
      5 CAR        -2.6230   -0.1720    0.5420 c3        1 ER4     -0.165000
      6 NBC        -1.4020    0.4790    0.9880 n3        1 ER4     -0.137000
      7 CAT        -1.3370    1.6590    1.5310 c1        1 ER4     -0.213000
      8 CBD         1.2830    1.7010    3.2350 c3        1 ER4      0.094000
      9 OAB         1.2710    1.6390    4.6530 oh        1 ER4     -0.315000
     10 CAD         2.3170    2.5790    2.7380 c1        1 ER4     -0.176000
     11 CAC         3.1470    3.3250    2.3010 c1        1 ER4     -0.102000
     12 CAY         4.1190    4.2020    1.7960 c2        1 ER4     -0.058000
     13 CAJ         4.7820    5.0910    2.6670 c2        1 ER4     -0.045000
     14 CAK         5.7340    5.9640    2.1710 c2        1 ER4     -0.201000
     15 CAZ         6.0030    5.9190    0.7740 c2        1 ER4      0.145000
     16 OAW         6.9550    6.8220    0.3570 os        1 ER4     -0.207000
     17 CAN         7.2440    6.9540   -1.0410 c3        1 ER4     -0.011000
     18 CAL         8.3930    6.0590   -1.4610 c3        1 ER4     -0.190000
     19 CAM         7.9340    4.6910   -1.9310 c3        1 ER4     -0.019000
     20 OAV         8.9890    4.1730   -2.7450 os        1 ER4     -0.286000
     21 CAA         8.7240    2.8600   -3.2040 c3        1 ER4     -0.071000
     22 NAU         5.3890    5.0730   -0.0870 n2        1 ER4     -0.215000
     23 CBA         4.4560    4.2300    0.4170 c2        1 ER4      0.056000
     24 CAS         3.7760    3.2890   -0.5460 c3        1 ER4     -0.080000
     25 CAX         2.8830    4.0100   -1.4970 ca        1 ER4     -0.075000
     26 CAH         3.4170    4.6550   -2.6190 ca        1 ER4     -0.116500
     27 CAF         2.5770    5.3080   -3.5190 ca        1 ER4     -0.133500
     28 CAE         1.1980    5.3220   -3.3060 ca        1 ER4     -0.128000
     29 CAG         0.6620    4.6820   -2.1900 ca        1 ER4     -0.133500
     30 CAI         1.4990    4.0270   -1.2880 ca        1 ER4     -0.116500
     31 H1         -0.3350   -1.3050    1.3230 h1        1 ER4      0.104000
     32 H2         -0.1790   -0.5700   -0.3460 h1        1 ER4      0.104000
     33 H3          1.1720    1.3590    0.7620 hc        1 ER4      0.100000
     34 H4          1.9170   -0.2910    0.6070 hc        1 ER4      0.100000
     35 H5          2.5050   -0.0510    2.7780 hc        1 ER4      0.142000
     36 H6          0.3220   -0.5250    4.3320 ha        1 ER4      0.062000
     37 H7         -3.5060    0.4830    0.7610 h1        1 ER4      0.091667
     38 H8         -2.7540   -1.1510    1.0740 h1        1 ER4      0.091667
     39 H9         -2.5770   -0.3660   -0.5620 h1        1 ER4      0.091667
     40 H11        -2.2930    2.2080    1.6580 ha        1 ER4      0.054000
     41 H12         0.2550    2.1140    2.9560 h1        1 ER4      0.199000
     42 H13         2.1640    1.4250    4.9490 ho        1 ER4      0.194000
     43 H14         4.5340    5.0890    3.7400 ha        1 ER4      0.149000
     44 H15         6.2740    6.6750    2.8080 ha        1 ER4      0.162000
     45 H16         7.5610    8.0340   -1.1080 h1        1 ER4      0.105500
     46 H17         6.3330    6.7980   -1.6730 h1        1 ER4      0.105500
     47 H18         9.1120    5.9410   -0.6090 hc        1 ER4      0.106500
     48 H19         8.9450    6.5620   -2.3000 hc        1 ER4      0.106500
     49 H20         7.7560    4.0020   -1.0650 h1        1 ER4      0.074000
     50 H21         6.9950    4.7610   -2.5420 h1        1 ER4      0.074000
     51 H22         7.7960    2.8390   -3.8280 h1        1 ER4      0.070667
     52 H23         8.6170    2.1540   -2.3440 h1        1 ER4      0.070667
     53 H24         9.6180    2.5930   -3.8210 h1        1 ER4      0.070667
     54 H25         3.1820    2.5340    0.0370 hc        1 ER4      0.106000
     55 H26         4.5590    2.7260   -1.1240 hc        1 ER4      0.106000
     56 H27         4.5060    4.6530   -2.7800 ha        1 ER4      0.140000
     57 H28         3.0030    5.8140   -4.3970 ha        1 ER4      0.130500
     58 H29         0.5370    5.8380   -4.0170 ha        1 ER4      0.130000
     59 H30        -0.4240    4.6950   -2.0170 ha        1 ER4      0.130500
     60 H31         1.0700    3.5260   -0.4050 ha        1 ER4      0.140000
@<TRIPOS>BOND
     1    1    2 1   
     2    1    6 1   
     3    1   31 1   
     4    1   32 1   
     5    2    3 1   
     6    2   33 1   
     7    2   34 1   
     8    3    4 1   
     9    3    8 1   
    10    3   35 1   
    11    4   36 1   
    12    5    6 1   
    13    5   37 1   
    14    5   38 1   
    15    5   39 1   
    16    6    7 1   
    17    7   40 1   
    18    8    9 1   
    19    8   10 1   
    20    8   41 1   
    21    9   42 1   
    22   10   11 1   
    23   11   12 1   
    24   12   13 1   
    25   12   23 1   
    26   13   14 1   
    27   13   43 1   
    28   14   15 1   
    29   14   44 1   
    30   15   16 1   
    31   15   22 1   
    32   16   17 1   
    33   17   18 1   
    34   17   45 1   
    35   17   46 1   
    36   18   19 1   
    37   18   47 1   
    38   18   48 1   
    39   19   20 1   
    40   19   49 1   
    41   19   50 1   
    42   20   21 1   
    43   21   51 1   
    44   21   52 1   
    45   21   53 1   
    46   22   23 1   
    47   23   24 1   
    48   24   25 1   
    49   24   54 1   
    50   24   55 1   
    51   25   26 1   
    52   25   30 1   
    53   26   27 1   
    54   26   56 1   
    55   27   28 1   
    56   27   57 1   
    57   28   29 1   
    58   28   58 1   
    59   29   30 1   
    60   29   59 1   
    61   30   60 1   
@<TRIPOS>SUBSTRUCTURE
     1 ER4         1 TEMP              0 ****  ****    0 ROOT
