@<TRIPOS>MOLECULE
ER4
   60    61     1     0     0
SMALL
bcc


@<TRIPOS>ATOM
      1 CAQ        -0.7210   -1.2180    0.6600 c3        1 ER4     -0.038000
      2 CAO         0.4790   -0.2740    0.6600 c3        1 ER4     -0.143000
      3 CBB         1.1350   -0.0770    2.0220 c3        1 ER4     -0.213000
      4 CAP         0.7660   -1.1030    2.9850 c1        1 ER4     -0.059000
      5 CAR        -1.9270   -0.9160    2.7850 c3        1 ER4     -0.176000
      6 NBC        -1.9070   -0.7170    1.3480 n3        1 ER4     -0.151000
      7 CAT        -2.8530   -0.1420    0.6540 c1        1 ER4     -0.177000
      8 CBD         0.9560    1.3810    2.5110 c3        1 ER4      0.125000
      9 OAB         1.3660    1.4980    3.8670 oh        1 ER4     -0.318000
     10 CAD         1.6420    2.3150    1.6520 c1        1 ER4     -0.212000
     11 CAC         2.1900    3.1070    0.9380 c1        1 ER4     -0.063000
     12 CAY         2.8200    4.0220    0.0790 c2        1 ER4     -0.075000
     13 CAJ         2.4130    4.0990   -1.2700 c2        1 ER4     -0.040000
     14 CAK         3.0320    4.9930   -2.1260 c2        1 ER4     -0.203000
     15 CAZ         4.0710    5.8050   -1.5910 c2        1 ER4      0.150000
     16 OAW         4.6300    6.6740   -2.5020 os        1 ER4     -0.206000
     17 CAN         5.7020    7.5290   -2.0850 c3        1 ER4     -0.011000
     18 CAL         7.0340    6.8080   -2.0710 c3        1 ER4     -0.192000
     19 CAM         7.4540    6.4120   -3.4750 c3        1 ER4     -0.023000
     20 OAV         8.6870    5.7060   -3.3490 os        1 ER4     -0.280000
     21 CAA         9.1720    5.2360   -4.5950 c3        1 ER4     -0.073000
     22 NAU         4.4830    5.7540   -0.3020 n2        1 ER4     -0.210000
     23 CBA         3.8610    4.8790    0.5240 c2        1 ER4      0.065000
     24 CAS         4.3190    4.8310    1.9600 c3        1 ER4     -0.080000
     25 CAX         3.9530    6.0680    2.7060 ca        1 ER4     -0.076000
     26 CAH         4.7380    7.2210    2.5880 ca        1 ER4     -0.115500
     27 CAF         4.4080    8.3700    3.3040 ca        1 ER4     -0.133000
     28 CAE         3.2950    8.3770    4.1440 ca        1 ER4     -0.126000
     29 CAG         2.5100    7.2310    4.2640 ca        1 ER4     -0.133000
     30 CAI         2.8360    6.0800    3.5490 ca        1 ER4     -0.115500
     31 H1         -1.0090   -1.4040   -0.4150 h1        1 ER4      0.119000
     32 H2         -0.4180   -2.1970    1.1320 h1        1 ER4      0.119000
     33 H3          1.2340   -0.7220   -0.0410 hc        1 ER4      0.100000
     34 H4          0.1820    0.7220    0.2360 hc        1 ER4      0.100000
     35 H5          2.2540   -0.2650    1.9080 hc        1 ER4      0.150000
     36 H6         -1.3760   -0.0810    3.2980 h1        1 ER4      0.096000
     37 H7          0.7500   -0.7890    4.0430 ha        1 ER4      0.059000
     38 H8         -1.4520   -1.8970    3.0630 h1        1 ER4      0.096000
     39 H9         -2.9860   -0.9130    3.1550 h1        1 ER4      0.096000
     40 H11        -0.1490    1.6330    2.5430 h1        1 ER4      0.139000
     41 H12        -3.7390    0.2060    1.2270 ha        1 ER4      0.039000
     42 H13         2.3300    1.4580    3.8910 ho        1 ER4      0.204000
     43 H14         1.6030    3.4490   -1.6340 ha        1 ER4      0.150000
     44 H15         2.7480    5.0930   -3.1810 ha        1 ER4      0.163000
     45 H16         5.6830    8.3270   -2.8790 h1        1 ER4      0.106000
     46 H17         5.4860    7.9880   -1.0870 h1        1 ER4      0.106000
     47 H18         7.8090    7.4860   -1.6260 hc        1 ER4      0.110000
     48 H19         6.9800    5.8920   -1.4280 hc        1 ER4      0.110000
     49 H20         7.6050    7.3170   -4.1220 h1        1 ER4      0.069500
     50 H21         6.6800    5.7500   -3.9480 h1        1 ER4      0.069500
     51 H22        10.1280    4.7130   -4.3430 h1        1 ER4      0.071667
     52 H23         8.4450    4.5240   -5.0590 h1        1 ER4      0.071667
     53 H24         9.3640    6.0900   -5.2910 h1        1 ER4      0.071667
     54 H25         5.4360    4.6960    1.9850 hc        1 ER4      0.107000
     55 H26         3.8620    3.9340    2.4600 hc        1 ER4      0.107000
     56 H27         5.6130    7.2180    1.9190 ha        1 ER4      0.138000
     57 H28         5.0290    9.2730    3.2070 ha        1 ER4      0.131000
     58 H29         3.0360    9.2840    4.7090 ha        1 ER4      0.131000
     59 H30         1.6300    7.2330    4.9250 ha        1 ER4      0.131000
     60 H31         2.2120    5.1790    3.6470 ha        1 ER4      0.138000
@<TRIPOS>BOND
     1    1    2 1   
     2    1    6 1   
     3    1   31 1   
     4    1   32 1   
     5    2    3 1   
     6    2   33 1   
     7    2   34 1   
     8    3    4 1   
     9    3    8 1   
    10    3   35 1   
    11    4   37 1   
    12    5    6 1   
    13    5   36 1   
    14    5   38 1   
    15    5   39 1   
    16    6    7 1   
    17    7   41 1   
    18    8    9 1   
    19    8   10 1   
    20    8   40 1   
    21    9   42 1   
    22   10   11 1   
    23   11   12 1   
    24   12   13 1   
    25   12   23 1   
    26   13   14 1   
    27   13   43 1   
    28   14   15 1   
    29   14   44 1   
    30   15   16 1   
    31   15   22 1   
    32   16   17 1   
    33   17   18 1   
    34   17   45 1   
    35   17   46 1   
    36   18   19 1   
    37   18   47 1   
    38   18   48 1   
    39   19   20 1   
    40   19   49 1   
    41   19   50 1   
    42   20   21 1   
    43   21   51 1   
    44   21   52 1   
    45   21   53 1   
    46   22   23 1   
    47   23   24 1   
    48   24   25 1   
    49   24   54 1   
    50   24   55 1   
    51   25   26 1   
    52   25   30 1   
    53   26   27 1   
    54   26   56 1   
    55   27   28 1   
    56   27   57 1   
    57   28   29 1   
    58   28   58 1   
    59   29   30 1   
    60   29   59 1   
    61   30   60 1   
@<TRIPOS>SUBSTRUCTURE
     1 ER4         1 TEMP              0 ****  ****    0 ROOT
