@<TRIPOS>MOLECULE
ERA
  120   115     1     0     0
SMALL
bcc


@<TRIPOS>ATOM
      1 OA         -2.4110   -4.2230   -5.7330 oh        1 ERA     -0.334000
      2 NB         -2.3160   -2.1040   -3.5760 n         1 ERA     -0.353000
      3 CAA        -1.6630   -4.1770   -4.5530 c3        1 ERA     -0.041000
      4 CAB        -2.4630   -3.5290   -3.4860 c3        1 ERA     -0.012000
      5 CAC        -1.9730   -4.0060   -2.1270 c3        1 ERA      0.056000
      6 OAD        -1.5340   -2.9140   -1.3820 oh        1 ERA     -0.329000
      7 CAE        -3.1120   -4.6960   -1.3920 c2        1 ERA     -0.226000
      8 CAF        -2.8440   -5.7840   -0.5360 c1        1 ERA     -0.132000
      9 CAG        -1.3770   -6.2830   -0.3400 c2        1 ERA     -0.149000
     10 CAH        -1.0190   -6.2570    1.1660 c3        1 ERA     -0.154000
     11 CAI        -0.4750   -7.6220    1.5840 c3        1 ERA     -0.158000
     12 CAJ        -0.5570   -7.7630    3.1300 c3        1 ERA     -0.158000
     13 CAK        -0.9090   -9.2210    3.4960 c3        1 ERA     -0.157000
     14 CAL        -0.8180   -9.4080    5.0460 c3        1 ERA     -0.157000
     15 CAM        -1.8890  -10.4100    5.5060 c3        1 ERA     -0.158000
     16 CAN        -1.7220  -10.6860    7.0110 c3        1 ERA     -0.158000
     17 CAO        -3.1020  -10.6810    7.6900 c3        1 ERA     -0.158000
     18 CAP        -3.1790  -11.8460    8.7240 c3        1 ERA     -0.158000
     19 OBA        -4.2730   -1.8110   -4.7220 o         1 ERA     -0.368000
     20 CBB        -3.3990   -1.3080   -4.0480 c2        1 ERA      0.297000
     21 CBC        -3.4670    0.1570   -3.6950 c3        1 ERA     -0.184000
     22 CBD        -3.4220    0.9910   -4.9660 c3        1 ERA     -0.158000
     23 CBE        -3.2140    2.4740   -4.5950 c3        1 ERA     -0.157000
     24 CBF        -3.2050    3.3300   -5.8720 c3        1 ERA     -0.156000
     25 CBG        -1.8010    3.9430   -6.0740 c3        1 ERA     -0.132000
     26 CBH        -1.9350    5.4610   -6.3490 c2        1 ERA     -0.170000
     27 CBI        -0.8010    6.2380   -6.5150 c1        1 ERA     -0.169000
     28 CBJ         0.5810    5.5990   -6.4260 c2        1 ERA     -0.132000
     29 CBK         1.6380    6.6940   -6.1750 c3        1 ERA     -0.156000
     30 CBL         2.8770    6.0690   -5.5240 c3        1 ERA     -0.158000
     31 CBM         3.8460    7.1550   -5.1370 c3        1 ERA     -0.158000
     32 CBN         4.6270    6.7220   -3.8870 c3        1 ERA     -0.157000
     33 CBO         5.2350    7.9330   -3.2290 c3        1 ERA     -0.135000
     34 CBP         5.2210    7.7490   -1.7090 c2        1 ERA     -0.150000
     35 CBQ         5.7240    8.7330   -0.8960 c1        1 ERA     -0.144000
     36 CBR         6.3000   10.0170   -1.5100 c1        1 ERA     -0.147500
     37 CBS         6.2350   11.1990   -0.8170 c1        1 ERA     -0.147500
     38 CBU         5.0690   12.6550    0.8260 c3        1 ERA     -0.156000
     39 CBV         5.7710   13.2350    2.0880 c3        1 ERA     -0.159000
     40 CBT         5.5980   11.2390    0.5500 c2        1 ERA     -0.135000
     41 HOA        -1.9750   -4.6960   -6.3410 ho        1 ERA      0.205000
     42 HNB        -1.4980   -1.7180   -3.4200 hn        1 ERA      0.220000
     43 HAA        -0.8410   -3.6610   -4.7060 h1        1 ERA      0.079000
     44 HAAA       -1.4340   -5.0770   -4.2810 h1        1 ERA      0.079000
     45 HAB        -3.4100   -3.7680   -3.5950 h1        1 ERA      0.132000
     46 HAC        -1.2380   -4.6330   -2.2490 h1        1 ERA      0.113000
     47 HOAD       -1.9770   -2.8830   -0.6130 ho        1 ERA      0.208000
     48 HAE        -4.0390   -4.3830   -1.5150 ha        1 ERA      0.157000
     49 HAF        -3.5790   -6.2270   -0.0630 ha        1 ERA      0.124000
     50 HAG        -0.7620   -5.6960   -0.8330 ha        1 ERA      0.097500
     51 HAGA       -1.2960   -7.2010   -0.6790 ha        1 ERA      0.097500
     52 HAH        -1.8210   -6.0520    1.6890 hc        1 ERA      0.079500
     53 HAHA       -0.3410   -5.5710    1.3280 hc        1 ERA      0.079500
     54 HAI        -1.0060   -8.3280    1.1640 hc        1 ERA      0.079500
     55 HAIA        0.4590   -7.7020    1.2990 hc        1 ERA      0.079500
     56 HAJ        -1.2490   -7.1640    3.4760 hc        1 ERA      0.079500
     57 HAJA        0.3020   -7.5280    3.5240 hc        1 ERA      0.079500
     58 HAK        -0.2780   -9.8290    3.0560 hc        1 ERA      0.078500
     59 HAKA       -1.8250   -9.4240    3.1940 hc        1 ERA      0.078500
     60 HAL        -0.9650   -8.5540    5.4830 hc        1 ERA      0.078500
     61 HALA        0.0750   -9.7490    5.2840 hc        1 ERA      0.078500
     62 HAM        -1.7890  -11.2470    5.0080 hc        1 ERA      0.079500
     63 HAMA       -2.7760  -10.0370    5.3410 hc        1 ERA      0.079500
     64 HAN        -1.3000  -11.5560    7.1380 hc        1 ERA      0.078500
     65 HANA       -1.1600   -9.9900    7.4090 hc        1 ERA      0.078500
     66 HAO        -3.2340   -9.8340    8.1470 hc        1 ERA      0.079000
     67 HAOA       -3.8000  -10.8000    7.0120 hc        1 ERA      0.079000
     68 HAP        -2.4550  -11.7530    9.3760 hc        1 ERA      0.078500
     69 HAPA       -3.0910  -12.7080    8.2550 hc        1 ERA      0.078500
     70 HBC        -2.7060    0.3910   -3.1250 hc        1 ERA      0.110500
     71 HBCA       -4.3000    0.3390   -3.2150 hc        1 ERA      0.110500
     72 HBD        -2.6860    0.6890   -5.5270 hc        1 ERA      0.090000
     73 HBDA       -4.2610    0.8920   -5.4500 hc        1 ERA      0.090000
     74 HBE        -2.3570    2.5760   -4.1260 hc        1 ERA      0.081000
     75 HBEA       -3.9430    2.7690   -4.0100 hc        1 ERA      0.081000
     76 HBF        -3.8660    4.0500   -5.7870 hc        1 ERA      0.084000
     77 HBFA       -3.4300    2.7680   -6.6460 hc        1 ERA      0.084000
     78 HBG        -1.3620    3.5100   -6.8350 hc        1 ERA      0.086500
     79 HBGA       -1.2650    3.8040   -5.2660 hc        1 ERA      0.086500
     80 HBH        -2.8210    5.8710   -6.4060 ha        1 ERA      0.123000
     81 HBI        -0.8860    7.1980   -6.6900 ha        1 ERA      0.123000
     82 HBJ         0.5960    4.9570   -5.6890 ha        1 ERA      0.086000
     83 HBJA        0.7800    5.1410   -7.2600 ha        1 ERA      0.086000
     84 HBK         1.2640    7.3810   -5.5770 hc        1 ERA      0.081000
     85 HBKA        1.8920    7.1090   -7.0350 hc        1 ERA      0.081000
     86 HBL         3.3040    5.4630   -6.1540 hc        1 ERA      0.079000
     87 HBLA        2.6120    5.5770   -4.7320 hc        1 ERA      0.079000
     88 HBM         4.4670    7.3120   -5.8680 hc        1 ERA      0.080000
     89 HBMA        3.3560    7.9740   -4.9460 hc        1 ERA      0.080000
     90 HBN         5.3440    6.0930   -4.1490 hc        1 ERA      0.081000
     91 HBNA        4.0150    6.2780   -3.2560 hc        1 ERA      0.081000
     92 HBO         6.1560    8.0410   -3.5350 hc        1 ERA      0.090000
     93 HBOA        4.7180    8.7260   -3.4660 hc        1 ERA      0.090000
     94 HBP         4.8530    6.9270   -1.3170 ha        1 ERA      0.121000
     95 HBQ         5.7150    8.6160    0.0700 ha        1 ERA      0.121000
     96 HBR         6.7160    9.9910   -2.4020 ha        1 ERA      0.121500
     97 HBS         6.6050   12.0210   -1.2120 ha        1 ERA      0.121500
     98 HBU         5.2560   13.2270    0.0590 hc        1 ERA      0.080000
     99 HBUA        4.1030   12.6190    0.9780 hc        1 ERA      0.080000
    100 HBV         5.4880   12.7320    2.8780 hc        1 ERA      0.081000
    101 HBVA        6.7430   13.1600    1.9840 hc        1 ERA      0.081000
    102 CBW         5.3860   14.7170    2.2560 c3        1 ERA     -0.159000
    103 HBT         4.8580   10.6030    0.5830 ha        1 ERA      0.090000
    104 HBTA        6.2580   11.0030    1.2220 ha        1 ERA      0.090000
    105 CBX         6.3390   15.3810    3.2430 c3        1 ERA     -0.210000
    106 CAQ        -4.5470  -11.7950    9.4590 c3        1 ERA     -0.158000
    107 CAR        -4.8190  -13.1430   10.1260 c3        1 ERA     -0.159000
    108 CAS        -6.2620  -13.1900   10.6070 c3        1 ERA     -0.210000
    109 HBX         7.2670   15.2690    2.9290 hc        1 ERA      0.072000
    110 HBX1        6.2400   14.9660    4.1200 hc        1 ERA      0.072000
    111 HBX2        6.1270   16.3460    3.3080 hc        1 ERA      0.072000
    112 HAQ        -5.2610  -11.6000    8.8110 hc        1 ERA      0.079000
    113 HAQA       -4.5250  -11.0940   10.1390 hc        1 ERA      0.079000
    114 HAR        -4.2240  -13.2550   10.8810 hc        1 ERA      0.078000
    115 HARA       -4.6680  -13.8590    9.4840 hc        1 ERA      0.078000
    116 HAS        -6.3650  -12.6100   11.3870 hc        1 ERA      0.072000
    117 HAS1       -6.8610  -12.8800    9.8840 hc        1 ERA      0.072000
    118 HAS2       -6.4930  -14.1030   10.8500 hc        1 ERA      0.072000
    119 HBW         5.4440   15.1690    1.3930 hc        1 ERA      0.077000
    120 HBWA        4.4720   14.7790    2.5950 hc        1 ERA      0.077000
@<TRIPOS>BOND
     1    1    3 1   
     2    1   41 1   
     3    2    4 1   
     4    2   20 1   
     5    2   42 1   
     6    3    4 1   
     7    3   43 1   
     8    3   44 1   
     9    4    5 1   
    10    4   45 1   
    11    5    6 1   
    12    5    7 1   
    13    5   46 1   
    14    6   47 1   
    15    7    8 1   
    16    7   48 1   
    17    8   49 1   
    18    9   10 1   
    19    9   50 1   
    20    9   51 1   
    21   10   11 1   
    22   10   52 1   
    23   10   53 1   
    24   11   12 1   
    25   11   54 1   
    26   11   55 1   
    27   12   13 1   
    28   12   56 1   
    29   12   57 1   
    30   13   14 1   
    31   13   58 1   
    32   13   59 1   
    33   14   15 1   
    34   14   60 1   
    35   14   61 1   
    36   15   16 1   
    37   15   62 1   
    38   15   63 1   
    39   16   17 1   
    40   16   64 1   
    41   16   65 1   
    42   17   18 1   
    43   17   66 1   
    44   17   67 1   
    45   18   68 1   
    46   18   69 1   
    47   18  106 1   
    48   19   20 1   
    49   20   21 1   
    50   21   22 1   
    51   21   70 1   
    52   21   71 1   
    53   22   23 1   
    54   22   72 1   
    55   22   73 1   
    56   23   24 1   
    57   23   74 1   
    58   23   75 1   
    59   24   25 1   
    60   24   76 1   
    61   24   77 1   
    62   25   26 1   
    63   25   78 1   
    64   25   79 1   
    65   26   27 1   
    66   26   80 1   
    67   27   81 1   
    68   28   29 1   
    69   28   82 1   
    70   28   83 1   
    71   29   30 1   
    72   29   84 1   
    73   29   85 1   
    74   30   31 1   
    75   30   86 1   
    76   30   87 1   
    77   31   32 1   
    78   31   88 1   
    79   31   89 1   
    80   32   33 1   
    81   32   90 1   
    82   32   91 1   
    83   33   34 1   
    84   33   92 1   
    85   33   93 1   
    86   34   35 1   
    87   34   94 1   
    88   35   95 1   
    89   36   37 1   
    90   36   96 1   
    91   37   97 1   
    92   38   39 1   
    93   38   40 1   
    94   38   98 1   
    95   38   99 1   
    96   39  100 1   
    97   39  101 1   
    98   39  102 1   
    99   40  103 1   
   100   40  104 1   
   101  102  105 1   
   102  102  119 1   
   103  102  120 1   
   104  105  109 1   
   105  105  110 1   
   106  105  111 1   
   107  106  107 1   
   108  106  112 1   
   109  106  113 1   
   110  107  108 1   
   111  107  114 1   
   112  107  115 1   
   113  108  116 1   
   114  108  117 1   
   115  108  118 1   
@<TRIPOS>SUBSTRUCTURE
     1 ERA         1 TEMP              0 ****  ****    0 ROOT
