@<TRIPOS>MOLECULE
ERA
  121   108     1     0     0
SMALL
bcc


@<TRIPOS>ATOM
      1 OA          2.3730   -7.1270    7.8960 os        1 ERA     -0.129000
      2 NB          3.3280   -5.6660    6.2180 n         1 ERA     -0.221000
      3 CAA         2.3620   -6.6450    6.7120 c1        1 ERA      0.246000
      4 CAB         3.2490   -4.3850    6.4560 c2        1 ERA      0.079000
      5 CAC         0.7050   -3.8860    9.3970 c1        1 ERA      0.024000
      6 OAD         1.1780   -4.9130    8.6830 oh        1 ERA     -0.327000
      7 CAE         1.6430   -2.7840    9.4920 c2        1 ERA     -0.342000
      8 CAF         1.2530   -1.6650   10.1360 c2        1 ERA      0.033000
      9 CAG         2.1060   -0.4790   10.3170 c3        1 ERA     -0.237000
     10 CAH         4.1820   -1.2250    5.6090 c2        1 ERA     -0.239250
     11 CAI         3.1450    3.4670   12.7580 c3        1 ERA     -0.211000
     12 CAJ         4.4050   -1.2370    6.9170 c2        1 ERA     -0.239250
     13 CAK         4.1980    3.5050   11.6810 c3        1 ERA     -0.161000
     14 CAL         4.6190    2.1110   11.2670 c3        1 ERA     -0.156000
     15 CAM         5.6890    2.1540   10.1970 c3        1 ERA     -0.165000
     16 CAN         6.0640    0.7600    9.7410 c3        1 ERA     -0.135000
     17 CAO         7.1960    0.8030    8.7320 c3        1 ERA     -0.222000
     18 CAP         7.4440   -0.4970    8.1290 c1        1 ERA     -0.077000
     19 OBA         5.1000   -5.3920    4.7470 o         1 ERA     -0.223000
     20 CBC         4.0880   -7.5340    4.8460 c1        1 ERA     -0.331000
     21 CBD         3.9650   -8.6760    4.4790 c1        1 ERA      0.160000
     22 CBE         3.7900  -10.0020    4.0890 c2        1 ERA     -0.113000
     23 CBF         8.1490   -5.6970    6.3750 c3        1 ERA     -0.219000
     24 CBG         7.7600   -5.4500    7.8030 c3        1 ERA     -0.219000
     25 CBH         4.5740  -10.6150    3.2210 c1        1 ERA      0.018000
     26 CBI         5.3000  -11.2250    2.3970 c1        1 ERA     -0.165000
     27 CBJ         6.0620  -11.8550    1.5320 c2        1 ERA      0.040000
     28 CBK         5.8630  -13.2540    1.1150 c3        1 ERA     -0.214000
     29 CBL         4.5670   -7.6280    8.8300 c3        1 ERA     -0.187000
     30 CBM         5.4630   -7.4090   10.0220 c3        1 ERA     -0.217000
     31 CBN         3.2900   -6.8340    8.9900 c3        1 ERA     -0.072000
     32 CBO        -3.9650   -4.1760    5.5520 c3        1 ERA     -0.114000
     33 CBP        -3.3780   -4.5770    6.7880 c1        1 ERA     -0.141000
     34 CBQ        -2.8970   -4.9130    7.8320 c1        1 ERA     -0.183000
     35 CBR        -2.3420   -5.2940    9.0990 c3        1 ERA      0.035000
     36 CBS        -1.7450   -6.6030    9.0860 c1        1 ERA     -0.161000
     37 CBU        -0.3660  -11.2610    8.6180 c3        1 ERA     -0.219000
     38 CBV        -0.1390  -11.3470   10.0980 c3        1 ERA     -0.219000
     39 CBT        -1.2500   -7.6930    9.1000 c1        1 ERA     -0.233000
     40 HOA         3.4660   -5.7280    9.0260 h1        1 ERA      0.134000
     41 HNB         4.6930   -3.9370    8.3630 ha        1 ERA      0.001900
     42 HAA         1.9850   -3.2790    4.6640 ha        1 ERA      0.001900
     43 HAAA        1.7540   -2.9580    4.1120 ha        1 ERA      0.001900
     44 HAB         3.8930   -3.6450    5.9100 h4        1 ERA      0.215500
     45 HAC         2.5190   -3.9960    7.2040 h4        1 ERA      0.215500
     46 HOAD        0.4800   -5.6020    8.6850 ho        1 ERA      0.280000
     47 HAE         2.6610   -2.8650    9.0700 ha        1 ERA      0.095000
     48 HAF         0.2350   -1.5990   10.5660 ha        1 ERA      0.152000
     49 HAG         3.1050   -0.5910    9.8260 hc        1 ERA      0.109000
     50 HAGA        1.5990    0.4240    9.8890 hc        1 ERA      0.109000
     51 HAH         3.1750   -1.2420    5.1680 ha        1 ERA      0.120000
     52 HAHA        2.2670   -0.2940   11.4110 hc        1 ERA      0.109000
     53 HAI         2.8490    4.5050   13.0460 hc        1 ERA      0.073667
     54 HAIA        4.9990   -1.1730    4.8740 ha        1 ERA      0.120000
     55 HAJ         3.5280    2.9450   13.6680 hc        1 ERA      0.073667
     56 HAJA        2.2340    2.9280   12.4020 hc        1 ERA      0.073667
     57 HAK         5.4220   -1.1880    7.3540 ha        1 ERA      0.120000
     58 HAKA        3.5900   -1.2640    7.6550 ha        1 ERA      0.120000
     59 HAL         3.8050    4.0580   10.7880 hc        1 ERA      0.083000
     60 HALA        5.0940    4.0700   12.0510 hc        1 ERA      0.083000
     61 HAM         3.7260    1.5460   10.8840 hc        1 ERA      0.073500
     62 HAMA        5.0030    1.5530   12.1610 hc        1 ERA      0.073500
     63 HAN         6.5970    2.6780   10.5980 hc        1 ERA      0.084000
     64 HANA        5.3230    2.7520    9.3210 hc        1 ERA      0.084000
     65 HAO         6.3780    0.1450   10.6240 hc        1 ERA      0.082000
     66 HAOA        5.1740    0.2540    9.2790 hc        1 ERA      0.082000
     67 HAP         8.1030    1.2790    9.2010 hc        1 ERA      0.112000
     68 HAPA        6.8960    1.4720    7.8670 hc        1 ERA      0.112000
     69 HBC         4.2900   -3.2020    3.7760 ha        1 ERA      0.001900
     70 HBCA        4.9410   -3.2990    3.6090 ha        1 ERA      0.001900
     71 HBD         7.2560   -4.6340    3.8600 ha        1 ERA      0.001900
     72 HBDA        6.8510   -4.4330    3.3540 ha        1 ERA      0.001900
     73 HBE         6.0000   -3.1860    5.8820 ha        1 ERA      0.001900
     74 HBEA        6.5120   -3.6110    5.7410 ha        1 ERA      0.001900
     75 HBF         2.9330  -10.5380    4.5450 ha        1 ERA      0.182000
     76 HBFA        8.6650   -4.8010    5.9480 hc        1 ERA      0.073083
     77 HBG         7.2470   -5.9040    5.7460 hc        1 ERA      0.073083
     78 HBGA        7.0460   -4.5910    7.8750 hc        1 ERA      0.073083
     79 HBH         7.2670   -6.3520    8.2450 hc        1 ERA      0.073083
     80 HBI         8.8410   -6.5700    6.2980 hc        1 ERA      0.073083
     81 HBJ         6.9170  -11.3220    1.0690 ha        1 ERA      0.157000
     82 HBJA        8.6590   -5.2070    8.4200 hc        1 ERA      0.073083
     83 HBK         6.7820  -13.8500    1.3520 hc        1 ERA      0.112333
     84 HBKA        4.9890  -13.7310    1.6230 hc        1 ERA      0.112333
     85 HBL         4.3190   -8.7190    8.7320 hc        1 ERA      0.098000
     86 HBLA        5.6980  -13.2950    0.0070 hc        1 ERA      0.112333
     87 HBM         5.0980   -7.3200    7.8910 hc        1 ERA      0.098000
     88 HBMA        6.3920   -8.0210    9.9150 hc        1 ERA      0.092667
     89 HBN         5.7580   -6.3340   10.1040 hc        1 ERA      0.092667
     90 HBNA        4.9470   -7.7090   10.9670 hc        1 ERA      0.092667
     91 HBO        -0.8390   -8.6730    9.1110 ha        1 ERA      0.230000
     92 HBOA       -3.5210   -3.2090    5.1990 hc        1 ERA      0.098333
     93 HBP        -3.7920   -4.9550    4.7640 hc        1 ERA      0.098333
     94 HBQ        -5.0710   -4.0340    5.6720 hc        1 ERA      0.098333
     95 HBR        -1.5590   -4.5320    9.4140 hc        1 ERA      0.135500
     96 HBS        -3.1590   -5.2740    9.8820 hc        1 ERA      0.135500
     97 HBU        -1.4160  -10.9470    8.3970 hc        1 ERA      0.073083
     98 HBUA        0.3270  -10.5170    8.1520 hc        1 ERA      0.073083
     99 HBV         0.9140  -11.6480   10.3220 hc        1 ERA      0.073083
    100 HBVA       -0.8220  -12.1020   10.5590 hc        1 ERA      0.073083
    101 CBW         1.3450   -8.3770   11.6160 c2        1 ERA     -0.239250
    102 HBT         0.3720   -8.0680   11.2060 ha        1 ERA      0.120000
    103 HBTA       -0.1900  -12.2520    8.1330 hc        1 ERA      0.073083
    104 CBX         2.1300   -7.5570   12.3030 c2        1 ERA     -0.239250
    105 CAQ         8.7910   -0.8260    7.6940 c3        1 ERA     -0.220000
    106 CAR         8.8130   -1.9310    6.6540 c3        1 ERA     -0.142000
    107 CAS        10.2190   -2.2370    6.2080 c3        1 ERA     -0.219000
    108 HBX         1.8580   -6.5150   12.5170 ha        1 ERA      0.120000
    109 HBX1        3.0950   -7.8730   12.7240 ha        1 ERA      0.120000
    110 HBX2        2.7010   -7.1620    9.8960 h1        1 ERA      0.134000
    111 HAQ         9.3640    0.0650    7.3100 hc        1 ERA      0.114500
    112 HAQA        9.3400   -1.1770    8.6200 hc        1 ERA      0.114500
    113 HAR         8.3380   -2.8540    7.0840 hc        1 ERA      0.082500
    114 HARA        8.1920   -1.6240    5.7720 hc        1 ERA      0.082500
    115 HAS        10.6910   -1.3410    5.7370 hc        1 ERA      0.077000
    116 HAS1       10.2140   -3.0660    5.4590 hc        1 ERA      0.077000
    117 HAS2       10.8510   -2.5500    7.0740 hc        1 ERA      0.077000
    118 HBW         1.6060   -9.4280   11.4230 ha        1 ERA      0.120000
    119 HBWA       -0.3300  -10.3600   10.5880 hc        1 ERA      0.073083
    120 HB2         5.0160   -3.3880    8.1240 ha        1 ERA      0.001900
    121 CBB         4.2690   -6.1870    5.1830 c2        1 ERA      0.446000
@<TRIPOS>BOND
     1    1    3 1   
     2    1   31 1   
     3    2    3 1   
     4    2    4 1   
     5    2  121 1   
     6    4   44 1   
     7    4   45 1   
     8    5    6 1   
     9    5    7 1   
    10    6   46 1   
    11    7    8 1   
    12    7   47 1   
    13    8    9 1   
    14    8   48 1   
    15    9   49 1   
    16    9   50 1   
    17    9   52 1   
    18   10   12 1   
    19   10   51 1   
    20   10   54 1   
    21   11   13 1   
    22   11   53 1   
    23   11   55 1   
    24   11   56 1   
    25   12   57 1   
    26   12   58 1   
    27   13   14 1   
    28   13   59 1   
    29   13   60 1   
    30   14   15 1   
    31   14   61 1   
    32   14   62 1   
    33   15   16 1   
    34   15   63 1   
    35   15   64 1   
    36   16   17 1   
    37   16   65 1   
    38   16   66 1   
    39   17   18 1   
    40   17   67 1   
    41   17   68 1   
    42   18  105 1   
    43   19  121 1   
    44   20   21 1   
    45   20  121 1   
    46   21   22 1   
    47   22   25 1   
    48   22   75 1   
    49   23   24 1   
    50   23   76 1   
    51   23   77 1   
    52   23   80 1   
    53   24   78 1   
    54   24   79 1   
    55   24   82 1   
    56   25   26 1   
    57   26   27 1   
    58   27   28 1   
    59   27   81 1   
    60   28   83 1   
    61   28   84 1   
    62   28   86 1   
    63   29   30 1   
    64   29   31 1   
    65   29   85 1   
    66   29   87 1   
    67   30   88 1   
    68   30   89 1   
    69   30   90 1   
    70   31   40 1   
    71   31  110 1   
    72   32   33 1   
    73   32   92 1   
    74   32   93 1   
    75   32   94 1   
    76   33   34 1   
    77   34   35 1   
    78   35   36 1   
    79   35   95 1   
    80   35   96 1   
    81   36   39 1   
    82   37   38 1   
    83   37   97 1   
    84   37   98 1   
    85   37  103 1   
    86   38   99 1   
    87   38  100 1   
    88   38  119 1   
    89   39   91 1   
    90   41  120 1   
    91   42   43 1   
    92   69   70 1   
    93   71   72 1   
    94   73   74 1   
    95  101  102 1   
    96  101  104 1   
    97  101  118 1   
    98  104  108 1   
    99  104  109 1   
   100  105  106 1   
   101  105  111 1   
   102  105  112 1   
   103  106  107 1   
   104  106  113 1   
   105  106  114 1   
   106  107  115 1   
   107  107  116 1   
   108  107  117 1   
@<TRIPOS>SUBSTRUCTURE
     1 ERA         1 TEMP              0 ****  ****    0 ROOT
