@<TRIPOS>MOLECULE
ERA
  120   119     1     0     0
SMALL
bcc


@<TRIPOS>ATOM
      1 OA          3.9840    6.9540   -0.2920 oh        1 ERA     -0.611800
      2 NB          3.6710    4.1040   -0.1000 n         1 ERA     -0.552900
      3 CAA         4.8730    6.0960   -0.9740 c3        1 ERA      0.114400
      4 CAB         4.9690    4.7010   -0.3160 c3        1 ERA      0.019700
      5 CAC         5.7910    4.8250    1.0000 c3        1 ERA      0.169300
      6 OAD         5.1060    5.6220    1.9550 oh        1 ERA     -0.607800
      7 CAE         6.1390    3.4780    1.5400 c2        1 ERA     -0.210200
      8 CAF         7.3690    2.9620    1.4720 c2        1 ERA     -0.133200
      9 CAG         7.7270    1.6250    2.0060 c3        1 ERA     -0.052200
     10 CAH         8.5550    0.8350    1.0110 c3        1 ERA     -0.077400
     11 CAI         8.9370   -0.5170    1.5750 c3        1 ERA     -0.078400
     12 CAJ         9.7640   -1.3090    0.5850 c3        1 ERA     -0.079400
     13 CAK        10.1460   -2.6620    1.1480 c3        1 ERA     -0.078400
     14 CAL        10.9730   -3.4540    0.1580 c3        1 ERA     -0.079400
     15 CAM        11.3560   -4.8060    0.7200 c3        1 ERA     -0.078400
     16 CAN        12.1820   -5.5990   -0.2700 c3        1 ERA     -0.079400
     17 CAO        12.5650   -6.9510    0.2930 c3        1 ERA     -0.078400
     18 CAP        13.3910   -7.7440   -0.6970 c3        1 ERA     -0.079400
     19 OBA         4.0340    2.3400   -1.5300 o         1 ERA     -0.601100
     20 CBC         1.7910    2.5940   -0.6850 c3        1 ERA     -0.154400
     21 CBD         0.8540    3.6180   -1.2890 c3        1 ERA     -0.080400
     22 CBE        -0.5760    3.1190   -1.2590 c3        1 ERA     -0.079400
     23 CBF        -1.5230    4.1450   -1.8450 c3        1 ERA     -0.077400
     24 CBG        -2.9520    3.6440   -1.8200 c3        1 ERA     -0.048200
     25 CBH        -3.9020    4.6310   -2.3850 c2        1 ERA     -0.176200
     26 CBI        -5.2190    4.4180   -2.4880 c2        1 ERA     -0.171200
     27 CBJ        -5.8870    3.1700   -2.0520 c3        1 ERA     -0.049200
     28 CBK        -7.3860    3.2140   -2.2690 c3        1 ERA     -0.077400
     29 CBL        -8.0410    1.9270   -1.8150 c3        1 ERA     -0.079400
     30 CBM        -9.5390    1.9690   -2.0310 c3        1 ERA     -0.079400
     31 CBN       -10.1940    0.6830   -1.5760 c3        1 ERA     -0.076400
     32 CBO       -11.6940    0.7270   -1.7960 c3        1 ERA     -0.050200
     33 CBP       -12.3450   -0.5340   -1.3690 c2        1 ERA     -0.158200
     34 CBQ       -13.4870   -0.5760   -0.6690 ce        1 ERA     -0.139000
     35 CBR       -14.1280   -1.8140   -0.2760 ce        1 ERA     -0.141000
     36 CBS       -15.2740   -1.8550    0.4180 c2        1 ERA     -0.156200
     37 CBU       -16.4480   -3.0650    2.2360 c3        1 ERA     -0.076400
     38 CBV       -17.1500   -4.3510    2.6150 c3        1 ERA     -0.079400
     39 CBT       -15.9490   -3.1160    0.8050 c3        1 ERA     -0.050200
     40 HOA         4.3400    7.0920    0.5980 ho        1 ERA      0.421000
     41 HNB         2.9760    4.7340    0.2380 hn        1 ERA      0.309500
     42 HAA         4.4500    6.0140   -2.0110 h1        1 ERA      0.052700
     43 HAAA        5.8990    6.5480   -1.0250 h1        1 ERA      0.052700
     44 HAB         5.5620    4.0300   -1.0100 h1        1 ERA      0.102700
     45 HAC         6.7200    5.4250    0.7710 h1        1 ERA      0.077700
     46 HOAD        4.4130    5.0810    2.3520 ho        1 ERA      0.409000
     47 HAE         5.3030    2.9260    1.9970 ha        1 ERA      0.130000
     48 HAF         8.2000    3.5200    1.0090 ha        1 ERA      0.121000
     49 HAG         8.3150    1.7650    2.9540 hc        1 ERA      0.049700
     50 HAGA        6.8050    1.0420    2.2710 hc        1 ERA      0.049700
     51 HAH         7.9710    0.6970    0.0630 hc        1 ERA      0.045200
     52 HAHA        9.4820    1.4100    0.7500 hc        1 ERA      0.045200
     53 HAI         9.5180   -0.3790    2.5250 hc        1 ERA      0.039700
     54 HAIA        8.0090   -1.0920    1.8350 hc        1 ERA      0.039700
     55 HAJ         9.1820   -1.4480   -0.3640 hc        1 ERA      0.041200
     56 HAJA       10.6910   -0.7350    0.3240 hc        1 ERA      0.041200
     57 HAK        10.7270   -2.5230    2.0980 hc        1 ERA      0.039200
     58 HAKA        9.2190   -3.2360    1.4090 hc        1 ERA      0.039200
     59 HAL        10.3910   -3.5930   -0.7910 hc        1 ERA      0.040200
     60 HALA       11.9000   -2.8790   -0.1030 hc        1 ERA      0.040200
     61 HAM        11.9370   -4.6680    1.6700 hc        1 ERA      0.039200
     62 HAMA       10.4280   -5.3810    0.9820 hc        1 ERA      0.039200
     63 HAN        11.6000   -5.7380   -1.2190 hc        1 ERA      0.039700
     64 HANA       13.1090   -5.0240   -0.5310 hc        1 ERA      0.039700
     65 HAO        13.1470   -6.8130    1.2420 hc        1 ERA      0.039700
     66 HAOA       11.6380   -7.5260    0.5550 hc        1 ERA      0.039700
     67 HAP        12.8090   -7.8830   -1.6470 hc        1 ERA      0.039700
     68 HAPA       14.3180   -7.1690   -0.9590 hc        1 ERA      0.039700
     69 HBC         1.6670    1.6070   -1.2060 hc        1 ERA      0.072700
     70 HBCA        1.5500    2.4400    0.4000 hc        1 ERA      0.072700
     71 HBD         0.9210    4.5870   -0.7280 hc        1 ERA      0.049200
     72 HBDA        1.1560    3.8250   -2.3500 hc        1 ERA      0.049200
     73 HBE        -0.6530    2.1610   -1.8380 hc        1 ERA      0.042200
     74 HBEA       -0.8740    2.8920   -0.2020 hc        1 ERA      0.042200
     75 HBF        -1.4490    5.1020   -1.2640 hc        1 ERA      0.044200
     76 HBFA       -1.2220    4.3740   -2.9020 hc        1 ERA      0.044200
     77 HBG        -3.0240    2.6820   -2.3990 hc        1 ERA      0.048200
     78 HBGA       -3.2480    3.4050   -0.7610 hc        1 ERA      0.048200
     79 HBH        -3.4640    5.5820   -2.7290 ha        1 ERA      0.123000
     80 HBI        -5.8750    5.1930   -2.9180 ha        1 ERA      0.123000
     81 HBJ        -5.4510    2.2980   -2.6130 hc        1 ERA      0.047700
     82 HBJA       -5.6710    2.9910   -0.9620 hc        1 ERA      0.047700
     83 HBK        -7.8230    4.0790   -1.7050 hc        1 ERA      0.041700
     84 HBKA       -7.6030    3.3840   -3.3570 hc        1 ERA      0.041700
     85 HBL        -7.6040    1.0620   -2.3800 hc        1 ERA      0.040200
     86 HBLA       -7.8230    1.7570   -0.7280 hc        1 ERA      0.040200
     87 HBM        -9.9760    2.8340   -1.4670 hc        1 ERA      0.040200
     88 HBMA       -9.7570    2.1390   -3.1190 hc        1 ERA      0.040200
     89 HBN        -9.7560   -0.1830   -2.1390 hc        1 ERA      0.042700
     90 HBNA       -9.9790    0.5140   -0.4890 hc        1 ERA      0.042700
     91 HBO       -12.1270    1.6050   -1.2450 hc        1 ERA      0.047700
     92 HBOA      -11.9050    0.8880   -2.8890 hc        1 ERA      0.047700
     93 HBP       -11.8300   -1.4590   -1.6770 ha        1 ERA      0.121000
     94 HBQ       -13.9940    0.3550   -0.3610 ha        1 ERA      0.121000
     95 HBR       -13.6180   -2.7450   -0.5800 ha        1 ERA      0.121000
     96 HBS       -15.7870   -0.9300    0.7290 ha        1 ERA      0.121000
     97 HBU       -17.1530   -2.2010    2.3580 hc        1 ERA      0.042200
     98 HBUA      -15.5840   -2.8880    2.9290 hc        1 ERA      0.042200
     99 HBV       -18.0120   -4.5290    1.9190 hc        1 ERA      0.039700
    100 HBVA      -16.4440   -5.2150    2.4950 hc        1 ERA      0.039700
    101 CBW       -17.6530   -4.3030    4.0420 c3        1 ERA     -0.080400
    102 HBT       -16.8200   -3.2850    0.1140 hc        1 ERA      0.047700
    103 HBTA      -15.2570   -3.9930    0.6820 hc        1 ERA      0.047700
    104 CBX       -18.3520   -5.5820    4.4250 c3        1 ERA     -0.093100
    105 CAQ        13.7740   -9.0960   -0.1350 c3        1 ERA     -0.079400
    106 CAR        14.6010   -9.8900   -1.1250 c3        1 ERA     -0.080400
    107 CAS        14.9850  -11.2370   -0.5690 c3        1 ERA     -0.092100
    108 HBX       -19.2300   -5.7660    3.7600 hc        1 ERA      0.032700
    109 HBX1      -17.6580   -6.4530    4.3370 hc        1 ERA      0.032700
    110 HBX2      -18.7150   -5.5260    5.4800 hc        1 ERA      0.032700
    111 HAQ        14.3560   -8.9580    0.8140 hc        1 ERA      0.039700
    112 HAQA       12.8480   -9.6710    0.1270 hc        1 ERA      0.039700
    113 HAR        14.0180  -10.0260   -2.0740 hc        1 ERA      0.038700
    114 HARA       15.5260   -9.3130   -1.3870 hc        1 ERA      0.038700
    115 HAS        15.5880  -11.1220    0.3640 hc        1 ERA      0.032700
    116 HAS1       14.0750  -11.8370   -0.3250 hc        1 ERA      0.032700
    117 HAS2       15.5930  -11.8060   -1.3140 hc        1 ERA      0.032700
    118 HBW       -16.7900   -4.1230    4.7370 hc        1 ERA      0.038700
    119 HBWA      -18.3580   -3.4380    4.1610 hc        1 ERA      0.038700
    120 CBB         3.2440    3.0050   -0.8320 c         1 ERA      0.651100
@<TRIPOS>BOND
     1    1    3 1   
     2    1   40 1   
     3    2    4 1   
     4    2   41 1   
     5    2  120 1   
     6    3    4 1   
     7    3   42 1   
     8    3   43 1   
     9    4    5 1   
    10    4   44 1   
    11    5    6 1   
    12    5    7 1   
    13    5   45 1   
    14    6   46 1   
    15    7    8 2   
    16    7   47 1   
    17    8    9 1   
    18    8   48 1   
    19    9   10 1   
    20    9   49 1   
    21    9   50 1   
    22   10   11 1   
    23   10   51 1   
    24   10   52 1   
    25   11   12 1   
    26   11   53 1   
    27   11   54 1   
    28   12   13 1   
    29   12   55 1   
    30   12   56 1   
    31   13   14 1   
    32   13   57 1   
    33   13   58 1   
    34   14   15 1   
    35   14   59 1   
    36   14   60 1   
    37   15   16 1   
    38   15   61 1   
    39   15   62 1   
    40   16   17 1   
    41   16   63 1   
    42   16   64 1   
    43   17   18 1   
    44   17   65 1   
    45   17   66 1   
    46   18   67 1   
    47   18   68 1   
    48   18  105 1   
    49   19  120 2   
    50   20   21 1   
    51   20   69 1   
    52   20   70 1   
    53   20  120 1   
    54   21   22 1   
    55   21   71 1   
    56   21   72 1   
    57   22   23 1   
    58   22   73 1   
    59   22   74 1   
    60   23   24 1   
    61   23   75 1   
    62   23   76 1   
    63   24   25 1   
    64   24   77 1   
    65   24   78 1   
    66   25   26 2   
    67   25   79 1   
    68   26   27 1   
    69   26   80 1   
    70   27   28 1   
    71   27   81 1   
    72   27   82 1   
    73   28   29 1   
    74   28   83 1   
    75   28   84 1   
    76   29   30 1   
    77   29   85 1   
    78   29   86 1   
    79   30   31 1   
    80   30   87 1   
    81   30   88 1   
    82   31   32 1   
    83   31   89 1   
    84   31   90 1   
    85   32   33 1   
    86   32   91 1   
    87   32   92 1   
    88   33   34 2   
    89   33   93 1   
    90   34   35 1   
    91   34   94 1   
    92   35   36 2   
    93   35   95 1   
    94   36   39 1   
    95   36   96 1   
    96   37   38 1   
    97   37   39 1   
    98   37   97 1   
    99   37   98 1   
   100   38   99 1   
   101   38  100 1   
   102   38  101 1   
   103   39  102 1   
   104   39  103 1   
   105  101  104 1   
   106  101  118 1   
   107  101  119 1   
   108  104  108 1   
   109  104  109 1   
   110  104  110 1   
   111  105  106 1   
   112  105  111 1   
   113  105  112 1   
   114  106  107 1   
   115  106  113 1   
   116  106  114 1   
   117  107  115 1   
   118  107  116 1   
   119  107  117 1   
@<TRIPOS>SUBSTRUCTURE
     1 ERA         1 TEMP              0 ****  ****    0 ROOT
