@<TRIPOS>MOLECULE
ERC
   59    57     1     0     0
SMALL
bcc


@<TRIPOS>ATOM
      1 C1          0.7500   -5.1750   -6.4230 c1        1 ERC      0.327000
      2 N1          2.0520   -4.5750   -6.2550 n2        1 ERC     -0.286000
      3 O1          0.4500   -5.6890   -7.4980 o         1 ERC     -0.354000
      4 S1         -2.4220    9.3160    2.9800 sh        1 ERC     -0.018000
      5 C2         -0.1380   -5.3570   -5.2450 c2        1 ERC     -0.201000
      6 N2          0.4200   -2.4780    0.5970 n3        1 ERC     -0.306000
      7 O2          4.6760   -3.5610   -5.7680 oh        1 ERC     -0.259000
      8 C3          0.3140   -4.9300   -3.9180 c1        1 ERC     -0.061000
      9 O3          2.3320   -4.3510   -0.1490 oh        1 ERC     -0.330000
     10 C4          1.6760   -4.3070   -3.7520 c1        1 ERC     -0.087000
     11 O4         -3.7870    2.5370    3.4510 os        1 ERC     -0.209000
     12 C5          2.5160   -4.1330   -4.8740 c2        1 ERC      0.087000
     13 O5         -1.7280    4.3650    4.0100 os        1 ERC     -0.214000
     14 C6          3.7650   -3.5160   -4.7230 c2        1 ERC      0.034000
     15 C7          4.1800   -3.0740   -3.4640 c2        1 ERC     -0.170000
     16 C8          3.3400   -3.2470   -2.3410 c1        1 ERC     -0.121000
     17 C9          2.0930   -3.8620   -2.4890 c1        1 ERC     -0.095000
     18 C10         1.4260   -3.8670   -1.0980 c3        1 ERC      0.062000
     19 C11         1.0230   -2.4780   -0.7360 c3        1 ERC     -0.066000
     20 C12         0.0570   -1.0840    0.9780 c3        1 ERC     -0.071000
     21 C13        -0.5250   -1.0690    2.3990 c3        1 ERC     -0.127000
     22 C14        -0.8610    0.4180    2.8090 c2        1 ERC     -0.050000
     23 C15         0.1710    1.3040    3.1140 c2        1 ERC     -0.148000
     24 C16        -0.1180    2.5970    3.4910 c1        1 ERC     -0.110000
     25 C17        -1.4270    3.0170    3.5670 c1        1 ERC      0.029000
     26 C18        -2.4550    2.1410    3.2640 c2        1 ERC      0.055000
     27 C19        -2.1650    0.8340    2.8830 c2        1 ERC     -0.186000
     28 C20        -4.5250    2.6440    2.2530 c3        1 ERC     -0.077000
     29 C21        -1.2560    5.3740    3.1370 c3        1 ERC     -0.019000
     30 C22        -1.7530    6.7610    3.6270 c3        1 ERC     -0.158000
     31 C23        -1.7250    7.7660    2.4510 c3        1 ERC     -0.251000
     32 HN1         2.6170   -4.5150   -6.9620 hn        1 ERC      0.262000
     33 HS1        -2.3720   10.0880    2.0970 hs        1 ERC      0.026000
     34 H2         -0.9940   -5.7510   -5.3510 ha        1 ERC      0.167000
     35 HN2         1.0230   -2.8180    1.2070 hn        1 ERC      0.164000
     36 HO2         5.0240   -2.7800   -5.8800 ho        1 ERC      0.229000
     37 H3         -0.2680   -5.0470   -3.1420 ha        1 ERC      0.153000
     38 HO3         2.0930   -5.1910    0.0970 ho        1 ERC      0.207000
     39 H7          5.0590   -2.6410   -3.3590 ha        1 ERC      0.141000
     40 H8          3.6320   -2.9340   -1.4560 ha        1 ERC      0.153000
     41 H10         0.6270   -4.4480   -1.1170 h1        1 ERC      0.097000
     42 H11         1.7980   -1.9100   -0.7370 h1        1 ERC      0.085000
     43 H11A        0.3860   -2.1520   -1.3750 h1        1 ERC      0.085000
     44 H12        -0.6030   -0.7420    0.3550 h1        1 ERC      0.074000
     45 H12A        0.8510   -0.5220    0.9490 h1        1 ERC      0.074000
     46 H13        -1.3530   -1.6180    2.4260 hc        1 ERC      0.095500
     47 H13A        0.1250   -1.4340    3.0170 hc        1 ERC      0.095500
     48 H15         1.1020    1.0070    3.0610 ha        1 ERC      0.136000
     49 H16         0.6170    3.2240    3.7090 ha        1 ERC      0.149000
     50 H19        -2.8770    0.2150    2.7090 ha        1 ERC      0.141000
     51 H20        -5.4070    3.0060    2.4460 h1        1 ERC      0.085000
     52 H20A       -4.6180    1.7560    1.8450 h1        1 ERC      0.085000
     53 H20B       -4.0600    3.2370    1.6360 h1        1 ERC      0.085000
     54 H21        -0.2750    5.3640    3.1250 h1        1 ERC      0.083000
     55 H21A       -1.5970    5.2060    2.2280 h1        1 ERC      0.083000
     56 H22        -2.6760    6.6780    3.9660 hc        1 ERC      0.111500
     57 H22A       -1.1560    7.0910    4.3630 hc        1 ERC      0.111500
     58 H23        -2.2500    7.4070    1.6990 h1        1 ERC      0.099000
     59 H23A       -0.8020    7.9060    2.1650 h1        1 ERC      0.099000
@<TRIPOS>BOND
     1    1    3 1   
     2    1    5 1   
     3    2   12 1   
     4    2   32 1   
     5    4   31 1   
     6    4   33 1   
     7    5    8 1   
     8    5   34 1   
     9    6   19 1   
    10    6   20 1   
    11    6   35 1   
    12    7   14 1   
    13    7   36 1   
    14    8   37 1   
    15    9   18 1   
    16    9   38 1   
    17   10   12 1   
    18   10   17 1   
    19   11   26 1   
    20   11   28 1   
    21   12   14 1   
    22   13   25 1   
    23   13   29 1   
    24   14   15 1   
    25   15   16 1   
    26   15   39 1   
    27   16   40 1   
    28   17   18 1   
    29   18   19 1   
    30   18   41 1   
    31   19   42 1   
    32   19   43 1   
    33   20   21 1   
    34   20   44 1   
    35   20   45 1   
    36   21   22 1   
    37   21   46 1   
    38   21   47 1   
    39   22   23 1   
    40   22   27 1   
    41   23   24 1   
    42   23   48 1   
    43   24   49 1   
    44   25   26 1   
    45   26   27 1   
    46   27   50 1   
    47   28   51 1   
    48   28   52 1   
    49   28   53 1   
    50   29   30 1   
    51   29   54 1   
    52   29   55 1   
    53   30   31 1   
    54   30   56 1   
    55   30   57 1   
    56   31   58 1   
    57   31   59 1   
@<TRIPOS>SUBSTRUCTURE
     1 ERC         1 TEMP              0 ****  ****    0 ROOT
