@<TRIPOS>MOLECULE
ERC
   59    61     1     0     0
SMALL
bcc


@<TRIPOS>ATOM
      1 C1         -4.2240    2.5170   -2.2030 c         1 ERC      0.688700
      2 N1         -5.4730    2.0730   -1.7540 n         1 ERC     -0.431100
      3 O1         -4.1820    3.4240   -3.0560 o         1 ERC     -0.627500
      4 S1          9.2600    3.5050    0.2920 sh        1 ERC     -0.365900
      5 C2         -3.0430    1.8660   -1.6200 cc        1 ERC     -0.219200
      6 N2         -1.5970   -2.9330    0.6460 n3        1 ERC     -0.815200
      7 O2         -7.9880    1.2850   -0.9220 oh        1 ERC     -0.505100
      8 C3         -3.1650    0.8840   -0.7030 cd        1 ERC     -0.048200
      9 O3         -3.6670   -1.9380    2.5060 oh        1 ERC     -0.590800
     10 C4         -4.4620    0.4300   -0.2530 ca        1 ERC     -0.101800
     11 O4          4.4540   -1.2740   -1.9110 os        1 ERC     -0.303900
     12 C5         -5.6070    1.0680   -0.8060 ca        1 ERC      0.083600
     13 O5          5.4360    0.3350   -0.1260 os        1 ERC     -0.304900
     14 C6         -6.9010    0.6470   -0.3600 ca        1 ERC      0.076100
     15 C7         -7.0300   -0.3520    0.5930 ca        1 ERC     -0.166000
     16 C8         -5.8900   -0.9680    1.1220 ca        1 ERC     -0.122000
     17 C9         -4.6190   -0.5980    0.7070 ca        1 ERC     -0.081300
     18 C10        -3.4070   -1.2780    1.2790 c3        1 ERC      0.140400
     19 C11        -2.8200   -2.2790    0.2530 c3        1 ERC      0.130800
     20 C12        -0.4060   -2.1230    0.4670 c3        1 ERC      0.160800
     21 C13         0.8300   -2.7140    1.1510 c3        1 ERC     -0.037100
     22 C14         2.0330   -1.8930    0.8460 ca        1 ERC     -0.082300
     23 C15         2.5650   -1.0270    1.8000 ca        1 ERC     -0.125000
     24 C16         3.7000   -0.2640    1.5170 ca        1 ERC     -0.180000
     25 C17         4.3150   -0.3640    0.2700 ca        1 ERC      0.106100
     26 C18         3.7770   -1.2470   -0.7080 ca        1 ERC      0.105100
     27 C19         2.6440   -2.0010   -0.4120 ca        1 ERC     -0.177000
     28 C20         3.9460   -2.1730   -2.8900 c3        1 ERC      0.109700
     29 C21         5.9890    1.2230    0.8530 c3        1 ERC      0.128400
     30 C22         7.1990    1.8590    0.1870 c3        1 ERC     -0.079400
     31 C23         7.8560    2.8290    1.1340 c3        1 ERC      0.006700
     32 HN1        -6.3010    2.4950   -2.1190 hn        1 ERC      0.348500
     33 HS1         9.6930    4.3190    1.2370 hs        1 ERC      0.198800
     34 H2         -2.0730    2.2370   -1.9810 ha        1 ERC      0.168000
     35 HN2        -1.6670   -3.2540    1.5960 hn        1 ERC      0.367800
     36 HO2        -8.7880    0.9210   -0.5150 ho        1 ERC      0.430000
     37 H3         -2.2670    0.4090   -0.2750 ha        1 ERC      0.143000
     38 HO3        -4.2110   -2.7130    2.3160 ho        1 ERC      0.400000
     39 H7         -8.0280   -0.6620    0.9370 ha        1 ERC      0.141000
     40 H8         -6.0230   -1.7450    1.8900 ha        1 ERC      0.140000
     41 H10        -2.6410   -0.5000    1.5700 h1        1 ERC      0.087700
     42 H11        -2.6650   -1.7420   -0.7230 h1        1 ERC      0.063200
     43 H11A       -3.5840   -3.0920    0.0850 h1        1 ERC      0.063200
     44 H12        -0.2100   -2.0580   -0.6420 h1        1 ERC      0.032700
     45 H12A       -0.5470   -1.0660    0.8430 h1        1 ERC      0.032700
     46 H13         0.6650   -2.7570    2.2610 hc        1 ERC      0.056200
     47 H13A        0.9940   -3.7660    0.7950 hc        1 ERC      0.056200
     48 H15         2.0920   -0.9400    2.7890 ha        1 ERC      0.134000
     49 H16         4.1000    0.4100    2.2880 ha        1 ERC      0.139000
     50 H19         2.2180   -2.6890   -1.1570 ha        1 ERC      0.143000
     51 H20         2.9040   -1.8940   -3.1810 h1        1 ERC      0.044367
     52 H20A        4.6460   -2.0350   -3.7530 h1        1 ERC      0.044367
     53 H20B        3.9810   -3.2260   -2.5190 h1        1 ERC      0.044367
     54 H21         5.2270    1.9980    1.1320 h1        1 ERC      0.037700
     55 H21A        6.2880    0.6420    1.7650 h1        1 ERC      0.037700
     56 H22         7.9210    1.0540   -0.1140 hc        1 ERC      0.077200
     57 H22A        6.8740    2.3830   -0.7500 hc        1 ERC      0.077200
     58 H23         8.1770    2.3100    2.0700 h1        1 ERC      0.059700
     59 H23A        7.1450    3.6420    1.4200 h1        1 ERC      0.059700
@<TRIPOS>BOND
     1    1    2 1   
     2    1    3 2   
     3    1    5 1   
     4    2   12 1   
     5    2   32 1   
     6    4   31 1   
     7    4   33 1   
     8    5    8 2   
     9    5   34 1   
    10    6   19 1   
    11    6   20 1   
    12    6   35 1   
    13    7   14 1   
    14    7   36 1   
    15    8   10 1   
    16    8   37 1   
    17    9   18 1   
    18    9   38 1   
    19   10   12 ar  
    20   10   17 ar  
    21   11   26 1   
    22   11   28 1   
    23   12   14 ar  
    24   13   25 1   
    25   13   29 1   
    26   14   15 ar  
    27   15   16 ar  
    28   15   39 1   
    29   16   17 ar  
    30   16   40 1   
    31   17   18 1   
    32   18   19 1   
    33   18   41 1   
    34   19   42 1   
    35   19   43 1   
    36   20   21 1   
    37   20   44 1   
    38   20   45 1   
    39   21   22 1   
    40   21   46 1   
    41   21   47 1   
    42   22   23 ar  
    43   22   27 ar  
    44   23   24 ar  
    45   23   48 1   
    46   24   25 ar  
    47   24   49 1   
    48   25   26 ar  
    49   26   27 ar  
    50   27   50 1   
    51   28   51 1   
    52   28   52 1   
    53   28   53 1   
    54   29   30 1   
    55   29   54 1   
    56   29   55 1   
    57   30   31 1   
    58   30   56 1   
    59   30   57 1   
    60   31   58 1   
    61   31   59 1   
@<TRIPOS>SUBSTRUCTURE
     1 ERC         1 TEMP              0 ****  ****    0 ROOT
