@<TRIPOS>MOLECULE
ERC
   60    62     1     0     0
SMALL
bcc


@<TRIPOS>ATOM
      1 C1          0.1250   -0.1840   -0.2450 c         1 ERC      0.683700
      2 N1          1.5130   -0.0360   -0.1010 n         1 ERC     -0.428100
      3 O1         -0.3620   -0.2240   -1.3860 o         1 ERC     -0.584500
      4 S1         -4.7790   12.2390   10.3890 sh        1 ERC     -0.353900
      5 C2         -0.6580   -0.2760    0.9990 cc        1 ERC     -0.182200
      6 N2          0.1440    1.2780    6.6350 n4        1 ERC     -0.758000
      7 O2          4.2480    0.2490    0.0620 oh        1 ERC     -0.489100
      8 C3         -0.0630   -0.2200    2.2070 cd        1 ERC     -0.081200
      9 O3          2.0230   -0.6160    5.9570 oh        1 ERC     -0.637800
     10 C4          1.3690   -0.0730    2.3370 ca        1 ERC     -0.091800
     11 O4          0.0910    7.0950   10.3990 os        1 ERC     -0.290900
     12 C5          2.1290    0.0170    1.1370 ca        1 ERC      0.090600
     13 O5         -2.2530    7.9980    9.7760 os        1 ERC     -0.293900
     14 C6          3.5540    0.1680    1.2430 ca        1 ERC      0.119100
     15 C7          4.1710    0.2340    2.4850 ca        1 ERC     -0.178000
     16 C8          3.4050    0.1450    3.6520 ca        1 ERC     -0.106000
     17 C9          2.0270   -0.0160    3.5870 ca        1 ERC     -0.155300
     18 C10         1.2510   -0.1380    4.8630 c3        1 ERC      0.191400
     19 C11         0.7620    1.2700    5.2780 c3        1 ERC      0.098800
     20 C12        -0.2710    2.6480    7.0570 c3        1 ERC      0.100800
     21 C13        -0.9320    2.6630    8.4360 c3        1 ERC     -0.039100
     22 C14        -1.3070    4.0640    8.7680 ca        1 ERC     -0.137300
     23 C15        -2.5670    4.5520    8.4380 ca        1 ERC     -0.105000
     24 C16        -2.9280    5.8640    8.7570 ca        1 ERC     -0.186000
     25 C17        -2.0230    6.6960    9.4160 ca        1 ERC      0.146100
     26 C18        -0.7310    6.1940    9.7630 ca        1 ERC      0.115100
     27 C19        -0.3850    4.8870    9.4370 ca        1 ERC     -0.176000
     28 C20         1.3080    6.5750   10.9270 c3        1 ERC      0.107700
     29 C21        -3.5680    8.5090    9.4980 c3        1 ERC      0.125400
     30 C22        -3.5590    9.9360   10.0230 c3        1 ERC     -0.078400
     31 C23        -4.9070   10.5730    9.8060 c3        1 ERC      0.001700
     32 HN1         2.0820    0.0210   -0.9220 hn        1 ERC      0.361500
     33 HS1        -6.0220   12.6320   10.1710 hs        1 ERC      0.205800
     34 H2         -1.7440   -0.3950    0.8620 ha        1 ERC      0.177000
     35 HN2         0.8300    0.8980    7.3040 hn        1 ERC      0.455800
     36 HO2         5.1950    0.3200    0.2640 ho        1 ERC      0.445000
     37 H3         -0.6710   -0.2900    3.1220 ha        1 ERC      0.120000
     38 HO3         2.5570   -1.3610    5.6440 ho        1 ERC      0.456000
     39 H7          5.2630    0.3530    2.5560 ha        1 ERC      0.158000
     40 H8          3.9130    0.2030    4.6280 ha        1 ERC      0.147000
     41 H10         0.3720   -0.8360    4.7340 h1        1 ERC      0.067700
     42 H11         1.6400    1.9760    5.2930 hx        1 ERC      0.115200
     43 H11A        0.0050    1.6300    4.5260 hx        1 ERC      0.115200
     44 H12         0.6480    3.3020    7.0680 hx        1 ERC      0.108200
     45 H12A       -0.9880    3.0490    6.2850 hx        1 ERC      0.108200
     46 H13        -1.8480    2.0120    8.4350 hc        1 ERC      0.067700
     47 H13A       -0.2250    2.2600    9.2100 hc        1 ERC      0.067700
     48 H15        -3.2990    3.9070    7.9300 ha        1 ERC      0.132000
     49 H16        -3.9310    6.2270    8.4900 ha        1 ERC      0.154000
     50 H19         0.6020    4.4890    9.7130 ha        1 ERC      0.138000
     51 H20         1.1090    5.7370   11.6380 h1        1 ERC      0.050367
     52 H20A        1.7480    7.4550   11.4640 h1        1 ERC      0.050367
     53 H20B        1.9820    6.2410   10.1010 h1        1 ERC      0.050367
     54 H21        -4.3320    7.8840   10.0280 h1        1 ERC      0.043200
     55 H21A       -3.7510    8.4830    8.3920 h1        1 ERC      0.043200
     56 H22        -3.3000    9.9280   11.1150 hc        1 ERC      0.080700
     57 H22A       -2.7590   10.5210    9.4950 hc        1 ERC      0.080700
     58 H23        -5.1810   10.5580    8.7230 h1        1 ERC      0.060700
     59 H23A       -5.6990   10.0210   10.3670 h1        1 ERC      0.060700
     60 H221       -0.6700    0.6540    6.6440 hn        1 ERC      0.455800
@<TRIPOS>BOND
     1    1    2 1   
     2    1    3 2   
     3    1    5 1   
     4    2   12 1   
     5    2   32 1   
     6    4   31 1   
     7    4   33 1   
     8    5    8 2   
     9    5   34 1   
    10    6   19 1   
    11    6   20 1   
    12    6   35 1   
    13    6   60 1   
    14    7   14 1   
    15    7   36 1   
    16    8   10 1   
    17    8   37 1   
    18    9   18 1   
    19    9   38 1   
    20   10   12 ar  
    21   10   17 ar  
    22   11   26 1   
    23   11   28 1   
    24   12   14 ar  
    25   13   25 1   
    26   13   29 1   
    27   14   15 ar  
    28   15   16 ar  
    29   15   39 1   
    30   16   17 ar  
    31   16   40 1   
    32   17   18 1   
    33   18   19 1   
    34   18   41 1   
    35   19   42 1   
    36   19   43 1   
    37   20   21 1   
    38   20   44 1   
    39   20   45 1   
    40   21   22 1   
    41   21   46 1   
    42   21   47 1   
    43   22   23 ar  
    44   22   27 ar  
    45   23   24 ar  
    46   23   48 1   
    47   24   25 ar  
    48   24   49 1   
    49   25   26 ar  
    50   26   27 ar  
    51   27   50 1   
    52   28   51 1   
    53   28   52 1   
    54   28   53 1   
    55   29   30 1   
    56   29   54 1   
    57   29   55 1   
    58   30   31 1   
    59   30   56 1   
    60   30   57 1   
    61   31   58 1   
    62   31   59 1   
@<TRIPOS>SUBSTRUCTURE
     1 ERC         1 TEMP              0 ****  ****    0 ROOT
