@<TRIPOS>MOLECULE
ERC
   60    62     1     0     0
SMALL
bcc


@<TRIPOS>ATOM
      1 C1          0.1310   -0.1870   -0.2470 c         1 ERC      0.683700
      2 N1          1.5180   -0.0390   -0.1000 ns        1 ERC     -0.428100
      3 O1         -0.3540   -0.2270   -1.3890 o         1 ERC     -0.584500
      4 S1         -4.7750   12.2400   10.4020 sh        1 ERC     -0.353900
      5 C2         -0.6550   -0.2780    0.9950 cc        1 ERC     -0.182200
      6 N2          0.1380    1.2770    6.6330 ny        1 ERC     -0.758000
      7 O2          4.2540    0.2450    0.0680 oh        1 ERC     -0.489100
      8 C3         -0.0620   -0.2220    2.2040 cd        1 ERC     -0.081200
      9 O3          2.0160   -0.6190    5.9580 oh        1 ERC     -0.637800
     10 C4          1.3700   -0.0750    2.3370 ca        1 ERC     -0.091800
     11 O4          0.1010    7.1020   10.3740 os        1 ERC     -0.290900
     12 C5          2.1320    0.0140    1.1390 ca        1 ERC      0.090600
     13 O5         -2.2500    8.0010    9.7720 os        1 ERC     -0.293900
     14 C6          3.5570    0.1650    1.2480 ca        1 ERC      0.119100
     15 C7          4.1710    0.2300    2.4910 ca        1 ERC     -0.178000
     16 C8          3.4020    0.1420    3.6560 ca        1 ERC     -0.106000
     17 C9          2.0250   -0.0180    3.5890 ca        1 ERC     -0.155300
     18 C10         1.2460   -0.1400    4.8630 c3        1 ERC      0.191400
     19 C11         0.7570    1.2680    5.2770 c3        1 ERC      0.098800
     20 C12        -0.2770    2.6480    7.0550 c3        1 ERC      0.100800
     21 C13        -0.9380    2.6630    8.4340 c3        1 ERC     -0.039100
     22 C14        -1.3100    4.0650    8.7660 ca        1 ERC     -0.137300
     23 C15        -2.5750    4.5510    8.4470 ca        1 ERC     -0.105000
     24 C16        -2.9330    5.8640    8.7660 ca        1 ERC     -0.186000
     25 C17        -2.0230    6.6980    9.4140 ca        1 ERC      0.146100
     26 C18        -0.7270    6.1980    9.7500 ca        1 ERC      0.115100
     27 C19        -0.3830    4.8910    9.4230 ca        1 ERC     -0.176000
     28 C20         1.3230    6.5850   10.8930 c3        1 ERC      0.107700
     29 C21        -3.5690    8.5100    9.5070 c3        1 ERC      0.125400
     30 C22        -3.5560    9.9380   10.0280 c3        1 ERC     -0.078400
     31 C23        -4.9080   10.5720    9.8270 c3        1 ERC      0.001700
     32 HN1         2.0890    0.0170   -0.9200 hn        1 ERC      0.361500
     33 HS1        -6.0220   12.6290   10.2000 hs        1 ERC      0.205800
     34 H2         -1.7410   -0.3960    0.8560 ha        1 ERC      0.177000
     35 HN2         0.8220    0.8970    7.3040 hn        1 ERC      0.455800
     36 HO2         5.2000    0.3150    0.2720 ho        1 ERC      0.445000
     37 H3         -0.6720   -0.2910    3.1180 ha        1 ERC      0.120000
     38 HO3         2.5500   -1.3630    5.6460 ho        1 ERC      0.456000
     39 H7          5.2640    0.3490    2.5640 ha        1 ERC      0.158000
     40 H8          3.9090    0.2000    4.6330 ha        1 ERC      0.147000
     41 H10         0.3670   -0.8370    4.7320 h1        1 ERC      0.067700
     42 H11         0.0020    1.6300    4.5250 hx        1 ERC      0.115200
     43 H11A        1.6360    1.9750    5.2930 hx        1 ERC      0.115200
     44 H12         0.6420    3.3020    7.0650 hx        1 ERC      0.108200
     45 H12A       -0.9940    3.0490    6.2820 hx        1 ERC      0.108200
     46 H13        -1.8540    2.0130    8.4330 hc        1 ERC      0.067700
     47 H13A       -0.2310    2.2600    9.2080 hc        1 ERC      0.067700
     48 H15        -3.3110    3.9040    7.9470 ha        1 ERC      0.132000
     49 H16        -3.9400    6.2250    8.5080 ha        1 ERC      0.154000
     50 H19         0.6070    4.4950    9.6910 ha        1 ERC      0.137000
     51 H20         1.9890    6.2490   10.0620 h1        1 ERC      0.050367
     52 H20A        1.7670    7.4670   11.4230 h1        1 ERC      0.050367
     53 H20B        1.1310    5.7480   11.6080 h1        1 ERC      0.050367
     54 H21        -3.7640    8.4810    8.4030 h1        1 ERC      0.043200
     55 H21A       -4.3270    7.8850   10.0470 h1        1 ERC      0.043200
     56 H22        -3.2840    9.9340   11.1170 hc        1 ERC      0.080700
     57 H22A       -2.7640   10.5230    9.4890 hc        1 ERC      0.080700
     58 H23        -5.6920   10.0200   10.4000 h1        1 ERC      0.060700
     59 H23A       -5.1970   10.5530    8.7480 h1        1 ERC      0.060700
     60 H221       -0.6770    0.6540    6.6410 hn        1 ERC      0.455800
@<TRIPOS>BOND
     1    1    2 1   
     2    1    3 2   
     3    1    5 1   
     4    2   12 1   
     5    2   32 1   
     6    4   31 1   
     7    4   33 1   
     8    5    8 2   
     9    5   34 1   
    10    6   19 1   
    11    6   20 1   
    12    6   35 1   
    13    6   60 1   
    14    7   14 1   
    15    7   36 1   
    16    8   10 1   
    17    8   37 1   
    18    9   18 1   
    19    9   38 1   
    20   10   12 ar  
    21   10   17 ar  
    22   11   26 1   
    23   11   28 1   
    24   12   14 ar  
    25   13   25 1   
    26   13   29 1   
    27   14   15 ar  
    28   15   16 ar  
    29   15   39 1   
    30   16   17 ar  
    31   16   40 1   
    32   17   18 1   
    33   18   19 1   
    34   18   41 1   
    35   19   42 1   
    36   19   43 1   
    37   20   21 1   
    38   20   44 1   
    39   20   45 1   
    40   21   22 1   
    41   21   46 1   
    42   21   47 1   
    43   22   23 ar  
    44   22   27 ar  
    45   23   24 ar  
    46   23   48 1   
    47   24   25 ar  
    48   24   49 1   
    49   25   26 ar  
    50   26   27 ar  
    51   27   50 1   
    52   28   51 1   
    53   28   52 1   
    54   28   53 1   
    55   29   30 1   
    56   29   54 1   
    57   29   55 1   
    58   30   31 1   
    59   30   56 1   
    60   30   57 1   
    61   31   58 1   
    62   31   59 1   
@<TRIPOS>SUBSTRUCTURE
     1 ERC         1 TEMP              0 ****  ****    0 ROOT
