@<TRIPOS>MOLECULE
ERC
   60    62     1     0     0
SMALL
bcc


@<TRIPOS>ATOM
      1 C1          0.1320   -0.1840   -0.2470 c         1 ERC      0.683700
      2 N1          1.5190   -0.0370   -0.1000 n         1 ERC     -0.428100
      3 O1         -0.3520   -0.2230   -1.3890 o         1 ERC     -0.584500
      4 S1         -4.7800   12.2370   10.4030 sh        1 ERC     -0.353900
      5 C2         -0.6540   -0.2750    0.9950 cc        1 ERC     -0.182200
      6 N2          0.1390    1.2770    6.6340 n4        1 ERC     -0.758000
      7 O2          4.2550    0.2450    0.0680 oh        1 ERC     -0.489100
      8 C3         -0.0610   -0.2200    2.2040 cd        1 ERC     -0.081200
      9 O3          2.0170   -0.6200    5.9580 oh        1 ERC     -0.637800
     10 C4          1.3710   -0.0740    2.3370 ca        1 ERC     -0.091800
     11 O4          0.1010    7.1040   10.3700 os        1 ERC     -0.290900
     12 C5          2.1330    0.0150    1.1390 ca        1 ERC      0.090600
     13 O5         -2.2520    8.0000    9.7710 os        1 ERC     -0.293900
     14 C6          3.5580    0.1650    1.2480 ca        1 ERC      0.119100
     15 C7          4.1720    0.2290    2.4920 ca        1 ERC     -0.178000
     16 C8          3.4030    0.1410    3.6560 ca        1 ERC     -0.106000
     17 C9          2.0260   -0.0180    3.5890 ca        1 ERC     -0.155300
     18 C10         1.2470   -0.1400    4.8630 c3        1 ERC      0.191400
     19 C11         0.7590    1.2690    5.2780 c3        1 ERC      0.098800
     20 C12        -0.2760    2.6480    7.0550 c3        1 ERC      0.100800
     21 C13        -0.9360    2.6640    8.4350 c3        1 ERC     -0.039100
     22 C14        -1.3100    4.0650    8.7660 ca        1 ERC     -0.137300
     23 C15        -2.5750    4.5500    8.4480 ca        1 ERC     -0.105000
     24 C16        -2.9340    5.8620    8.7680 ca        1 ERC     -0.186000
     25 C17        -2.0240    6.6970    9.4140 ca        1 ERC      0.146100
     26 C18        -0.7270    6.1990    9.7480 ca        1 ERC      0.115100
     27 C19        -0.3820    4.8920    9.4210 ca        1 ERC     -0.176000
     28 C20         1.3250    6.5890   10.8870 c3        1 ERC      0.107700
     29 C21        -3.5710    8.5080    9.5090 c3        1 ERC      0.125400
     30 C22        -3.5600    9.9360   10.0290 c3        1 ERC     -0.078400
     31 C23        -4.9130   10.5690    9.8300 c3        1 ERC      0.001700
     32 HN1         2.0910    0.0190   -0.9200 hn        1 ERC      0.361500
     33 HS1        -6.0280   12.6250   10.2040 hs        1 ERC      0.205800
     34 H2         -1.7400   -0.3930    0.8550 ha        1 ERC      0.177000
     35 HN2        -0.6750    0.6540    6.6410 hn        1 ERC      0.455800
     36 HO2         5.2010    0.3140    0.2720 ho        1 ERC      0.445000
     37 H3         -0.6720   -0.2890    3.1170 ha        1 ERC      0.120000
     38 HO3         2.5490   -1.3640    5.6460 ho        1 ERC      0.456000
     39 H7          5.2650    0.3470    2.5650 ha        1 ERC      0.158000
     40 H8          3.9100    0.1980    4.6340 ha        1 ERC      0.147000
     41 H10         0.3670   -0.8360    4.7320 h1        1 ERC      0.067700
     42 H11         0.0030    1.6300    4.5250 hx        1 ERC      0.115200
     43 H11A        1.6380    1.9740    5.2940 hx        1 ERC      0.115200
     44 H12         0.6430    3.3020    7.0650 hx        1 ERC      0.108200
     45 H12A       -0.9930    3.0490    6.2830 hx        1 ERC      0.108200
     46 H13        -0.2280    2.2610    9.2090 hc        1 ERC      0.067700
     47 H13A       -1.8510    2.0130    8.4340 hc        1 ERC      0.067700
     48 H15        -3.3120    3.9010    7.9510 ha        1 ERC      0.132000
     49 H16        -3.9420    6.2220    8.5110 ha        1 ERC      0.154000
     50 H19         0.6090    4.4970    9.6870 ha        1 ERC      0.137000
     51 H20         1.9900    6.2530   10.0550 h1        1 ERC      0.050367
     52 H20A        1.1350    5.7530   11.6020 h1        1 ERC      0.050367
     53 H20B        1.7690    7.4710   11.4150 h1        1 ERC      0.050367
     54 H21        -4.3280    7.8820   10.0500 h1        1 ERC      0.043200
     55 H21A       -3.7690    8.4780    8.4050 h1        1 ERC      0.043200
     56 H22        -2.7690   10.5220    9.4880 hc        1 ERC      0.080700
     57 H22A       -3.2850    9.9330   11.1170 hc        1 ERC      0.080700
     58 H23        -5.6950   10.0160   10.4050 h1        1 ERC      0.060700
     59 H23A       -5.2030   10.5490    8.7510 h1        1 ERC      0.060700
     60 H221        0.8240    0.8970    7.3040 hn        1 ERC      0.455800
@<TRIPOS>BOND
     1    1    2 1   
     2    1    3 2   
     3    1    5 1   
     4    2   12 1   
     5    2   32 1   
     6    4   31 1   
     7    4   33 1   
     8    5    8 2   
     9    5   34 1   
    10    6   19 1   
    11    6   20 1   
    12    6   35 1   
    13    6   60 1   
    14    7   14 1   
    15    7   36 1   
    16    8   10 1   
    17    8   37 1   
    18    9   18 1   
    19    9   38 1   
    20   10   12 ar  
    21   10   17 ar  
    22   11   26 1   
    23   11   28 1   
    24   12   14 ar  
    25   13   25 1   
    26   13   29 1   
    27   14   15 ar  
    28   15   16 ar  
    29   15   39 1   
    30   16   17 ar  
    31   16   40 1   
    32   17   18 1   
    33   18   19 1   
    34   18   41 1   
    35   19   42 1   
    36   19   43 1   
    37   20   21 1   
    38   20   44 1   
    39   20   45 1   
    40   21   22 1   
    41   21   46 1   
    42   21   47 1   
    43   22   23 ar  
    44   22   27 ar  
    45   23   24 ar  
    46   23   48 1   
    47   24   25 ar  
    48   24   49 1   
    49   25   26 ar  
    50   26   27 ar  
    51   27   50 1   
    52   28   51 1   
    53   28   52 1   
    54   28   53 1   
    55   29   30 1   
    56   29   54 1   
    57   29   55 1   
    58   30   31 1   
    59   30   56 1   
    60   30   57 1   
    61   31   58 1   
    62   31   59 1   
@<TRIPOS>SUBSTRUCTURE
     1 ERC         1 TEMP              0 ****  ****    0 ROOT
