@<TRIPOS>MOLECULE
ERD
   33    30     1     0     0
SMALL
bcc


@<TRIPOS>ATOM
      1 O13        -3.2300    1.0140   -0.9490 o         1 ERD     -0.272000
      2 C9         -2.0710    0.6570   -0.8850 c1        1 ERD      0.284000
      3 C10        -1.3890    0.6850    0.3550 c3        1 ERD     -0.241000
      4 C11         0.1050    0.6390    0.1740 c3        1 ERD      0.084000
      5 C14         0.7630    0.5320    1.6170 c2        1 ERD     -0.092000
      6 C15         0.7930   -0.6870    2.2760 c2        1 ERD     -0.094000
      7 C16         1.3560   -0.7780    3.5390 c1        1 ERD     -0.137000
      8 C17         1.8910    0.3500    4.1420 c1        1 ERD      0.035000
      9 O24         2.4270    0.2650    5.4410 oh        1 ERD     -0.257500
     10 C18         1.8610    1.5680    3.4830 c1        1 ERD      0.035000
     11 O23         2.4390    2.7050    4.0790 oh        1 ERD     -0.257500
     12 C19         1.2970    1.6590    2.2200 c1        1 ERD     -0.157000
     13 O12         0.6180   -0.3800   -0.5970 os        1 ERD     -0.201000
     14 C4         -0.1400   -0.7800   -1.8180 c2        1 ERD      0.184000
     15 C3         -1.4550   -0.1950   -2.0310 c1        1 ERD     -0.286000
     16 C5          0.4340   -1.5670   -2.8050 c1        1 ERD     -0.239000
     17 C6         -0.2540   -1.7990   -4.0090 c1        1 ERD      0.176000
     18 O29         0.3410   -2.5780   -5.0190 oh        1 ERD     -0.239000
     19 C1         -1.5430   -1.2250   -4.2170 c1        1 ERD     -0.358000
     20 C2         -2.1290   -0.4260   -3.2190 c1        1 ERD      0.206000
     21 O30        -3.4130    0.1170   -3.4160 oh        1 ERD     -0.208000
     22 H101       -1.7590    0.0770    1.0270 hc        1 ERD      0.128000
     23 H102       -1.5880    1.5450    0.7800 hc        1 ERD      0.128000
     24 H11         0.3850    1.4860   -0.2240 h1        1 ERD      0.103000
     25 H15         0.4170   -1.4810    1.8510 ha        1 ERD      0.151000
     26 H16         1.3770   -1.6360    4.0030 ha        1 ERD      0.157000
     27 HO24        3.3150    0.2870    5.3980 ho        1 ERD      0.233500
     28 HO23        1.8000    3.2860    4.2900 ho        1 ERD      0.233500
     29 H19         1.2760    2.5180    1.7560 ha        1 ERD      0.138000
     30 H5          1.3090   -1.9750   -2.6560 ha        1 ERD      0.174000
     31 HO29        0.6910   -2.0430   -5.6390 ho        1 ERD      0.225000
     32 H1         -2.0190   -1.3870   -5.0540 ha        1 ERD      0.142000
     33 HO30       -3.9050   -0.4500   -3.8920 ho        1 ERD      0.221000
@<TRIPOS>BOND
     1    1    2 1   
     2    2    3 1   
     3    3    4 1   
     4    3   22 1   
     5    3   23 1   
     6    4    5 1   
     7    4   13 1   
     8    4   24 1   
     9    5    6 1   
    10    5   12 1   
    11    6    7 1   
    12    6   25 1   
    13    7   26 1   
    14    8    9 1   
    15    8   10 1   
    16    9   27 1   
    17   10   11 1   
    18   11   28 1   
    19   12   29 1   
    20   13   14 1   
    21   14   15 1   
    22   14   16 1   
    23   15   20 1   
    24   16   30 1   
    25   17   18 1   
    26   17   19 1   
    27   18   31 1   
    28   19   32 1   
    29   20   21 1   
    30   21   33 1   
@<TRIPOS>SUBSTRUCTURE
     1 ERD         1 TEMP              0 ****  ****    0 ROOT
