@<TRIPOS>MOLECULE
ERD
   33    35     1     0     0
SMALL
bcc


@<TRIPOS>ATOM
      1 O13         3.2410   -4.7690    2.1670 o         1 ERD     -0.510100
      2 C9          2.2250   -4.6820    1.4720 c         1 ERD      0.593700
      3 C10         1.5830   -5.9060    0.8730 c3        1 ERD     -0.211400
      4 C11         0.9830   -5.5980   -0.4900 c3        1 ERD      0.201400
      5 C14         0.2680   -6.7870   -1.0560 ca        1 ERD     -0.098300
      6 C15         0.9930   -7.7120   -1.8160 ca        1 ERD     -0.115000
      7 C16         0.3720   -8.8400   -2.3440 ca        1 ERD     -0.135000
      8 C17        -0.9970   -9.0470   -2.1210 ca        1 ERD      0.120100
      9 O24        -1.5640  -10.1730   -2.6630 oh        1 ERD     -0.492100
     10 C18        -1.7280   -8.1080   -1.3610 ca        1 ERD      0.037100
     11 O23        -3.0700   -8.3810   -1.1850 oh        1 ERD     -0.517100
     12 C19        -1.0970   -6.9820   -0.8270 ca        1 ERD     -0.139000
     13 O12         0.0180   -4.5240   -0.4070 os        1 ERD     -0.321900
     14 C4          0.4530   -3.4030    0.2640 ca        1 ERD      0.229100
     15 C3          1.5250   -3.4280    1.1820 ca        1 ERD     -0.305600
     16 C5         -0.2750   -2.2370   -0.0070 ca        1 ERD     -0.240000
     17 C6          0.0890   -1.0600    0.6610 ca        1 ERD      0.221100
     18 O29        -0.6530    0.0560    0.3700 oh        1 ERD     -0.485100
     19 C1          1.1570   -1.0300    1.5680 ca        1 ERD     -0.357000
     20 C2          1.8660   -2.2140    1.8180 ca        1 ERD      0.251100
     21 O30         2.9110   -2.2480    2.6980 oh        1 ERD     -0.454100
     22 H101        2.3380   -6.7280    0.7700 hc        1 ERD      0.089200
     23 H102        0.7820   -6.2590    1.5770 hc        1 ERD      0.089200
     24 H11         1.7930   -5.2600   -1.1990 h1        1 ERD      0.067700
     25 H15         2.0660   -7.5510   -1.9990 ha        1 ERD      0.139000
     26 H16         0.9350   -9.5740   -2.9390 ha        1 ERD      0.157000
     27 HO24       -2.5090  -10.1690   -2.4410 ho        1 ERD      0.439000
     28 HO23       -3.4620   -7.6370   -0.7070 ho        1 ERD      0.432000
     29 H19        -1.6690   -6.2470   -0.2420 ha        1 ERD      0.152000
     30 H5         -1.1070   -2.2450   -0.7230 ha        1 ERD      0.173000
     31 HO29       -0.2980    0.7990    0.8810 ho        1 ERD      0.426000
     32 H1          1.4350   -0.0970    2.0760 ha        1 ERD      0.142000
     33 HO30        3.0320   -1.3570    3.0620 ho        1 ERD      0.422000
@<TRIPOS>BOND
     1    1    2 2   
     2    2    3 1   
     3    2   15 1   
     4    3    4 1   
     5    3   22 1   
     6    3   23 1   
     7    4    5 1   
     8    4   13 1   
     9    4   24 1   
    10    5    6 ar  
    11    5   12 ar  
    12    6    7 ar  
    13    6   25 1   
    14    7    8 ar  
    15    7   26 1   
    16    8    9 1   
    17    8   10 ar  
    18    9   27 1   
    19   10   11 1   
    20   10   12 ar  
    21   11   28 1   
    22   12   29 1   
    23   13   14 1   
    24   14   15 ar  
    25   14   16 ar  
    26   15   20 ar  
    27   16   17 ar  
    28   16   30 1   
    29   17   18 1   
    30   17   19 ar  
    31   18   31 1   
    32   19   20 ar  
    33   19   32 1   
    34   20   21 1   
    35   21   33 1   
@<TRIPOS>SUBSTRUCTURE
     1 ERD         1 TEMP              0 ****  ****    0 ROOT
