@<TRIPOS>MOLECULE
ERD
   33    35     1     0     0
SMALL
bcc


@<TRIPOS>ATOM
      1 O13        -0.0150    0.5840   -0.0300 o         1 ERD     -0.512100
      2 C9          1.1970    0.3500   -0.0440 c         1 ERD      0.594700
      3 C10         1.9990    0.3100    1.2310 c3        1 ERD     -0.212400
      4 C11         3.4020    0.8540    1.0110 c3        1 ERD      0.200400
      5 C14         4.2370    0.7320    2.2500 ca        1 ERD     -0.093300
      6 C15         4.3830    1.8460    3.0840 ca        1 ERD     -0.116000
      7 C16         5.1320    1.7560    4.2540 ca        1 ERD     -0.171000
      8 C17         5.7460    0.5460    4.5890 ca        1 ERD      0.049100
      9 O24         6.5050    0.3650    5.7260 oh        1 ERD     -0.515100
     10 C18         5.6100   -0.5790    3.7460 ca        1 ERD      0.109100
     11 O23         6.1900   -1.7930    4.0220 oh        1 ERD     -0.491100
     12 C19         4.8500   -0.4800    2.5740 ca        1 ERD     -0.103000
     13 O12         4.0920    0.1230   -0.0280 os        1 ERD     -0.315900
     14 C4          3.3780   -0.0480   -1.1930 ca        1 ERD      0.230100
     15 C3          1.9720    0.0610   -1.2540 ca        1 ERD     -0.306600
     16 C5          4.1540   -0.3720   -2.3130 ca        1 ERD     -0.238000
     17 C6          3.4960   -0.5890   -3.5320 ca        1 ERD      0.221100
     18 O29         4.2930   -0.9080   -4.6010 oh        1 ERD     -0.485100
     19 C1          2.1040   -0.4760   -3.6470 ca        1 ERD     -0.358000
     20 C2          1.3560   -0.1500   -2.5070 ca        1 ERD      0.251100
     21 O30        -0.0050   -0.0340   -2.5550 oh        1 ERD     -0.455100
     22 H101        1.4860    0.9080    2.0280 hc        1 ERD      0.089200
     23 H102        2.0510   -0.7570    1.5780 hc        1 ERD      0.089200
     24 H11         3.3490    1.9310    0.6780 h1        1 ERD      0.065700
     25 H15         3.9050    2.8010    2.8180 ha        1 ERD      0.139000
     26 H16         5.2440    2.6300    4.9110 ha        1 ERD      0.138000
     27 HO24        6.5380    1.2100    6.1980 ho        1 ERD      0.431000
     28 HO23        6.6940   -1.7040    4.8460 ho        1 ERD      0.438000
     29 H19         4.7550   -1.3540    1.9110 ha        1 ERD      0.167000
     30 H5          5.2450   -0.4570   -2.2380 ha        1 ERD      0.174000
     31 HO29        3.7260   -1.0270   -5.3780 ho        1 ERD      0.426000
     32 H1          1.6060   -0.6410   -4.6110 ha        1 ERD      0.141000
     33 HO30       -0.2940   -0.2130   -3.4650 ho        1 ERD      0.421000
@<TRIPOS>BOND
     1    1    2 2   
     2    2    3 1   
     3    2   15 1   
     4    3    4 1   
     5    3   22 1   
     6    3   23 1   
     7    4    5 1   
     8    4   13 1   
     9    4   24 1   
    10    5    6 ar  
    11    5   12 ar  
    12    6    7 ar  
    13    6   25 1   
    14    7    8 ar  
    15    7   26 1   
    16    8    9 1   
    17    8   10 ar  
    18    9   27 1   
    19   10   11 1   
    20   10   12 ar  
    21   11   28 1   
    22   12   29 1   
    23   13   14 1   
    24   14   15 ar  
    25   14   16 ar  
    26   15   20 ar  
    27   16   17 ar  
    28   16   30 1   
    29   17   18 1   
    30   17   19 ar  
    31   18   31 1   
    32   19   20 ar  
    33   19   32 1   
    34   20   21 1   
    35   21   33 1   
@<TRIPOS>SUBSTRUCTURE
     1 ERD         1 TEMP              0 ****  ****    0 ROOT
