@<TRIPOS>MOLECULE
ERD
   33    35     1     0     0
SMALL
bcc


@<TRIPOS>ATOM
      1 O13         0.0280    0.6760    0.0060 o         1 ERD     -0.512100
      2 C9          1.2320    0.4060   -0.0280 c         1 ERD      0.594700
      3 C10         2.0560    0.3610    1.2320 c3        1 ERD     -0.212400
      4 C11         3.4700    0.8610    0.9780 c3        1 ERD      0.200400
      5 C14         4.3250    0.7320    2.2020 ca        1 ERD     -0.093300
      6 C15         4.5170    1.8530    3.0180 ca        1 ERD     -0.116000
      7 C16         5.2860    1.7580    4.1750 ca        1 ERD     -0.171000
      8 C17         5.8730    0.5350    4.5150 ca        1 ERD      0.049100
      9 O24         6.6490    0.3490    5.6400 oh        1 ERD     -0.515100
     10 C18         5.6900   -0.5960    3.6900 ca        1 ERD      0.109100
     11 O23         6.2420   -1.8220    3.9720 oh        1 ERD     -0.491100
     12 C19         4.9110   -0.4920    2.5310 ca        1 ERD     -0.103000
     13 O12         4.1180    0.0950   -0.0640 os        1 ERD     -0.315900
     14 C4          3.3780   -0.0710   -1.2120 ca        1 ERD      0.230100
     15 C3          1.9740    0.0770   -1.2480 ca        1 ERD     -0.306600
     16 C5          4.1210   -0.4340   -2.3420 ca        1 ERD     -0.238000
     17 C6          3.4350   -0.6490   -3.5450 ca        1 ERD      0.221100
     18 O29         4.2010   -1.0060   -4.6240 oh        1 ERD     -0.485100
     19 C1          2.0440   -0.4970   -3.6350 ca        1 ERD     -0.358000
     20 C2          1.3280   -0.1330   -2.4860 ca        1 ERD      0.251100
     21 O30        -0.0300    0.0220   -2.5100 oh        1 ERD     -0.455100
     22 H101        1.5760    0.9840    2.0300 hc        1 ERD      0.089200
     23 H102        2.0840   -0.7020    1.5930 hc        1 ERD      0.089200
     24 H11         3.4410    1.9340    0.6300 h1        1 ERD      0.065700
     25 H15         4.0610    2.8170    2.7480 ha        1 ERD      0.139000
     26 H16         5.4340    2.6370    4.8180 ha        1 ERD      0.138000
     27 HO24        6.7130    1.1980    6.1000 ho        1 ERD      0.431000
     28 HO23        6.7640   -1.7360    4.7850 ho        1 ERD      0.438000
     29 H19         4.7790   -1.3720    1.8830 ha        1 ERD      0.167000
     30 H5          5.2120   -0.5490   -2.2860 ha        1 ERD      0.174000
     31 HO29        3.6160   -1.1200   -5.3880 ho        1 ERD      0.426000
     32 H1          1.5240   -0.6610   -4.5870 ha        1 ERD      0.141000
     33 HO30       -0.3410   -0.1610   -3.4110 ho        1 ERD      0.421000
@<TRIPOS>BOND
     1    1    2 2   
     2    2    3 1   
     3    2   15 1   
     4    3    4 1   
     5    3   22 1   
     6    3   23 1   
     7    4    5 1   
     8    4   13 1   
     9    4   24 1   
    10    5    6 ar  
    11    5   12 ar  
    12    6    7 ar  
    13    6   25 1   
    14    7    8 ar  
    15    7   26 1   
    16    8    9 1   
    17    8   10 ar  
    18    9   27 1   
    19   10   11 1   
    20   10   12 ar  
    21   11   28 1   
    22   12   29 1   
    23   13   14 1   
    24   14   15 ar  
    25   14   16 ar  
    26   15   20 ar  
    27   16   17 ar  
    28   16   30 1   
    29   17   18 1   
    30   17   19 ar  
    31   18   31 1   
    32   19   20 ar  
    33   19   32 1   
    34   20   21 1   
    35   21   33 1   
@<TRIPOS>SUBSTRUCTURE
     1 ERD         1 TEMP              0 ****  ****    0 ROOT
