@<TRIPOS>MOLECULE
ERE
   26    26     1     0     0
SMALL
bcc


@<TRIPOS>ATOM
      1 C1          0.7770   -1.6320   -0.5010 c3        1 ERE      0.335900
      2 C2         -0.6910   -1.3440   -0.7900 c3        1 ERE     -0.093400
      3 C3         -1.2450   -0.0710   -0.1160 c3        1 ERE      0.192200
      4 C4         -0.1880    1.0600   -0.2930 c3        1 ERE      0.116100
      5 C5          1.1930    0.6170    0.2140 c3        1 ERE      0.112100
      6 O5          1.6450   -0.5180   -0.5300 os        1 ERE     -0.448600
      7 C3A        -1.4570   -0.3490    1.3810 c3        1 ERE     -0.132100
      8 N3         -2.4860    0.3320   -0.7920 n3        1 ERE     -0.902800
      9 O4         -0.6520    2.1830    0.4410 oh        1 ERE     -0.599800
     10 C5A         2.2400    1.6960    0.0080 c3        1 ERE     -0.099100
     11 O1          0.9090   -2.1890    0.7890 oh        1 ERE     -0.629800
     12 H1          1.2060   -2.3290   -1.2820 h2        1 ERE      0.066700
     13 H21        -0.7910   -1.2520   -1.9040 hc        1 ERE      0.070200
     14 H22        -1.2930   -2.2260   -0.4500 hc        1 ERE      0.070200
     15 HO1         1.8530   -2.2790    0.9680 ho        1 ERE      0.416000
     16 H4         -0.1050    1.3210   -1.3870 h1        1 ERE      0.058700
     17 H31        -0.5450   -0.8200    1.8200 hc        1 ERE      0.050367
     18 H32        -1.6700    0.6050    1.9210 hc        1 ERE      0.050367
     19 H33        -2.3120   -1.0520    1.5310 hc        1 ERE      0.050367
     20 HN31       -3.2140   -0.3170   -0.5660 hn        1 ERE      0.354300
     21 HN32       -2.7500    1.2460   -0.4740 hn        1 ERE      0.354300
     22 H5          1.1300    0.3370    1.3020 h1        1 ERE      0.062700
     23 HO4        -0.0830    2.9240    0.1980 ho        1 ERE      0.404000
     24 H51         2.0420    2.5420    0.7070 hc        1 ERE      0.047700
     25 H52         3.2560    1.2820    0.2130 hc        1 ERE      0.047700
     26 H53         2.2180    2.0700   -1.0430 hc        1 ERE      0.047700
@<TRIPOS>BOND
     1    1    2 1   
     2    1    6 1   
     3    1   11 1   
     4    1   12 1   
     5    2    3 1   
     6    2   13 1   
     7    2   14 1   
     8    3    4 1   
     9    3    7 1   
    10    3    8 1   
    11    4    5 1   
    12    4    9 1   
    13    4   16 1   
    14    5    6 1   
    15    5   10 1   
    16    5   22 1   
    17    7   17 1   
    18    7   18 1   
    19    7   19 1   
    20    8   20 1   
    21    8   21 1   
    22    9   23 1   
    23   10   24 1   
    24   10   25 1   
    25   10   26 1   
    26   11   15 1   
@<TRIPOS>SUBSTRUCTURE
     1 ERE         1 TEMP              0 ****  ****    0 ROOT
