@<TRIPOS>MOLECULE
ERG
   73    76     1     0     0
SMALL
bcc


@<TRIPOS>ATOM
      1 C1          1.2460   -0.8420   -4.8940 c3        1 ERG     -0.071400
      2 C2          1.2620   -0.4480   -6.3530 c3        1 ERG     -0.075400
      3 C3         -0.1600   -0.4380   -6.8970 c3        1 ERG      0.145100
      4 C4         -1.0280    0.5350   -6.1060 c3        1 ERG     -0.075200
      5 C5         -0.9570    0.3090   -4.6360 c2        1 ERG     -0.102400
      6 C6         -2.0710    0.4110   -3.8830 ce        1 ERG     -0.132000
      7 C7         -2.0410    0.2170   -2.4550 ce        1 ERG     -0.148000
      8 C8         -0.9260   -0.2240   -1.8420 c2        1 ERG     -0.078400
      9 C9          0.3220   -0.5520   -2.6110 c3        1 ERG     -0.016500
     10 C10         0.4040    0.1010   -4.0180 c3        1 ERG      0.003200
     11 C11         1.6070   -0.3120   -1.8180 c3        1 ERG     -0.073400
     12 C12         1.5520   -0.7510   -0.3640 c3        1 ERG     -0.067400
     13 C13         0.3540   -0.1200    0.3260 c3        1 ERG     -0.042000
     14 C14        -0.8960   -0.6490   -0.4240 c3        1 ERG     -0.034500
     15 C15        -2.0530   -0.3220    0.5110 c3        1 ERG     -0.072400
     16 C16        -1.4600   -0.4710    1.9140 c3        1 ERG     -0.078400
     17 C17         0.0690   -0.6050    1.7640 c3        1 ERG     -0.051700
     18 C18         0.4310    1.3960    0.2740 c3        1 ERG     -0.082100
     19 C19         1.0750    1.4740   -3.9640 c3        1 ERG     -0.086100
     20 C20         0.8020    0.1180    2.8900 c3        1 ERG     -0.026500
     21 C21         2.3040   -0.0950    2.8220 c3        1 ERG     -0.087100
     22 C22         0.3030   -0.3750    4.2100 c2        1 ERG     -0.168200
     23 C23        -0.0590    0.4340    5.2090 c2        1 ERG     -0.166200
     24 C24        -0.5420   -0.0520    6.5350 c3        1 ERG     -0.031500
     25 C25         0.3110    0.5450    7.6600 c3        1 ERG     -0.060700
     26 C26        -0.1910    0.1100    9.0220 c3        1 ERG     -0.090600
     27 C27         1.7640    0.1480    7.4950 c3        1 ERG     -0.090600
     28 C28        -2.0060    0.3120    6.7000 c3        1 ERG     -0.087100
     29 O1         -0.0740   -0.0410   -8.2610 oh        1 ERG     -0.600800
     30 H11         0.8400   -1.8850   -4.8070 hc        1 ERG      0.044700
     31 H12         2.2970   -0.8540   -4.5040 hc        1 ERG      0.044700
     32 H21         1.8790   -1.1760   -6.9400 hc        1 ERG      0.056200
     33 H22A        1.7200    0.5660   -6.4860 hc        1 ERG      0.056200
     34 H3         -0.6010   -1.4730   -6.8420 h1        1 ERG      0.036700
     35 H41        -2.0900    0.4480   -6.4610 hc        1 ERG      0.052700
     36 H42        -0.6900    1.5840   -6.3330 hc        1 ERG      0.052700
     37 H6         -3.0510    0.6240   -4.3370 ha        1 ERG      0.126000
     38 H7         -2.9690    0.4080   -1.8960 ha        1 ERG      0.131000
     39 H9          0.2520   -1.6730   -2.7740 hc        1 ERG      0.052700
     40 H111        2.4410   -0.8610   -2.3310 hc        1 ERG      0.044200
     41 H112        1.8740    0.7770   -1.8230 hc        1 ERG      0.044200
     42 H121        1.4810   -1.8690   -0.2990 hc        1 ERG      0.042200
     43 H122        2.5030   -0.4480    0.1450 hc        1 ERG      0.042200
     44 H14        -0.8130   -1.7800   -0.4530 hc        1 ERG      0.054700
     45 H151       -2.9130   -1.0150    0.3520 hc        1 ERG      0.044200
     46 H152       -2.4170    0.7220    0.3450 hc        1 ERG      0.044200
     47 H161       -1.8720   -1.3750    2.4260 hc        1 ERG      0.044700
     48 H162       -1.7150    0.4190    2.5410 hc        1 ERG      0.044700
     49 H17         0.3450   -1.6950    1.8180 hc        1 ERG      0.046700
     50 H181        0.2980    1.7610   -0.7740 hc        1 ERG      0.037700
     51 H182       -0.3770    1.8470    0.9000 hc        1 ERG      0.037700
     52 H183        1.4210    1.7460    0.6530 hc        1 ERG      0.037700
     53 H191        0.9260    2.0180   -4.9290 hc        1 ERG      0.039033
     54 H192        0.6310    2.0870   -3.1420 hc        1 ERG      0.039033
     55 H193        2.1740    1.3720   -3.7970 hc        1 ERG      0.039033
     56 H20         0.5970    1.2240    2.8070 hc        1 ERG      0.054700
     57 H211        2.5450   -1.1730    2.6670 hc        1 ERG      0.035700
     58 H212        2.7400    0.4950    1.9800 hc        1 ERG      0.035700
     59 H213        2.7820    0.2420    3.7730 hc        1 ERG      0.035700
     60 H22         0.2700   -1.4720    4.3150 ha        1 ERG      0.121000
     61 H23        -0.0280    1.5300    5.1020 ha        1 ERG      0.121000
     62 H24        -0.4460   -1.1750    6.5850 hc        1 ERG      0.050700
     63 H25         0.2380    1.6670    7.5950 hc        1 ERG      0.045700
     64 H261        0.5210    0.4400    9.8170 hc        1 ERG      0.034200
     65 H262       -1.1890    0.5610    9.2360 hc        1 ERG      0.034200
     66 H263       -0.2840   -1.0020    9.0700 hc        1 ERG      0.034200
     67 H271        1.8840   -0.9570    7.6040 hc        1 ERG      0.034200
     68 H272        2.1380    0.4470    6.4860 hc        1 ERG      0.034200
     69 H273        2.3920    0.6490    8.2710 hc        1 ERG      0.034200
     70 H281       -2.1260    1.4140    6.8280 hc        1 ERG      0.035033
     71 H282       -2.5860   -0.0060    5.8000 hc        1 ERG      0.035033
     72 H283       -2.4350   -0.2000    7.5950 hc        1 ERG      0.035033
     73 HO1        -0.9780    0.0110   -8.5920 ho        1 ERG      0.398000
@<TRIPOS>BOND
     1    1    2 1   
     2    1   10 1   
     3    1   30 1   
     4    1   31 1   
     5    2    3 1   
     6    2   32 1   
     7    2   33 1   
     8    3    4 1   
     9    3   29 1   
    10    3   34 1   
    11    4    5 1   
    12    4   35 1   
    13    4   36 1   
    14    5    6 2   
    15    5   10 1   
    16    6    7 1   
    17    6   37 1   
    18    7    8 2   
    19    7   38 1   
    20    8    9 1   
    21    8   14 1   
    22    9   10 1   
    23    9   11 1   
    24    9   39 1   
    25   10   19 1   
    26   11   12 1   
    27   11   40 1   
    28   11   41 1   
    29   12   13 1   
    30   12   42 1   
    31   12   43 1   
    32   13   14 1   
    33   13   17 1   
    34   13   18 1   
    35   14   15 1   
    36   14   44 1   
    37   15   16 1   
    38   15   45 1   
    39   15   46 1   
    40   16   17 1   
    41   16   47 1   
    42   16   48 1   
    43   17   20 1   
    44   17   49 1   
    45   18   50 1   
    46   18   51 1   
    47   18   52 1   
    48   19   53 1   
    49   19   54 1   
    50   19   55 1   
    51   20   21 1   
    52   20   22 1   
    53   20   56 1   
    54   21   57 1   
    55   21   58 1   
    56   21   59 1   
    57   22   23 2   
    58   22   60 1   
    59   23   24 1   
    60   23   61 1   
    61   24   25 1   
    62   24   28 1   
    63   24   62 1   
    64   25   26 1   
    65   25   27 1   
    66   25   63 1   
    67   26   64 1   
    68   26   65 1   
    69   26   66 1   
    70   27   67 1   
    71   27   68 1   
    72   27   69 1   
    73   28   70 1   
    74   28   71 1   
    75   28   72 1   
    76   29   73 1   
@<TRIPOS>SUBSTRUCTURE
     1 ERG         1 TEMP              0 ****  ****    0 ROOT
