@<TRIPOS>MOLECULE
ERG
   73    76     1     0     0
SMALL
bcc


@<TRIPOS>ATOM
      1 C1          0.0640   -0.3100   -0.2880 c3        1 ERG     -0.067400
      2 C2          1.5190    0.0900   -0.2510 c3        1 ERG     -0.113400
      3 C3          1.8630    0.6820    1.1090 c3        1 ERG      0.145100
      4 C4          1.5720   -0.3210    2.2210 c3        1 ERG     -0.038200
      5 C5          0.1950   -0.8820    2.1400 c2        1 ERG     -0.105400
      6 C6         -0.5160   -1.0810    3.2680 ce        1 ERG     -0.132000
      7 C7         -1.8430   -1.6440    3.2390 ce        1 ERG     -0.146000
      8 C8         -2.4810   -1.8470    2.0710 c2        1 ERG     -0.081400
      9 C9         -1.8560   -1.4820    0.7550 c3        1 ERG     -0.015500
     10 C10        -0.3100   -1.3370    0.7930 c3        1 ERG      0.003200
     11 C11        -2.2960   -2.3840   -0.3990 c3        1 ERG     -0.073400
     12 C12        -3.7740   -2.7350   -0.4080 c3        1 ERG     -0.067400
     13 C13        -4.1770   -3.3240    0.9350 c3        1 ERG     -0.042000
     14 C14        -3.9130   -2.2130    1.9830 c3        1 ERG     -0.033500
     15 C15        -4.6730   -2.6810    3.2170 c3        1 ERG     -0.072400
     16 C16        -5.9010   -3.4010    2.6540 c3        1 ERG     -0.078400
     17 C17        -5.6880   -3.5760    1.1370 c3        1 ERG     -0.051700
     18 C18        -3.3760   -4.5770    1.2430 c3        1 ERG     -0.082100
     19 C19         0.3880   -2.6650    0.4910 c3        1 ERG     -0.086100
     20 C20        -6.2310   -4.9160    0.6510 c3        1 ERG     -0.026500
     21 C21        -6.1290   -5.0590   -0.8570 c3        1 ERG     -0.087100
     22 C22        -7.6650   -5.0500    1.0540 c2        1 ERG     -0.168200
     23 C23        -8.1640   -6.1380    1.6460 c2        1 ERG     -0.166200
     24 C24        -9.5970   -6.2850    2.0360 c3        1 ERG     -0.031500
     25 C25       -10.1900   -7.5510    1.4050 c3        1 ERG     -0.060700
     26 C26       -11.6300   -7.7540    1.8280 c3        1 ERG     -0.090600
     27 C27       -10.1000   -7.4860   -0.1060 c3        1 ERG     -0.090600
     28 C28        -9.7040   -6.3200    3.5490 c3        1 ERG     -0.087100
     29 O1          3.2500    0.9880    1.2030 oh        1 ERG     -0.601800
     30 H11        -0.5660    0.6100   -0.1530 hc        1 ERG      0.043700
     31 H12        -0.1780   -0.7400   -1.2950 hc        1 ERG      0.043700
     32 H21         2.1770   -0.7960   -0.4480 hc        1 ERG      0.047700
     33 H22A        1.7230    0.8470   -1.0540 hc        1 ERG      0.047700
     34 H3          1.2680    1.6250    1.2750 h1        1 ERG      0.036700
     35 H41         1.7350    0.1850    3.2100 hc        1 ERG      0.062200
     36 H42         2.3190   -1.1590    2.1540 hc        1 ERG      0.062200
     37 H6         -0.1140   -0.7990    4.2540 ha        1 ERG      0.128000
     38 H7         -2.3230   -1.8650    4.2040 ha        1 ERG      0.131000
     39 H9         -2.2760   -0.4510    0.5330 hc        1 ERG      0.052700
     40 H111       -2.0410   -1.8670   -1.3630 hc        1 ERG      0.043700
     41 H112       -1.7270   -3.3510   -0.3810 hc        1 ERG      0.043700
     42 H121       -3.9700   -3.4690   -1.2320 hc        1 ERG      0.042200
     43 H122       -4.3890   -1.8220   -0.6190 hc        1 ERG      0.042200
     44 H14        -4.4380   -1.2770    1.6150 hc        1 ERG      0.054700
     45 H151       -4.0510   -3.3810    3.8280 hc        1 ERG      0.045200
     46 H152       -4.9630   -1.8220    3.8670 hc        1 ERG      0.045200
     47 H161       -6.0290   -4.3960    3.1480 hc        1 ERG      0.044700
     48 H162       -6.8300   -2.8090    2.8410 hc        1 ERG      0.044700
     49 H17        -6.2450   -2.7610    0.5960 hc        1 ERG      0.046700
     50 H181       -2.3030   -4.3240    1.4280 hc        1 ERG      0.038033
     51 H182       -3.4330   -5.2930    0.3880 hc        1 ERG      0.038033
     52 H183       -3.7740   -5.0770    2.1600 hc        1 ERG      0.038033
     53 H191       -0.0630   -3.4840    1.1010 hc        1 ERG      0.039367
     54 H192        0.3020   -2.9210   -0.5920 hc        1 ERG      0.039367
     55 H193        1.4750   -2.5980    0.7400 hc        1 ERG      0.039367
     56 H20        -5.6340   -5.7450    1.1270 hc        1 ERG      0.054700
     57 H211       -6.7370   -5.9310   -1.2010 hc        1 ERG      0.035700
     58 H212       -5.0680   -5.2300   -1.1590 hc        1 ERG      0.035700
     59 H213       -6.5040   -4.1410   -1.3690 hc        1 ERG      0.035700
     60 H22        -8.3000   -4.1840    0.8100 ha        1 ERG      0.121000
     61 H23        -7.5260   -7.0030    1.8920 ha        1 ERG      0.121000
     62 H24       -10.1850   -5.4010    1.6570 hc        1 ERG      0.050700
     63 H25        -9.5850   -8.4330    1.7620 hc        1 ERG      0.045700
     64 H261      -12.2300   -6.8320    1.6360 hc        1 ERG      0.034200
     65 H262      -12.0830   -8.5980    1.2540 hc        1 ERG      0.034200
     66 H263      -11.6910   -7.9970    2.9160 hc        1 ERG      0.034200
     67 H271      -10.4600   -8.4430   -0.5550 hc        1 ERG      0.034200
     68 H272      -10.7270   -6.6510   -0.5000 hc        1 ERG      0.034200
     69 H273       -9.0430   -7.3160   -0.4270 hc        1 ERG      0.034200
     70 H281       -9.1410   -5.4650    3.9950 hc        1 ERG      0.035033
     71 H282      -10.7720   -6.2420    3.8650 hc        1 ERG      0.035033
     72 H283       -9.2810   -7.2720    3.9520 hc        1 ERG      0.035033
     73 HO1         3.4540    1.5740    0.4660 ho        1 ERG      0.399000
@<TRIPOS>BOND
     1    1    2 1   
     2    1   10 1   
     3    1   30 1   
     4    1   31 1   
     5    2    3 1   
     6    2   32 1   
     7    2   33 1   
     8    3    4 1   
     9    3   29 1   
    10    3   34 1   
    11    4    5 1   
    12    4   35 1   
    13    4   36 1   
    14    5    6 2   
    15    5   10 1   
    16    6    7 1   
    17    6   37 1   
    18    7    8 2   
    19    7   38 1   
    20    8    9 1   
    21    8   14 1   
    22    9   10 1   
    23    9   11 1   
    24    9   39 1   
    25   10   19 1   
    26   11   12 1   
    27   11   40 1   
    28   11   41 1   
    29   12   13 1   
    30   12   42 1   
    31   12   43 1   
    32   13   14 1   
    33   13   17 1   
    34   13   18 1   
    35   14   15 1   
    36   14   44 1   
    37   15   16 1   
    38   15   45 1   
    39   15   46 1   
    40   16   17 1   
    41   16   47 1   
    42   16   48 1   
    43   17   20 1   
    44   17   49 1   
    45   18   50 1   
    46   18   51 1   
    47   18   52 1   
    48   19   53 1   
    49   19   54 1   
    50   19   55 1   
    51   20   21 1   
    52   20   22 1   
    53   20   56 1   
    54   21   57 1   
    55   21   58 1   
    56   21   59 1   
    57   22   23 2   
    58   22   60 1   
    59   23   24 1   
    60   23   61 1   
    61   24   25 1   
    62   24   28 1   
    63   24   62 1   
    64   25   26 1   
    65   25   27 1   
    66   25   63 1   
    67   26   64 1   
    68   26   65 1   
    69   26   66 1   
    70   27   67 1   
    71   27   68 1   
    72   27   69 1   
    73   28   70 1   
    74   28   71 1   
    75   28   72 1   
    76   29   73 1   
@<TRIPOS>SUBSTRUCTURE
     1 ERG         1 TEMP              0 ****  ****    0 ROOT
