@<TRIPOS>MOLECULE
ERG
   73    73     1     0     0
SMALL
bcc


@<TRIPOS>ATOM
      1 C1          3.2680    2.9810    0.2360 c3        1 ERG     -0.144000
      2 C2          4.7740    3.0400    0.0760 c3        1 ERG     -0.192000
      3 C3          5.5400    3.2360    1.4600 c3        1 ERG      0.033000
      4 C4          5.1140    2.1270    2.6200 c3        1 ERG     -0.121000
      5 C5          3.5620    2.1010    2.7400 c2        1 ERG     -0.095000
      6 C6          2.9200    1.6630    3.8980 c1        1 ERG     -0.135000
      7 C7          1.5960    1.2170    3.7230 c1        1 ERG     -0.148000
      8 C8          1.0920    1.1200    2.2410 c1        1 ERG     -0.078000
      9 C9          1.6990    1.9240    1.3980 c2        1 ERG     -0.060000
     10 C10         2.7910    1.8940    1.3460 c3        1 ERG     -0.002000
     11 C11         1.1690    1.9600    0.2450 c3        1 ERG     -0.147000
     12 C12         1.0040    0.6400   -0.3580 c3        1 ERG     -0.150000
     13 C13         0.3410   -0.3070    0.5220 c3        1 ERG     -0.034000
     14 C14         0.8600   -0.3510    1.6330 c3        1 ERG     -0.067000
     15 C15        -0.3400   -0.9850    2.6150 c3        1 ERG     -0.153000
     16 C16        -1.6670   -0.8670    1.7730 c3        1 ERG     -0.157000
     17 C17        -1.3450   -0.0800    0.7550 c3        1 ERG     -0.093000
     18 C18         0.5230   -1.7450   -0.1450 c3        1 ERG     -0.203000
     19 C19         3.1870    0.4930    0.8100 c3        1 ERG     -0.204000
     20 C20        -2.1210   -0.4980   -0.4970 c3        1 ERG     -0.074000
     21 C21        -2.0480    0.6020   -1.5280 c3        1 ERG     -0.205000
     22 C22        -3.5740   -0.7500   -0.1300 c2        1 ERG     -0.161000
     23 C23        -4.3510   -1.5690   -0.9150 c1        1 ERG     -0.164000
     24 C24        -3.7450   -2.2410   -2.1790 c2        1 ERG     -0.075000
     25 C25        -4.6700   -2.0190   -3.3800 c3        1 ERG     -0.102000
     26 C26        -5.9590   -2.7450   -3.1650 c3        1 ERG     -0.207500
     27 C27        -3.9720   -2.5730   -4.6880 c3        1 ERG     -0.207500
     28 C28        -3.5960   -3.6840   -1.9330 c3        1 ERG     -0.203000
     29 O1          6.8050    3.1380    1.2470 oh        1 ERG     -0.329000
     30 H11         2.9310    3.9150    0.5180 hc        1 ERG      0.083000
     31 H12         2.8550    2.7430   -0.6540 hc        1 ERG      0.083000
     32 H21         5.0900    2.1900   -0.3520 hc        1 ERG      0.086500
     33 H22A        5.0030    3.8110   -0.5270 hc        1 ERG      0.086500
     34 H3          5.3490    4.1310    1.7980 h1        1 ERG      0.076000
     35 H41         5.5430    1.2070    2.4970 hc        1 ERG      0.101500
     36 H42         5.5160    2.4040    3.5160 hc        1 ERG      0.101500
     37 H6          3.4600    1.3310    4.6710 ha        1 ERG      0.128000
     38 H7          1.1320    0.7270    4.4430 ha        1 ERG      0.128000
     39 H9          1.5130    2.8270    1.7690 ha        1 ERG      0.094000
     40 H111        0.2950    2.3860    0.3150 hc        1 ERG      0.081000
     41 H112        1.7260    2.4920   -0.3310 hc        1 ERG      0.081000
     42 H121        0.4760    0.7320   -1.1770 hc        1 ERG      0.084000
     43 H122        1.8940    0.2840   -0.5910 hc        1 ERG      0.084000
     44 H14         1.7230   -0.9260    1.6460 hc        1 ERG      0.092000
     45 H151       -0.1480   -1.9480    2.8210 hc        1 ERG      0.084000
     46 H152       -0.4160   -0.4500    3.4710 hc        1 ERG      0.084000
     47 H161       -2.3720   -0.4650    2.3040 hc        1 ERG      0.085000
     48 H162       -1.9470   -1.7610    1.4410 hc        1 ERG      0.085000
     49 H17        -1.5370    0.8800    0.9810 hc        1 ERG      0.087000
     50 H181        0.3450   -1.6800   -1.1290 hc        1 ERG      0.075667
     51 H182        1.4180   -2.0540   -0.0040 hc        1 ERG      0.075667
     52 H183       -0.1340   -2.4010    0.2760 hc        1 ERG      0.075667
     53 H191        2.4420   -0.1170    0.9140 hc        1 ERG      0.079000
     54 H192        3.4290    0.5650   -0.1610 hc        1 ERG      0.079000
     55 H193        4.0150    0.1300    1.3510 hc        1 ERG      0.079000
     56 H20        -1.7290   -1.3190   -0.8690 hc        1 ERG      0.098000
     57 H211       -1.3770    0.3830   -2.1830 hc        1 ERG      0.075000
     58 H212       -1.8050    1.4780   -1.0740 hc        1 ERG      0.075000
     59 H213       -2.9130    0.6920   -1.9670 hc        1 ERG      0.075000
     60 H22        -3.9730   -0.3100    0.6970 ha        1 ERG      0.118000
     61 H23        -5.2890   -1.7310   -0.6750 ha        1 ERG      0.120000
     62 H24        -2.8850   -1.8560   -2.3650 ha        1 ERG      0.090000
     63 H25        -4.8570   -1.0160   -3.4900 hc        1 ERG      0.087000
     64 H261       -6.6410   -2.1190   -2.8890 hc        1 ERG      0.072667
     65 H262       -5.8390   -3.4160   -2.4790 hc        1 ERG      0.072667
     66 H263       -6.2420   -3.1910   -4.0270 hc        1 ERG      0.072667
     67 H271       -4.3740   -2.1600   -5.4660 hc        1 ERG      0.072667
     68 H272       -2.9940   -2.3580   -4.6630 hc        1 ERG      0.072667
     69 H273       -4.0980   -3.6240   -4.7380 hc        1 ERG      0.072667
     70 H281       -3.7540   -4.1710   -2.7520 hc        1 ERG      0.075000
     71 H282       -2.6700   -3.8730   -1.6060 hc        1 ERG      0.075000
     72 H283       -4.2450   -3.9660   -1.2570 hc        1 ERG      0.075000
     73 HO1         7.2280    3.8810    1.5760 ho        1 ERG      0.198000
@<TRIPOS>BOND
     1    1    2 1   
     2    1   10 1   
     3    1   30 1   
     4    1   31 1   
     5    2    3 1   
     6    2   32 1   
     7    2   33 1   
     8    3    4 1   
     9    3   29 1   
    10    3   34 1   
    11    4    5 1   
    12    4   35 1   
    13    4   36 1   
    14    5    6 1   
    15    5   10 1   
    16    6   37 1   
    17    7    8 1   
    18    7   38 1   
    19    8   14 1   
    20    9   10 1   
    21    9   11 1   
    22    9   39 1   
    23   10   19 1   
    24   11   12 1   
    25   11   40 1   
    26   11   41 1   
    27   12   13 1   
    28   12   42 1   
    29   12   43 1   
    30   13   14 1   
    31   13   17 1   
    32   13   18 1   
    33   14   15 1   
    34   14   44 1   
    35   15   16 1   
    36   15   45 1   
    37   15   46 1   
    38   16   17 1   
    39   16   47 1   
    40   16   48 1   
    41   17   20 1   
    42   17   49 1   
    43   18   50 1   
    44   18   51 1   
    45   18   52 1   
    46   19   53 1   
    47   19   54 1   
    48   19   55 1   
    49   20   21 1   
    50   20   22 1   
    51   20   56 1   
    52   21   57 1   
    53   21   58 1   
    54   21   59 1   
    55   22   23 1   
    56   22   60 1   
    57   23   61 1   
    58   24   25 1   
    59   24   28 1   
    60   24   62 1   
    61   25   26 1   
    62   25   27 1   
    63   25   63 1   
    64   26   64 1   
    65   26   65 1   
    66   26   66 1   
    67   27   67 1   
    68   27   68 1   
    69   27   69 1   
    70   28   70 1   
    71   28   71 1   
    72   28   72 1   
    73   29   73 1   
@<TRIPOS>SUBSTRUCTURE
     1 ERG         1 TEMP              0 ****  ****    0 ROOT
