@<TRIPOS>MOLECULE
ERG
   73    76     1     0     0
SMALL
bcc


@<TRIPOS>ATOM
      1 C1          0.0500   -0.3010   -0.3290 c3        1 ERG     -0.071400
      2 C2          1.5100    0.0880   -0.3230 c3        1 ERG     -0.075400
      3 C3          1.8870    0.6460    1.0430 c3        1 ERG      0.145100
      4 C4          1.6190   -0.3870    2.1340 c3        1 ERG     -0.075200
      5 C5          0.2390   -0.9410    2.0790 c2        1 ERG     -0.102400
      6 C6         -0.4420   -1.1680    3.2200 ce        1 ERG     -0.132000
      7 C7         -1.7740   -1.7210    3.2110 ce        1 ERG     -0.148000
      8 C8         -2.4440   -1.8850    2.0550 c2        1 ERG     -0.078400
      9 C9         -1.8520   -1.4860    0.7340 c3        1 ERG     -0.016500
     10 C10        -0.3040   -1.3540    0.7330 c3        1 ERG      0.003200
     11 C11        -2.3300   -2.3490   -0.4340 c3        1 ERG     -0.073400
     12 C12        -3.8110   -2.6890   -0.4130 c3        1 ERG     -0.067400
     13 C13        -4.1830   -3.3150    0.9220 c3        1 ERG     -0.042000
     14 C14        -3.8810   -2.2370    1.9950 c3        1 ERG     -0.034500
     15 C15        -4.6120   -2.7360    3.2350 c3        1 ERG     -0.072400
     16 C16        -5.8600   -3.4300    2.6850 c3        1 ERG     -0.078400
     17 C17        -5.6890   -3.5610    1.1580 c3        1 ERG     -0.051700
     18 C18        -3.3840   -4.5820    1.1710 c3        1 ERG     -0.082100
     19 C19         0.3740   -2.6790    0.3770 c3        1 ERG     -0.086100
     20 C20        -6.2570   -4.8820    0.6470 c3        1 ERG     -0.026500
     21 C21        -6.1960   -4.9810   -0.8670 c3        1 ERG     -0.087100
     22 C22        -7.6800   -5.0180    1.0850 c2        1 ERG     -0.168200
     23 C23        -8.1720   -6.1200    1.6550 c2        1 ERG     -0.166200
     24 C24        -9.5950   -6.2690    2.0790 c3        1 ERG     -0.031500
     25 C25       -10.2160   -7.5080    1.4230 c3        1 ERG     -0.060700
     26 C26       -11.6460   -7.7130    1.8780 c3        1 ERG     -0.090600
     27 C27       -10.1660   -7.3940   -0.0870 c3        1 ERG     -0.090600
     28 C28        -9.6620   -6.3530    3.5930 c3        1 ERG     -0.087100
     29 O1          3.2710    0.9710    0.9860 oh        1 ERG     -0.600800
     30 H11        -0.5690    0.6200   -0.1540 hc        1 ERG      0.044700
     31 H12        -0.2200   -0.7030   -1.3410 hc        1 ERG      0.044700
     32 H21         2.1580   -0.7950   -0.5570 hc        1 ERG      0.056200
     33 H22A        1.7040    0.8660   -1.1070 hc        1 ERG      0.056200
     34 H3          1.2970    1.5830    1.2520 h1        1 ERG      0.036700
     35 H41         2.3580   -1.2280    2.0200 hc        1 ERG      0.052700
     36 H42         1.8090    0.0840    3.1360 hc        1 ERG      0.052700
     37 H6         -0.0130   -0.9180    4.2030 ha        1 ERG      0.126000
     38 H7         -2.2300   -1.9660    4.1820 ha        1 ERG      0.131000
     39 H9         -2.2680   -0.4450    0.5540 hc        1 ERG      0.052700
     40 H111       -1.7690   -3.3200   -0.4600 hc        1 ERG      0.044200
     41 H112       -2.0970   -1.8060   -1.3890 hc        1 ERG      0.044200
     42 H121       -4.4230   -1.7650   -0.5810 hc        1 ERG      0.042200
     43 H122       -4.0350   -3.3960   -1.2530 hc        1 ERG      0.042200
     44 H14        -4.4080   -1.2870    1.6700 hc        1 ERG      0.054700
     45 H151       -3.9790   -3.4580    3.8080 hc        1 ERG      0.044200
     46 H152       -4.8770   -1.8940    3.9180 hc        1 ERG      0.044200
     47 H161       -5.9830   -4.4380    3.1520 hc        1 ERG      0.044700
     48 H162       -6.7790   -2.8370    2.9140 hc        1 ERG      0.044700
     49 H17        -6.2540   -2.7270    0.6560 hc        1 ERG      0.046700
     50 H181       -3.7610   -5.1060    2.0830 hc        1 ERG      0.037700
     51 H182       -2.3040   -4.3430    1.3340 hc        1 ERG      0.037700
     52 H183       -3.4700   -5.2720    0.2970 hc        1 ERG      0.037700
     53 H191        1.4680   -2.6270    0.5970 hc        1 ERG      0.039033
     54 H192       -0.0670   -3.5100    0.9770 hc        1 ERG      0.039033
     55 H193        0.2560   -2.9040   -0.7100 hc        1 ERG      0.039033
     56 H20        -5.6540   -5.7300    1.0820 hc        1 ERG      0.054700
     57 H211       -6.8210   -5.8370   -1.2200 hc        1 ERG      0.035700
     58 H212       -5.1450   -5.1510   -1.2020 hc        1 ERG      0.035700
     59 H213       -6.5770   -4.0450   -1.3410 hc        1 ERG      0.035700
     60 H22        -8.3140   -4.1390    0.8860 ha        1 ERG      0.121000
     61 H23        -7.5360   -6.9980    1.8560 ha        1 ERG      0.121000
     62 H24       -10.1850   -5.3670    1.7460 hc        1 ERG      0.050700
     63 H25        -9.6110   -8.4060    1.7340 hc        1 ERG      0.045700
     64 H261      -12.2440   -6.7810    1.7320 hc        1 ERG      0.034200
     65 H262      -11.6810   -7.9920    2.9580 hc        1 ERG      0.034200
     66 H263      -12.1230   -8.5340    1.2890 hc        1 ERG      0.034200
     67 H271      -10.5480   -8.3310   -0.5580 hc        1 ERG      0.034200
     68 H272       -9.1170   -7.2220   -0.4300 hc        1 ERG      0.034200
     69 H273      -10.7970   -6.5410   -0.4360 hc        1 ERG      0.034200
     70 H281      -10.7200   -6.2770    3.9400 hc        1 ERG      0.035033
     71 H282       -9.2370   -7.3210    3.9520 hc        1 ERG      0.035033
     72 H283       -9.0790   -5.5180    4.0510 hc        1 ERG      0.035033
     73 HO1         3.5200    1.2800    1.8650 ho        1 ERG      0.398000
@<TRIPOS>BOND
     1    1    2 1   
     2    1   10 1   
     3    1   30 1   
     4    1   31 1   
     5    2    3 1   
     6    2   32 1   
     7    2   33 1   
     8    3    4 1   
     9    3   29 1   
    10    3   34 1   
    11    4    5 1   
    12    4   35 1   
    13    4   36 1   
    14    5    6 2   
    15    5   10 1   
    16    6    7 1   
    17    6   37 1   
    18    7    8 2   
    19    7   38 1   
    20    8    9 1   
    21    8   14 1   
    22    9   10 1   
    23    9   11 1   
    24    9   39 1   
    25   10   19 1   
    26   11   12 1   
    27   11   40 1   
    28   11   41 1   
    29   12   13 1   
    30   12   42 1   
    31   12   43 1   
    32   13   14 1   
    33   13   17 1   
    34   13   18 1   
    35   14   15 1   
    36   14   44 1   
    37   15   16 1   
    38   15   45 1   
    39   15   46 1   
    40   16   17 1   
    41   16   47 1   
    42   16   48 1   
    43   17   20 1   
    44   17   49 1   
    45   18   50 1   
    46   18   51 1   
    47   18   52 1   
    48   19   53 1   
    49   19   54 1   
    50   19   55 1   
    51   20   21 1   
    52   20   22 1   
    53   20   56 1   
    54   21   57 1   
    55   21   58 1   
    56   21   59 1   
    57   22   23 2   
    58   22   60 1   
    59   23   24 1   
    60   23   61 1   
    61   24   25 1   
    62   24   28 1   
    63   24   62 1   
    64   25   26 1   
    65   25   27 1   
    66   25   63 1   
    67   26   64 1   
    68   26   65 1   
    69   26   66 1   
    70   27   67 1   
    71   27   68 1   
    72   27   69 1   
    73   28   70 1   
    74   28   71 1   
    75   28   72 1   
    76   29   73 1   
@<TRIPOS>SUBSTRUCTURE
     1 ERG         1 TEMP              0 ****  ****    0 ROOT
