@<TRIPOS>MOLECULE
ERI
   30    30     1     0     0
SMALL
bcc


@<TRIPOS>ATOM
      1 O1          2.8930    1.7310    0.8790 oh        1 ERI     -0.591800
      2 C1          2.1780    0.7080    0.2400 c3        1 ERI      0.343900
      3 C2          1.5400   -0.2660    1.2290 c3        1 ERI     -0.162400
      4 C3          0.6440   -1.2590    0.4900 c3        1 ERI      0.159800
      5 O3          1.4190   -2.0760   -0.3920 oh        1 ERI     -0.601800
      6 CC3        -0.0970   -2.1420    1.4850 c3        1 ERI     -0.121100
      7 C4         -0.3450   -0.5100   -0.4370 c3        1 ERI      0.129100
      8 O4         -1.3450    0.0500    0.4350 os        1 ERI     -0.440900
      9 CME        -3.5210    0.8870    0.9040 c3        1 ERI     -0.150100
     10 CO4        -2.5850    0.2960   -0.0920 c         1 ERI      0.636100
     11 OC4        -2.7940    0.0210   -1.2740 o         1 ERI     -0.541000
     12 C5          0.3050    0.6230   -1.2510 c3        1 ERI      0.145100
     13 O5          1.1830    1.4310   -0.4740 os        1 ERI     -0.450600
     14 C6          0.9960    0.0820   -2.4870 c3        1 ERI     -0.127100
     15 HO1         2.2540    2.3660    1.2300 ho        1 ERI      0.420000
     16 H1          2.8930    0.1910   -0.4570 h2        1 ERI      0.081700
     17 H21         2.3450   -0.8060    1.7850 hc        1 ERI      0.067200
     18 H22         0.9160    0.3020    1.9660 hc        1 ERI      0.067200
     19 HO3         2.0150   -2.5920    0.1640 ho        1 ERI      0.408000
     20 H31        -0.7630   -1.5200    2.1280 hc        1 ERI      0.050033
     21 H32        -0.7150   -2.8920    0.9370 hc        1 ERI      0.050033
     22 H33         0.6340   -2.6820    2.1340 hc        1 ERI      0.050033
     23 H4         -0.8220   -1.2430   -1.1450 h1        1 ERI      0.096700
     24 H41        -3.0710    0.8920    1.9250 hc        1 ERI      0.077700
     25 H42        -3.7550    1.9360    0.5970 hc        1 ERI      0.077700
     26 H43        -4.4660    0.2900    0.9110 hc        1 ERI      0.077700
     27 H5         -0.5050    1.3530   -1.5510 h1        1 ERI      0.084700
     28 H61         0.2320   -0.2920   -3.2090 hc        1 ERI      0.055033
     29 H62         1.5890    0.8950   -2.9700 hc        1 ERI      0.055033
     30 H63         1.6830   -0.7590   -2.2260 hc        1 ERI      0.055033
@<TRIPOS>BOND
     1    1    2 1   
     2    1   15 1   
     3    2    3 1   
     4    2   13 1   
     5    2   16 1   
     6    3    4 1   
     7    3   17 1   
     8    3   18 1   
     9    4    5 1   
    10    4    6 1   
    11    4    7 1   
    12    5   19 1   
    13    6   20 1   
    14    6   21 1   
    15    6   22 1   
    16    7    8 1   
    17    7   12 1   
    18    7   23 1   
    19    8   10 1   
    20    9   10 1   
    21    9   24 1   
    22    9   25 1   
    23    9   26 1   
    24   10   11 2   
    25   12   13 1   
    26   12   14 1   
    27   12   27 1   
    28   14   28 1   
    29   14   29 1   
    30   14   30 1   
@<TRIPOS>SUBSTRUCTURE
     1 ERI         1 TEMP              0 ****  ****    0 ROOT
