@<TRIPOS>MOLECULE
ERO
   18    18     1     0     0
SMALL
bcc


@<TRIPOS>ATOM
      1 OAB        -2.5310   -1.5280   -0.8010 o         1 ERO     -0.784800
      2 CAI        -2.1470   -0.6540    0.0160 c         1 ERO      0.919800
      3 OAE        -2.8560   -0.0010    0.8150 o         1 ERO     -0.784800
      4 CAK        -0.6020   -0.4090    0.0530 cc        1 ERO      0.059400
      5 NAG         0.1520   -1.5670    0.0870 n         1 ERO     -0.433100
      6 CAL         1.5540   -1.5480    0.0650 c         1 ERO      0.789500
      7 OAC         2.2230   -2.6110    0.0640 o         1 ERO     -0.696500
      8 NAH         2.1850   -0.2990    0.0640 n         1 ERO     -0.594500
      9 CAM         1.4710    0.9200    0.0360 c         1 ERO      0.723700
     10 OAD         2.1710    1.9530    0.0200 o         1 ERO     -0.665500
     11 CAJ         0.0050    0.8330    0.0340 cd        1 ERO     -0.260200
     12 CAF        -0.7940    2.0420    0.0210 cf        1 ERO     -0.073000
     13 CAA        -0.3650    3.2790   -0.2370 c2        1 ERO     -0.271000
     14 H2          3.1790   -0.2870    0.0640 hn        1 ERO      0.330500
     15 H4         -1.8670    1.8650    0.2510 ha        1 ERO      0.164000
     16 H6          0.6780    3.5290   -0.4660 ha        1 ERO      0.106000
     17 H7         -1.0580    4.1300   -0.2240 ha        1 ERO      0.106000
     18 H9         -0.3120   -2.4450   -0.0260 hn        1 ERO      0.364500
@<TRIPOS>BOND
     1    1    2 1   
     2    2    3 1   
     3    2    4 1   
     4    4    5 1   
     5    4   11 2   
     6    5    6 1   
     7    5   18 1   
     8    6    7 2   
     9    6    8 1   
    10    8    9 1   
    11    8   14 1   
    12    9   10 2   
    13    9   11 1   
    14   11   12 1   
    15   12   13 2   
    16   12   15 1   
    17   13   16 1   
    18   13   17 1   
@<TRIPOS>SUBSTRUCTURE
     1 ERO         1 TEMP              0 ****  ****    0 ROOT
