@<TRIPOS>MOLECULE
ERO
   18    18     1     0     0
SMALL
bcc


@<TRIPOS>ATOM
      1 OAB         0.2540    0.7030   -0.0120 o         1 ERO     -0.784800
      2 CAI         1.2860   -0.0120    0.0430 c         1 ERO      0.919800
      3 OAE         1.6690   -0.7160    1.0050 o         1 ERO     -0.784800
      4 CAK         2.1450   -0.0450   -1.2650 cc        1 ERO      0.059400
      5 NAG         1.4070   -0.2280   -2.4200 n         1 ERO     -0.433100
      6 CAL         1.9960   -0.2260   -3.6920 c         1 ERO      0.789500
      7 OAC         1.3060   -0.3610   -4.7330 o         1 ERO     -0.696500
      8 NAH         3.3870   -0.0890   -3.7620 n         1 ERO     -0.594500
      9 CAM         4.1970    0.0940   -2.6180 c         1 ERO      0.723700
     10 OAD         5.4180    0.2210   -2.8400 o         1 ERO     -0.665500
     11 CAJ         3.5180    0.1110   -1.3160 cd        1 ERO     -0.260200
     12 CAF         4.2850    0.2780   -0.0990 cf        1 ERO     -0.073000
     13 CAA         5.5560    0.6740   -0.0050 c2        1 ERO     -0.271000
     14 H2          3.8050   -0.1030   -4.6640 hn        1 ERO      0.330500
     15 H4          3.7080    0.0470    0.8220 ha        1 ERO      0.164000
     16 H6          6.1870    0.9130   -0.8700 ha        1 ERO      0.106000
     17 H7          6.0450    0.7710    0.9720 ha        1 ERO      0.106000
     18 H9          0.4100   -0.2110   -2.3590 hn        1 ERO      0.364500
@<TRIPOS>BOND
     1    1    2 1   
     2    2    3 1   
     3    2    4 1   
     4    4    5 1   
     5    4   11 2   
     6    5    6 1   
     7    5   18 1   
     8    6    7 2   
     9    6    8 1   
    10    8    9 1   
    11    8   14 1   
    12    9   10 2   
    13    9   11 1   
    14   11   12 1   
    15   12   13 2   
    16   12   15 1   
    17   13   16 1   
    18   13   17 1   
@<TRIPOS>SUBSTRUCTURE
     1 ERO         1 TEMP              0 ****  ****    0 ROOT
