@<TRIPOS>MOLECULE
ERO
   18    13     1     0     0
SMALL
bcc


@<TRIPOS>ATOM
      1 OAB        -2.5020   -0.7800    1.7760 o         1 ERO     -0.753000
      2 CAI        -1.2430   -0.7800    1.7760 c1        1 ERO      0.837000
      3 OAE        -0.6130   -0.7800    2.8670 o         1 ERO     -0.753000
      4 CAK        -0.4860   -0.7800    0.4660 c1        1 ERO      0.021700
      5 NAG        -0.1540   -2.0090   -0.1610 n3        1 ERO     -0.272400
      6 CAL         0.5770   -2.0090   -1.4270 c1        1 ERO      0.613500
      7 OAC         0.7610   -3.0520   -2.0220 o         1 ERO     -0.654500
      8 NAH         0.9660   -0.7450   -2.0470 n2        1 ERO     -0.838800
      9 CAM         0.6340    0.4840   -1.4210 c1        1 ERO      0.815900
     10 OAD         0.8970    1.5360   -1.9690 o         1 ERO     -0.623500
     11 CAJ        -0.0940    0.4910   -0.1600 c1        1 ERO     -0.241000
     12 CAF        -0.4650    1.8030    0.4950 c1        1 ERO     -0.114500
     13 CAA         0.4650    2.5050    1.1730 c1        1 ERO     -0.114500
     14 H2          1.4220   -0.7450   -2.8370 hn        1 ERO      0.488400
     15 H4         -1.3780    2.1420    0.4270 ha        1 ERO      0.069000
     16 H6          1.3780    2.1660    1.2410 DU        1 ERO      0.123000
     17 H7          0.2260    3.3520    1.5950 ha        1 ERO      0.069000
     18 H9         -0.3920   -2.7990    0.2270 hn        1 ERO      0.327700
@<TRIPOS>BOND
     1    1    2 2   
     2    2    3 2   
     3    4    5 1   
     4    4   11 3   
     5    5    6 2   
     6    5   18 1   
     7    6    7 2   
     8    8    9 2   
     9    8   14 1   
    10    9   10 2   
    11   12   13 3   
    12   12   15 1   
    13   13   17 1   
@<TRIPOS>SUBSTRUCTURE
     1 ERO         1 TEMP              0 ****  ****    0 ROOT
