@<TRIPOS>MOLECULE
ERU
   68    67     1     0     0
SMALL
bcc


@<TRIPOS>ATOM
      1 C22        -0.8730    0.6610    0.6600 c3        1 ERU     -0.093100
      2 C21         0.5500    0.1830    0.5330 c3        1 ERU     -0.079400
      3 C20         1.3250    0.3980    1.8170 c3        1 ERU     -0.079400
      4 C19         2.7530   -0.0840    1.6850 c3        1 ERU     -0.078400
      5 C18         3.5260    0.1310    2.9690 c3        1 ERU     -0.079400
      6 C17         4.9550   -0.3500    2.8380 c3        1 ERU     -0.079400
      7 C16         5.7270   -0.1340    4.1220 c3        1 ERU     -0.078400
      8 C15         7.1570   -0.6160    3.9880 c3        1 ERU     -0.050200
      9 C14         7.9360   -0.4160    5.2320 c2        1 ERU     -0.165200
     10 C13         9.2100   -0.7950    5.3800 c2        1 ERU     -0.181200
     11 C12         9.9970   -1.4650    4.3180 c3        1 ERU     -0.047200
     12 C11        11.4290   -1.7220    4.7410 c3        1 ERU     -0.077400
     13 C10        12.2100   -2.4050    3.6380 c3        1 ERU     -0.079400
     14 C9         13.6410   -2.6600    4.0580 c3        1 ERU     -0.079400
     15 C8         14.4220   -3.3440    2.9570 c3        1 ERU     -0.079400
     16 C7         15.8550   -3.5950    3.3770 c3        1 ERU     -0.079400
     17 C6         16.6360   -4.2800    2.2750 c3        1 ERU     -0.079400
     18 C5         18.0690   -4.5270    2.6970 c3        1 ERU     -0.079400
     19 C4         18.8470   -5.2130    1.5930 c3        1 ERU     -0.081400
     20 C3         20.2800   -5.4550    2.0230 c3        1 ERU     -0.084400
     21 C2         21.0490   -6.1450    0.9080 c3        1 ERU     -0.149400
     22 C1         22.4670   -6.3830    1.3230 c         1 ERU      0.551100
     23 O          23.0550   -6.1080    2.3510 o         1 ERU     -0.376100
     24 N          23.3350   -7.0920    0.2830 n4        1 ERU     -0.776400
     25 H22        -1.4030    0.1100    1.4740 hc        1 ERU      0.033700
     26 H22A       -0.9030    1.7520    0.8990 hc        1 ERU      0.033700
     27 H22B       -1.4250    0.4940   -0.2960 hc        1 ERU      0.033700
     28 H21         1.0580    0.7300   -0.3050 hc        1 ERU      0.037700
     29 H21A        0.5600   -0.9070    0.2690 hc        1 ERU      0.037700
     30 H20         1.3170    1.4880    2.0820 hc        1 ERU      0.040700
     31 H20A        0.8190   -0.1490    2.6560 hc        1 ERU      0.040700
     32 H19         2.7600   -1.1740    1.4200 hc        1 ERU      0.038700
     33 H19A        3.2590    0.4630    0.8460 hc        1 ERU      0.038700
     34 H18         3.5190    1.2220    3.2340 hc        1 ERU      0.040700
     35 H18A        3.0210   -0.4160    3.8080 hc        1 ERU      0.040700
     36 H17         5.4600    0.1970    1.9980 hc        1 ERU      0.038700
     37 H17A        4.9620   -1.4410    2.5740 hc        1 ERU      0.038700
     38 H16         5.2220   -0.6810    4.9610 hc        1 ERU      0.042700
     39 H16A        5.7200    0.9560    4.3860 hc        1 ERU      0.042700
     40 H15         7.6590   -0.0700    3.1420 hc        1 ERU      0.046700
     41 H15A        7.1620   -1.7070    3.7150 hc        1 ERU      0.046700
     42 H14         7.4040    0.0770    6.0620 ha        1 ERU      0.125000
     43 H13         9.7370   -0.6170    6.3320 ha        1 ERU      0.122000
     44 H12         9.9870   -0.8310    3.3880 hc        1 ERU      0.047200
     45 H12A        9.5040   -2.4390    4.0480 hc        1 ERU      0.047200
     46 H11        11.4400   -2.3610    5.6620 hc        1 ERU      0.042700
     47 H11A       11.9230   -0.7500    5.0050 hc        1 ERU      0.042700
     48 H10        12.1960   -1.7660    2.7160 hc        1 ERU      0.040700
     49 H10A       11.7160   -3.3770    3.3740 hc        1 ERU      0.040700
     50 H9         14.1340   -1.6870    4.3210 hc        1 ERU      0.041700
     51 H9A        13.6550   -3.2980    4.9810 hc        1 ERU      0.041700
     52 H8         14.4070   -2.7070    2.0330 hc        1 ERU      0.041700
     53 H8A        13.9300   -4.3170    2.6960 hc        1 ERU      0.041700
     54 H7         15.8700   -4.2310    4.3010 hc        1 ERU      0.043700
     55 H7A        16.3460   -2.6200    3.6370 hc        1 ERU      0.043700
     56 H6         16.1440   -5.2550    2.0170 hc        1 ERU      0.043700
     57 H6A        16.6180   -3.6440    1.3510 hc        1 ERU      0.043700
     58 H5         18.0840   -5.1620    3.6220 hc        1 ERU      0.049700
     59 H5A        18.5590   -3.5510    2.9540 hc        1 ERU      0.049700
     60 H4         18.8290   -4.5770    0.6690 hc        1 ERU      0.049700
     61 H4A        18.3560   -6.1900    1.3390 hc        1 ERU      0.049700
     62 H3         20.7730   -4.4800    2.2770 hc        1 ERU      0.074200
     63 H3A        20.3000   -6.0910    2.9480 hc        1 ERU      0.074200
     64 H2         20.5600   -7.1280    0.6610 hc        1 ERU      0.105200
     65 H2A        21.0330   -5.5040   -0.0170 hc        1 ERU      0.105200
     66 HN         23.3690   -6.5400   -0.5780 hn        1 ERU      0.467467
     67 HNA        24.2910   -7.2120    0.6410 hn        1 ERU      0.467467
     68 HN3        22.9420   -8.0120    0.0690 hn        1 ERU      0.467467
@<TRIPOS>BOND
     1    1    2 1   
     2    1   25 1   
     3    1   26 1   
     4    1   27 1   
     5    2    3 1   
     6    2   28 1   
     7    2   29 1   
     8    3    4 1   
     9    3   30 1   
    10    3   31 1   
    11    4    5 1   
    12    4   32 1   
    13    4   33 1   
    14    5    6 1   
    15    5   34 1   
    16    5   35 1   
    17    6    7 1   
    18    6   36 1   
    19    6   37 1   
    20    7    8 1   
    21    7   38 1   
    22    7   39 1   
    23    8    9 1   
    24    8   40 1   
    25    8   41 1   
    26    9   10 2   
    27    9   42 1   
    28   10   11 1   
    29   10   43 1   
    30   11   12 1   
    31   11   44 1   
    32   11   45 1   
    33   12   13 1   
    34   12   46 1   
    35   12   47 1   
    36   13   14 1   
    37   13   48 1   
    38   13   49 1   
    39   14   15 1   
    40   14   50 1   
    41   14   51 1   
    42   15   16 1   
    43   15   52 1   
    44   15   53 1   
    45   16   17 1   
    46   16   54 1   
    47   16   55 1   
    48   17   18 1   
    49   17   56 1   
    50   17   57 1   
    51   18   19 1   
    52   18   58 1   
    53   18   59 1   
    54   19   20 1   
    55   19   60 1   
    56   19   61 1   
    57   20   21 1   
    58   20   62 1   
    59   20   63 1   
    60   21   22 1   
    61   21   64 1   
    62   21   65 1   
    63   22   23 2   
    64   22   24 1   
    65   24   66 1   
    66   24   67 1   
    67   24   68 1   
@<TRIPOS>SUBSTRUCTURE
     1 ERU         1 TEMP              0 ****  ****    0 ROOT
