@<TRIPOS>MOLECULE
ERU
   68    67     1     0     0
SMALL
bcc


@<TRIPOS>ATOM
      1 C22        -0.8690    0.6760    0.6480 c3        1 ERU     -0.093100
      2 C21         0.5500    0.1820    0.5280 c3        1 ERU     -0.079400
      3 C20         1.3280    0.4100    1.8060 c3        1 ERU     -0.079400
      4 C19         2.7520   -0.0870    1.6810 c3        1 ERU     -0.078400
      5 C18         3.5280    0.1410    2.9600 c3        1 ERU     -0.079400
      6 C17         4.9520   -0.3560    2.8350 c3        1 ERU     -0.079400
      7 C16         5.7280   -0.1270    4.1150 c3        1 ERU     -0.078400
      8 C15         7.1520   -0.6250    3.9870 c3        1 ERU     -0.050200
      9 C14         7.9350   -0.4130    5.2270 c2        1 ERU     -0.165200
     10 C13         9.2170   -0.7680    5.3670 c2        1 ERU     -0.181200
     11 C12        10.0110   -1.4160    4.2970 c3        1 ERU     -0.047200
     12 C11        11.4330   -1.7050    4.7330 c3        1 ERU     -0.077400
     13 C10        12.2210   -2.3670    3.6230 c3        1 ERU     -0.079400
     14 C9         13.6420   -2.6560    4.0580 c3        1 ERU     -0.079400
     15 C8         14.4310   -3.3180    2.9480 c3        1 ERU     -0.079400
     16 C7         15.8510   -3.6060    3.3840 c3        1 ERU     -0.079400
     17 C6         16.6400   -4.2680    2.2740 c3        1 ERU     -0.079400
     18 C5         18.0610   -4.5560    2.7130 c3        1 ERU     -0.079400
     19 C4         18.8480   -5.2180    1.6000 c3        1 ERU     -0.081400
     20 C3         20.2670   -5.5020    2.0480 c3        1 ERU     -0.084400
     21 C2         21.0450   -6.1650    0.9230 c3        1 ERU     -0.149400
     22 C1         22.4490   -6.4490    1.3580 c         1 ERU      0.551100
     23 O          23.0160   -6.2370    2.4120 o         1 ERU     -0.376100
     24 N          23.3290   -7.1210    0.3030 n4        1 ERU     -0.776400
     25 H22        -0.8880    1.7700    0.8690 hc        1 ERU      0.033700
     26 H22A       -1.4030    0.1430    1.4720 hc        1 ERU      0.033700
     27 H22B       -1.4240    0.4980   -0.3040 hc        1 ERU      0.033700
     28 H21         0.5480   -0.9130    0.2820 hc        1 ERU      0.037700
     29 H21A        1.0620    0.7100   -0.3200 hc        1 ERU      0.037700
     30 H20         1.3310    1.5040    2.0540 hc        1 ERU      0.040700
     31 H20A        0.8180   -0.1180    2.6550 hc        1 ERU      0.040700
     32 H19         2.7470   -1.1820    1.4340 hc        1 ERU      0.038700
     33 H19A        3.2610    0.4410    0.8330 hc        1 ERU      0.038700
     34 H18         3.5320    1.2360    3.2070 hc        1 ERU      0.040700
     35 H18A        3.0180   -0.3870    3.8090 hc        1 ERU      0.040700
     36 H17         5.4620    0.1720    1.9860 hc        1 ERU      0.038700
     37 H17A        4.9480   -1.4500    2.5880 hc        1 ERU      0.038700
     38 H16         5.7320    0.9680    4.3610 hc        1 ERU      0.042700
     39 H16A        5.2180   -0.6550    4.9630 hc        1 ERU      0.042700
     40 H15         7.1460   -1.7210    3.7330 hc        1 ERU      0.046700
     41 H15A        7.6590   -0.1000    3.1310 hc        1 ERU      0.046700
     42 H14         7.3980    0.0670    6.0620 ha        1 ERU      0.125000
     43 H13         9.7460   -0.5830    6.3160 ha        1 ERU      0.122000
     44 H12         9.5100   -2.3750    3.9890 hc        1 ERU      0.046700
     45 H12A       10.0240   -0.7540    3.3870 hc        1 ERU      0.046700
     46 H11        11.4210   -2.3720    5.6360 hc        1 ERU      0.042700
     47 H11A       11.9360   -0.7490    5.0340 hc        1 ERU      0.042700
     48 H10        12.2320   -1.7000    2.7200 hc        1 ERU      0.040700
     49 H10A       11.7170   -3.3230    3.3220 hc        1 ERU      0.040700
     50 H9         14.1450   -1.7000    4.3590 hc        1 ERU      0.041700
     51 H9A        13.6310   -3.3220    4.9600 hc        1 ERU      0.041700
     52 H8         14.4420   -2.6510    2.0460 hc        1 ERU      0.041700
     53 H8A        13.9270   -4.2740    2.6470 hc        1 ERU      0.041700
     54 H7         16.3540   -2.6500    3.6850 hc        1 ERU      0.043700
     55 H7A        15.8400   -4.2730    4.2870 hc        1 ERU      0.043700
     56 H6         16.1370   -5.2250    1.9740 hc        1 ERU      0.043700
     57 H6A        16.6510   -3.6010    1.3720 hc        1 ERU      0.043700
     58 H5         18.5630   -3.5980    3.0130 hc        1 ERU      0.049700
     59 H5A        18.0480   -5.2220    3.6150 hc        1 ERU      0.049700
     60 H4         18.3440   -6.1750    1.3020 hc        1 ERU      0.049700
     61 H4A        18.8590   -4.5490    0.6990 hc        1 ERU      0.049700
     62 H3         20.2580   -6.1700    2.9490 hc        1 ERU      0.074700
     63 H3A        20.7730   -4.5450    2.3460 hc        1 ERU      0.074700
     64 H2         21.0610   -5.4900    0.0230 hc        1 ERU      0.104700
     65 H2A        20.5420   -7.1280    0.6300 hc        1 ERU      0.104700
     66 HN         24.2730   -7.2800    0.6780 hn        1 ERU      0.467467
     67 HNA        23.3970   -6.5240   -0.5260 hn        1 ERU      0.467467
     68 HN3        22.9230   -8.0200    0.0300 hn        1 ERU      0.467467
@<TRIPOS>BOND
     1    1    2 1   
     2    1   25 1   
     3    1   26 1   
     4    1   27 1   
     5    2    3 1   
     6    2   28 1   
     7    2   29 1   
     8    3    4 1   
     9    3   30 1   
    10    3   31 1   
    11    4    5 1   
    12    4   32 1   
    13    4   33 1   
    14    5    6 1   
    15    5   34 1   
    16    5   35 1   
    17    6    7 1   
    18    6   36 1   
    19    6   37 1   
    20    7    8 1   
    21    7   38 1   
    22    7   39 1   
    23    8    9 1   
    24    8   40 1   
    25    8   41 1   
    26    9   10 2   
    27    9   42 1   
    28   10   11 1   
    29   10   43 1   
    30   11   12 1   
    31   11   44 1   
    32   11   45 1   
    33   12   13 1   
    34   12   46 1   
    35   12   47 1   
    36   13   14 1   
    37   13   48 1   
    38   13   49 1   
    39   14   15 1   
    40   14   50 1   
    41   14   51 1   
    42   15   16 1   
    43   15   52 1   
    44   15   53 1   
    45   16   17 1   
    46   16   54 1   
    47   16   55 1   
    48   17   18 1   
    49   17   56 1   
    50   17   57 1   
    51   18   19 1   
    52   18   58 1   
    53   18   59 1   
    54   19   20 1   
    55   19   60 1   
    56   19   61 1   
    57   20   21 1   
    58   20   62 1   
    59   20   63 1   
    60   21   22 1   
    61   21   64 1   
    62   21   65 1   
    63   22   23 2   
    64   22   24 1   
    65   24   66 1   
    66   24   67 1   
    67   24   68 1   
@<TRIPOS>SUBSTRUCTURE
     1 ERU         1 TEMP              0 ****  ****    0 ROOT
