@<TRIPOS>MOLECULE
ERU
   67    66     1     0     0
SMALL
bcc


@<TRIPOS>ATOM
      1 C22        12.9210    2.9110    0.1230 c3        1 ERU     -0.092100
      2 C21        11.4140    2.9510    0.1350 c3        1 ERU     -0.080400
      3 C20        10.8200    1.5610    0.0590 c3        1 ERU     -0.079400
      4 C19         9.3080    1.6060    0.0710 c3        1 ERU     -0.079400
      5 C18         8.7150    0.2150   -0.0060 c3        1 ERU     -0.079400
      6 C17         7.2020    0.2610    0.0070 c3        1 ERU     -0.079400
      7 C16         6.6110   -1.1300   -0.0700 c3        1 ERU     -0.077400
      8 C15         5.0970   -1.0820   -0.0570 c3        1 ERU     -0.049200
      9 C14         4.4900   -2.4320   -0.1320 c2        1 ERU     -0.174200
     10 C13         3.1710   -2.6540   -0.1320 c2        1 ERU     -0.174200
     11 C12         2.1560   -1.5780   -0.0570 c3        1 ERU     -0.049200
     12 C11         0.7410   -2.1190   -0.0810 c3        1 ERU     -0.077400
     13 C10        -0.2740   -0.9990   -0.0040 c3        1 ERU     -0.079400
     14 C9         -1.6880   -1.5380   -0.0290 c3        1 ERU     -0.079400
     15 C8         -2.7040   -0.4180    0.0490 c3        1 ERU     -0.078400
     16 C7         -4.1180   -0.9570    0.0240 c3        1 ERU     -0.079400
     17 C6         -5.1340    0.1620    0.1010 c3        1 ERU     -0.078400
     18 C5         -6.5480   -0.3780    0.0760 c3        1 ERU     -0.078400
     19 C4         -7.5640    0.7420    0.1530 c3        1 ERU     -0.079400
     20 C3         -8.9760    0.1970    0.1280 c3        1 ERU     -0.074400
     21 C2         -9.9900    1.3170    0.2050 c3        1 ERU     -0.148400
     22 C1        -11.4050    0.7740    0.1790 c         1 ERU      0.655100
     23 O         -11.6620   -0.4440    0.1020 o         1 ERU     -0.612100
     24 N         -12.4370    1.6820    0.2440 n         1 ERU     -0.684000
     25 H22        13.3370    3.9460    0.1800 hc        1 ERU      0.032700
     26 H22A       13.3070    2.3270    0.9930 hc        1 ERU      0.032700
     27 H22B       13.2950    2.4310   -0.8140 hc        1 ERU      0.032700
     28 H21        11.0590    3.4580    1.0710 hc        1 ERU      0.038700
     29 H21A       11.0470    3.5630   -0.7310 hc        1 ERU      0.038700
     30 H20        11.1740    1.0530   -0.8770 hc        1 ERU      0.039700
     31 H20A       11.1860    0.9490    0.9250 hc        1 ERU      0.039700
     32 H19         8.9540    2.1140    1.0070 hc        1 ERU      0.039700
     33 H19A        8.9430    2.2190   -0.7950 hc        1 ERU      0.039700
     34 H18         9.0690   -0.2920   -0.9420 hc        1 ERU      0.039700
     35 H18A        9.0800   -0.3970    0.8610 hc        1 ERU      0.039700
     36 H17         6.8490    0.7690    0.9430 hc        1 ERU      0.039700
     37 H17A        6.8380    0.8740   -0.8590 hc        1 ERU      0.039700
     38 H16         6.9630   -1.6380   -1.0060 hc        1 ERU      0.041700
     39 H16A        6.9750   -1.7420    0.7960 hc        1 ERU      0.041700
     40 H15         4.7450   -0.5650    0.8780 hc        1 ERU      0.047700
     41 H15A        4.7330   -0.4610   -0.9220 hc        1 ERU      0.047700
     42 H14         5.1970   -3.2760   -0.1890 ha        1 ERU      0.122000
     43 H13         2.7810   -3.6830   -0.1890 ha        1 ERU      0.122000
     44 H12         2.3140   -0.9800    0.8830 hc        1 ERU      0.047700
     45 H12A        2.3010   -0.8670   -0.9170 hc        1 ERU      0.047700
     46 H11         0.5800   -2.7090   -1.0220 hc        1 ERU      0.041700
     47 H11A        0.5930   -2.8220    0.7800 hc        1 ERU      0.041700
     48 H10        -0.1120   -0.4090    0.9360 hc        1 ERU      0.039700
     49 H10A       -0.1240   -0.2960   -0.8650 hc        1 ERU      0.039700
     50 H9         -1.8500   -2.1280   -0.9690 hc        1 ERU      0.040700
     51 H9A        -1.8380   -2.2420    0.8330 hc        1 ERU      0.040700
     52 H8         -2.5430    0.1720    0.9890 hc        1 ERU      0.038700
     53 H8A        -2.5540    0.2850   -0.8120 hc        1 ERU      0.038700
     54 H7         -4.2800   -1.5480   -0.9160 hc        1 ERU      0.040700
     55 H7A        -4.2680   -1.6610    0.8850 hc        1 ERU      0.040700
     56 H6         -4.9730    0.7520    1.0420 hc        1 ERU      0.038700
     57 H6A        -4.9840    0.8660   -0.7600 hc        1 ERU      0.038700
     58 H5         -6.7100   -0.9680   -0.8650 hc        1 ERU      0.043700
     59 H5A        -6.6980   -1.0810    0.9370 hc        1 ERU      0.043700
     60 H4         -7.4030    1.3310    1.0940 hc        1 ERU      0.036700
     61 H4A        -7.4140    1.4450   -0.7080 hc        1 ERU      0.036700
     62 H3         -9.1450   -0.3940   -0.8110 hc        1 ERU      0.060700
     63 H3A        -9.1340   -0.5080    0.9860 hc        1 ERU      0.060700
     64 H2         -9.8390    1.9040    1.1500 hc        1 ERU      0.060700
     65 H2A        -9.8500    2.0190   -0.6600 hc        1 ERU      0.060700
     66 HN        -12.2630    2.6500    0.3050 hn        1 ERU      0.309500
     67 HNA       -13.3720    1.3620    0.2290 hn        1 ERU      0.309500
@<TRIPOS>BOND
     1    1    2 1   
     2    1   25 1   
     3    1   26 1   
     4    1   27 1   
     5    2    3 1   
     6    2   28 1   
     7    2   29 1   
     8    3    4 1   
     9    3   30 1   
    10    3   31 1   
    11    4    5 1   
    12    4   32 1   
    13    4   33 1   
    14    5    6 1   
    15    5   34 1   
    16    5   35 1   
    17    6    7 1   
    18    6   36 1   
    19    6   37 1   
    20    7    8 1   
    21    7   38 1   
    22    7   39 1   
    23    8    9 1   
    24    8   40 1   
    25    8   41 1   
    26    9   10 2   
    27    9   42 1   
    28   10   11 1   
    29   10   43 1   
    30   11   12 1   
    31   11   44 1   
    32   11   45 1   
    33   12   13 1   
    34   12   46 1   
    35   12   47 1   
    36   13   14 1   
    37   13   48 1   
    38   13   49 1   
    39   14   15 1   
    40   14   50 1   
    41   14   51 1   
    42   15   16 1   
    43   15   52 1   
    44   15   53 1   
    45   16   17 1   
    46   16   54 1   
    47   16   55 1   
    48   17   18 1   
    49   17   56 1   
    50   17   57 1   
    51   18   19 1   
    52   18   58 1   
    53   18   59 1   
    54   19   20 1   
    55   19   60 1   
    56   19   61 1   
    57   20   21 1   
    58   20   62 1   
    59   20   63 1   
    60   21   22 1   
    61   21   64 1   
    62   21   65 1   
    63   22   23 2   
    64   22   24 1   
    65   24   66 1   
    66   24   67 1   
@<TRIPOS>SUBSTRUCTURE
     1 ERU         1 TEMP              0 ****  ****    0 ROOT
