@<TRIPOS>MOLECULE
ERU
   67    65     1     0     0
SMALL
bcc


@<TRIPOS>ATOM
      1 C22       -10.3990    5.4820   -4.0480 c3        1 ERU     -0.210000
      2 C21        -9.0150    4.8720   -4.0750 c3        1 ERU     -0.159000
      3 C20        -8.6270    4.4380   -2.6790 c3        1 ERU     -0.158000
      4 C19        -7.2210    3.8810   -2.6960 c3        1 ERU     -0.158000
      5 C18        -6.7880    3.5610   -1.2820 c3        1 ERU     -0.158000
      6 C17        -5.3580    3.0680   -1.2920 c3        1 ERU     -0.158000
      7 C16        -4.8920    2.8420    0.1300 c3        1 ERU     -0.156000
      8 C15        -3.4320    2.4450    0.1250 c3        1 ERU     -0.132000
      9 C14        -2.8690    2.5790    1.5230 c2        1 ERU     -0.169000
     10 C13        -1.6350    2.1150    1.7990 c1        1 ERU     -0.170000
     11 C12        -0.8120    1.4600    0.7120 c2        1 ERU     -0.132000
     12 C11         0.6220    1.3260    1.1760 c3        1 ERU     -0.156000
     13 C10         1.2810    0.1750    0.4490 c3        1 ERU     -0.158000
     14 C9          2.6630   -0.0560    1.0190 c3        1 ERU     -0.158000
     15 C8          3.2670   -1.2940    0.3920 c3        1 ERU     -0.158000
     16 C7          4.5850   -1.6080    1.0650 c3        1 ERU     -0.158000
     17 C6          5.1090   -2.9310    0.5540 c3        1 ERU     -0.158000
     18 C5          6.3500   -3.3150    1.3290 c3        1 ERU     -0.158000
     19 C4          6.8090   -4.6910    0.8970 c3        1 ERU     -0.159000
     20 C3          7.9930   -5.1150    1.7380 c3        1 ERU     -0.155000
     21 C2          8.3770   -6.5360    1.3900 c3        1 ERU     -0.184000
     22 C1          9.4850   -7.0000    2.3100 c2        1 ERU      0.300000
     23 O          10.2850   -6.1980    2.7490 o         1 ERU     -0.375000
     24 N           9.5820   -8.3690    2.6680 n         1 ERU     -0.439000
     25 H22       -10.4260    6.2010   -3.3820 hc        1 ERU      0.072000
     26 H22A      -10.6120    5.8470   -4.9320 hc        1 ERU      0.072000
     27 H22B      -11.0550    4.7930   -3.8120 hc        1 ERU      0.072000
     28 H21        -8.3730    5.5340   -4.4010 hc        1 ERU      0.078000
     29 H21A       -9.0130    4.0950   -4.6700 hc        1 ERU      0.078000
     30 H20        -8.6660    5.2070   -2.0760 hc        1 ERU      0.079000
     31 H20A       -9.2470    3.7480   -2.3670 hc        1 ERU      0.079000
     32 H19        -6.6120    4.5440   -3.0810 hc        1 ERU      0.079000
     33 H19A       -7.1990    3.0660   -3.2360 hc        1 ERU      0.079000
     34 H18        -6.8510    4.3670   -0.7310 hc        1 ERU      0.079000
     35 H18A       -7.3690    2.8670   -0.9120 hc        1 ERU      0.079000
     36 H17        -5.3060    2.2270   -1.7890 hc        1 ERU      0.079000
     37 H17A       -4.7850    3.7360   -1.7200 hc        1 ERU      0.079000
     38 H16        -5.4230    2.1290    0.5370 hc        1 ERU      0.081000
     39 H16A       -5.0040    3.6670    0.6440 hc        1 ERU      0.081000
     40 H15        -2.9370    3.0290   -0.4830 hc        1 ERU      0.087000
     41 H15A       -3.3480    1.5170   -0.1720 hc        1 ERU      0.087000
     42 H14        -3.4000    3.0020    2.2250 ha        1 ERU      0.122000
     43 H13        -1.2710    2.2020    2.7010 ha        1 ERU      0.122000
     44 H12        -0.8430    2.0090   -0.0970 ha        1 ERU      0.087000
     45 H12A       -1.1760    0.5730    0.5180 ha        1 ERU      0.087000
     46 H11         0.6380    1.1560    2.1390 hc        1 ERU      0.081000
     47 H11A        1.1050    2.1540    0.9820 hc        1 ERU      0.081000
     48 H10         0.7430   -0.6340    0.5620 hc        1 ERU      0.079000
     49 H10A        1.3530    0.3880   -0.5030 hc        1 ERU      0.079000
     50 H9          3.2290    0.7170    0.8240 hc        1 ERU      0.079500
     51 H9A         2.6000   -0.1780    1.9870 hc        1 ERU      0.079500
     52 H8          3.4170   -1.1360   -0.5610 hc        1 ERU      0.079500
     53 H8A         2.6550   -2.0480    0.5060 hc        1 ERU      0.079500
     54 H7          5.2310   -0.9010    0.8630 hc        1 ERU      0.079500
     55 H7A         4.4520   -1.6610    2.0330 hc        1 ERU      0.079500
     56 H6          5.3300   -2.8490   -0.3960 hc        1 ERU      0.080000
     57 H6A         4.4250   -3.6200    0.6710 hc        1 ERU      0.080000
     58 H5          7.0590   -2.6650    1.1520 hc        1 ERU      0.080000
     59 H5A         6.1470   -3.3250    2.2860 hc        1 ERU      0.080000
     60 H4          7.0700   -4.6670   -0.0450 hc        1 ERU      0.083000
     61 H4A         6.0790   -5.3300    1.0170 hc        1 ERU      0.083000
     62 H3          8.7490   -4.5200    1.5600 hc        1 ERU      0.084500
     63 H3A         7.7550   -5.0640    2.6860 hc        1 ERU      0.084500
     64 H2          7.5990   -7.1190    1.4960 hc        1 ERU      0.111500
     65 H2A         8.6860   -6.5720    0.4620 hc        1 ERU      0.111500
     66 HN          8.9990   -8.9770    2.3140 hn        1 ERU      0.223000
     67 HNA        10.2330   -8.6440    3.2490 hn        1 ERU      0.223000
@<TRIPOS>BOND
     1    1    2 1   
     2    1   25 1   
     3    1   26 1   
     4    1   27 1   
     5    2    3 1   
     6    2   28 1   
     7    2   29 1   
     8    3    4 1   
     9    3   30 1   
    10    3   31 1   
    11    4    5 1   
    12    4   32 1   
    13    4   33 1   
    14    5    6 1   
    15    5   34 1   
    16    5   35 1   
    17    6    7 1   
    18    6   36 1   
    19    6   37 1   
    20    7    8 1   
    21    7   38 1   
    22    7   39 1   
    23    8    9 1   
    24    8   40 1   
    25    8   41 1   
    26    9   10 1   
    27    9   42 1   
    28   10   43 1   
    29   11   12 1   
    30   11   44 1   
    31   11   45 1   
    32   12   13 1   
    33   12   46 1   
    34   12   47 1   
    35   13   14 1   
    36   13   48 1   
    37   13   49 1   
    38   14   15 1   
    39   14   50 1   
    40   14   51 1   
    41   15   16 1   
    42   15   52 1   
    43   15   53 1   
    44   16   17 1   
    45   16   54 1   
    46   16   55 1   
    47   17   18 1   
    48   17   56 1   
    49   17   57 1   
    50   18   19 1   
    51   18   58 1   
    52   18   59 1   
    53   19   20 1   
    54   19   60 1   
    55   19   61 1   
    56   20   21 1   
    57   20   62 1   
    58   20   63 1   
    59   21   22 1   
    60   21   64 1   
    61   21   65 1   
    62   22   23 1   
    63   22   24 1   
    64   24   66 1   
    65   24   67 1   
@<TRIPOS>SUBSTRUCTURE
     1 ERU         1 TEMP              0 ****  ****    0 ROOT
