@<TRIPOS>MOLECULE
ERU
   68    67     1     0     0
SMALL
bcc


@<TRIPOS>ATOM
      1 C22        -0.8770    0.6510    0.6660 c3        1 ERU     -0.093100
      2 C21         0.5440    0.1650    0.5410 c3        1 ERU     -0.079400
      3 C20         1.3250    0.4020    1.8170 c3        1 ERU     -0.079400
      4 C19         2.7510   -0.0880    1.6870 c3        1 ERU     -0.078400
      5 C18         3.5310    0.1500    2.9630 c3        1 ERU     -0.079400
      6 C17         4.9580   -0.3400    2.8340 c3        1 ERU     -0.079400
      7 C16         5.7370   -0.1020    4.1100 c3        1 ERU     -0.078400
      8 C15         7.1640   -0.5920    3.9780 c3        1 ERU     -0.050200
      9 C14         7.9500   -0.3720    5.2150 c2        1 ERU     -0.165200
     10 C13         9.2280   -0.7410    5.3590 c2        1 ERU     -0.181200
     11 C12        10.0120   -1.4170    4.2990 c3        1 ERU     -0.047200
     12 C11        11.4410   -1.6830    4.7250 c3        1 ERU     -0.077400
     13 C10        12.2200   -2.3740    3.6260 c3        1 ERU     -0.079400
     14 C9         13.6480   -2.6390    4.0500 c3        1 ERU     -0.079400
     15 C8         14.4270   -3.3300    2.9510 c3        1 ERU     -0.079400
     16 C7         15.8560   -3.5940    3.3760 c3        1 ERU     -0.079400
     17 C6         16.6340   -4.2860    2.2770 c3        1 ERU     -0.079400
     18 C5         18.0630   -4.5480    2.7040 c3        1 ERU     -0.079400
     19 C4         18.8390   -5.2400    1.6030 c3        1 ERU     -0.081400
     20 C3         20.2670   -5.4970    2.0390 c3        1 ERU     -0.084400
     21 C2         21.0340   -6.1920    0.9260 c3        1 ERU     -0.149400
     22 C1         22.4480   -6.4480    1.3480 c         1 ERU      0.551100
     23 O          23.0310   -6.1890    2.3830 o         1 ERU     -0.376100
     24 N          23.3160   -7.1540    0.3060 nz        1 ERU     -0.776400
     25 H22        -0.9020    1.7460    0.8830 hc        1 ERU      0.033700
     26 H22A       -1.4050    0.1180    1.4940 hc        1 ERU      0.033700
     27 H22B       -1.4350    0.4670   -0.2840 hc        1 ERU      0.033700
     28 H21         0.5480   -0.9300    0.2990 hc        1 ERU      0.037700
     29 H21A        1.0490    0.6930   -0.3100 hc        1 ERU      0.037700
     30 H20         1.3230    1.4970    2.0600 hc        1 ERU      0.040700
     31 H20A        0.8210   -0.1270    2.6690 hc        1 ERU      0.040700
     32 H19         2.7520   -1.1830    1.4440 hc        1 ERU      0.038700
     33 H19A        3.2550    0.4410    0.8350 hc        1 ERU      0.038700
     34 H18         3.5300    1.2450    3.2060 hc        1 ERU      0.040700
     35 H18A        3.0280   -0.3790    3.8150 hc        1 ERU      0.040700
     36 H17         5.4610    0.1890    1.9820 hc        1 ERU      0.038700
     37 H17A        4.9590   -1.4350    2.5910 hc        1 ERU      0.038700
     38 H16         5.7360    0.9930    4.3530 hc        1 ERU      0.042700
     39 H16A        5.2340   -0.6310    4.9620 hc        1 ERU      0.042700
     40 H15         7.1630   -1.6890    3.7260 hc        1 ERU      0.046700
     41 H15A        7.6650   -0.0660    3.1190 hc        1 ERU      0.046700
     42 H14         7.4200    0.1280    6.0420 ha        1 ERU      0.125000
     43 H13         9.7590   -0.5470    6.3050 ha        1 ERU      0.122000
     44 H12         9.5130   -2.3890    4.0280 hc        1 ERU      0.046700
     45 H12A       10.0090   -0.7840    3.3690 hc        1 ERU      0.046700
     46 H11        11.4460   -2.3220    5.6480 hc        1 ERU      0.042700
     47 H11A       11.9420   -0.7150    4.9900 hc        1 ERU      0.042700
     48 H10        12.2130   -1.7360    2.7030 hc        1 ERU      0.040700
     49 H10A       11.7190   -3.3420    3.3620 hc        1 ERU      0.040700
     50 H9         14.1480   -1.6700    4.3140 hc        1 ERU      0.041700
     51 H9A        13.6540   -3.2770    4.9730 hc        1 ERU      0.041700
     52 H8         14.4200   -2.6930    2.0280 hc        1 ERU      0.041700
     53 H8A        13.9270   -4.3000    2.6880 hc        1 ERU      0.041700
     54 H7         16.3550   -2.6240    3.6390 hc        1 ERU      0.043700
     55 H7A        15.8620   -4.2310    4.3000 hc        1 ERU      0.043700
     56 H6         16.1340   -5.2560    2.0160 hc        1 ERU      0.043700
     57 H6A        16.6260   -3.6500    1.3530 hc        1 ERU      0.043700
     58 H5         18.5610   -3.5770    2.9650 hc        1 ERU      0.049700
     59 H5A        18.0690   -5.1840    3.6280 hc        1 ERU      0.049700
     60 H4         18.3390   -6.2110    1.3450 hc        1 ERU      0.049700
     61 H4A        18.8310   -4.6030    0.6800 hc        1 ERU      0.049700
     62 H3         20.2770   -6.1350    2.9620 hc        1 ERU      0.074700
     63 H3A        20.7690   -4.5270    2.2970 hc        1 ERU      0.074700
     64 H2         21.0300   -5.5490    0.0020 hc        1 ERU      0.104700
     65 H2A        20.5360   -7.1700    0.6740 hc        1 ERU      0.104700
     66 HN         24.2680   -7.2900    0.6710 hn        1 ERU      0.467467
     67 HNA        23.3640   -6.5920   -0.5480 hn        1 ERU      0.467467
     68 HN3        22.9140   -8.0670    0.0780 hn        1 ERU      0.467467
@<TRIPOS>BOND
     1    1    2 1   
     2    1   25 1   
     3    1   26 1   
     4    1   27 1   
     5    2    3 1   
     6    2   28 1   
     7    2   29 1   
     8    3    4 1   
     9    3   30 1   
    10    3   31 1   
    11    4    5 1   
    12    4   32 1   
    13    4   33 1   
    14    5    6 1   
    15    5   34 1   
    16    5   35 1   
    17    6    7 1   
    18    6   36 1   
    19    6   37 1   
    20    7    8 1   
    21    7   38 1   
    22    7   39 1   
    23    8    9 1   
    24    8   40 1   
    25    8   41 1   
    26    9   10 2   
    27    9   42 1   
    28   10   11 1   
    29   10   43 1   
    30   11   12 1   
    31   11   44 1   
    32   11   45 1   
    33   12   13 1   
    34   12   46 1   
    35   12   47 1   
    36   13   14 1   
    37   13   48 1   
    38   13   49 1   
    39   14   15 1   
    40   14   50 1   
    41   14   51 1   
    42   15   16 1   
    43   15   52 1   
    44   15   53 1   
    45   16   17 1   
    46   16   54 1   
    47   16   55 1   
    48   17   18 1   
    49   17   56 1   
    50   17   57 1   
    51   18   19 1   
    52   18   58 1   
    53   18   59 1   
    54   19   20 1   
    55   19   60 1   
    56   19   61 1   
    57   20   21 1   
    58   20   62 1   
    59   20   63 1   
    60   21   22 1   
    61   21   64 1   
    62   21   65 1   
    63   22   23 2   
    64   22   24 1   
    65   24   66 1   
    66   24   67 1   
    67   24   68 1   
@<TRIPOS>SUBSTRUCTURE
     1 ERU         1 TEMP              0 ****  ****    0 ROOT
