@<TRIPOS>MOLECULE
ES0
   19    20     1     0     0
SMALL
bcc


@<TRIPOS>ATOM
      1 NAA        -0.0960   -0.0450    0.0490 n4        1 ES0     -0.746600
      2 OAB         4.8750    0.1860   -2.2680 oh        1 ES0     -0.499100
      3 CAC         5.7260    0.0340    1.3600 ca        1 ES0     -0.088000
      4 CAD         5.9010    0.1050   -0.0390 ca        1 ES0     -0.153000
      5 CAE         4.4800   -0.0250    1.9530 ca        1 ES0     -0.080000
      6 NAF         1.9830   -0.0600    1.4150 nc        1 ES0     -0.470100
      7 NAG         2.2480    0.0570   -0.8990 na        1 ES0     -0.227300
      8 CAH         1.3570   -0.0170    0.2000 cd        1 ES0      0.359700
      9 CAI         4.8100    0.1190   -0.8990 ca        1 ES0      0.131100
     10 CAJ         3.3460   -0.0120    1.1130 ca        1 ES0      0.089400
     11 CAK         3.5180    0.0610   -0.3290 ca        1 ES0     -0.055200
     12 HNAA       -0.3740   -0.8690   -0.4980 hn        1 ES0      0.480800
     13 HNAB       -0.4150    0.8130   -0.4180 hn        1 ES0      0.480800
     14 HOAB        5.8110    0.2210   -2.5270 ho        1 ES0      0.451000
     15 HAC         6.6280    0.0250    1.9950 ha        1 ES0      0.167000
     16 HAD         6.9220    0.1490   -0.4510 ha        1 ES0      0.165000
     17 HAE         4.3600   -0.0800    3.0460 ha        1 ES0      0.175000
     18 HNAG        2.0420    0.0980   -1.8660 hn        1 ES0      0.340700
     19 HAA3       -0.5240   -0.1000    0.9880 hn        1 ES0      0.480800
@<TRIPOS>BOND
     1    1    8 1   
     2    1   12 1   
     3    1   13 1   
     4    1   19 1   
     5    2    9 1   
     6    2   14 1   
     7    3    4 ar  
     8    3    5 ar  
     9    3   15 1   
    10    4    9 ar  
    11    4   16 1   
    12    5   10 ar  
    13    5   17 1   
    14    6    8 2   
    15    6   10 1   
    16    7    8 1   
    17    7   11 1   
    18    7   18 1   
    19    9   11 ar  
    20   10   11 ar  
@<TRIPOS>SUBSTRUCTURE
     1 ES0         1 TEMP              0 ****  ****    0 ROOT
