@<TRIPOS>MOLECULE
ES0
   18    19     1     0     0
SMALL
bcc


@<TRIPOS>ATOM
      1 NAA        -0.0750    0.0820   -0.0550 nh        1 ES0     -0.853800
      2 OAB         4.9090    0.0040   -2.2680 oh        1 ES0     -0.506100
      3 CAC         5.6970    0.1470    1.3620 ca        1 ES0     -0.107000
      4 CAD         5.8910    0.1040   -0.0270 ca        1 ES0     -0.211000
      5 CAE         4.4350    0.1360    1.9360 ca        1 ES0     -0.116000
      6 NAF         1.9420    0.0550    1.3810 nc        1 ES0     -0.613100
      7 NAG         2.2380   -0.0730   -0.9260 na        1 ES0     -0.273300
      8 CAH         1.3160    0.0100    0.1660 cd        1 ES0      0.583700
      9 CAI         4.8000    0.0440   -0.8960 ca        1 ES0      0.131100
     10 CAJ         3.3170    0.0820    1.0900 ca        1 ES0      0.121400
     11 CAK         3.5090    0.0300   -0.3460 ca        1 ES0     -0.111200
     12 HNAA       -0.3930   -0.5700   -0.7430 hn        1 ES0      0.402300
     13 HNAB       -0.5950    0.0140    0.7980 hn        1 ES0      0.402300
     14 HOAB        5.8520    0.0140   -2.4870 ho        1 ES0      0.424000
     15 HAC         6.5840    0.1910    2.0130 ha        1 ES0      0.133000
     16 HAD         6.9110    0.1200   -0.4350 ha        1 ES0      0.133000
     17 HAE         4.3030    0.1690    3.0260 ha        1 ES0      0.150000
     18 HNAG        2.0380    0.1490   -1.8660 hn        1 ES0      0.310700
@<TRIPOS>BOND
     1    1    8 1   
     2    1   12 1   
     3    1   13 1   
     4    2    9 1   
     5    2   14 1   
     6    3    4 ar  
     7    3    5 ar  
     8    3   15 1   
     9    4    9 ar  
    10    4   16 1   
    11    5   10 ar  
    12    5   17 1   
    13    6    8 2   
    14    6   10 1   
    15    7    8 1   
    16    7   11 1   
    17    7   18 1   
    18    9   11 ar  
    19   10   11 ar  
@<TRIPOS>SUBSTRUCTURE
     1 ES0         1 TEMP              0 ****  ****    0 ROOT
