@<TRIPOS>MOLECULE
ES0
   18    19     1     0     0
SMALL
bcc


@<TRIPOS>ATOM
      1 NAA        -0.0600   -0.2850   -0.0720 nv        1 ES0     -0.853800
      2 OAB         4.9030    0.2850   -2.2590 oh        1 ES0     -0.506100
      3 CAC         5.6970    0.0630    1.3660 ca        1 ES0     -0.107000
      4 CAD         5.8880    0.1760   -0.0200 ca        1 ES0     -0.211000
      5 CAE         4.4370   -0.0520    1.9350 ca        1 ES0     -0.116000
      6 NAF         1.9470   -0.1520    1.3730 nc        1 ES0     -0.613100
      7 NAG         2.2340    0.0910   -0.9260 na        1 ES0     -0.273300
      8 CAH         1.3200   -0.1100    0.1570 cd        1 ES0      0.583700
      9 CAI         4.7970    0.1820   -0.8900 ca        1 ES0      0.131100
     10 CAJ         3.3200   -0.0540    1.0860 ca        1 ES0      0.121400
     11 CAK         3.5080    0.0690   -0.3450 ca        1 ES0     -0.111200
     12 HNAA       -0.5850   -0.2930    0.7800 hn        1 ES0      0.402300
     13 HNAB       -0.4290    0.3650   -0.7350 hn        1 ES0      0.402300
     14 HOAB        5.8440    0.3610   -2.4740 ho        1 ES0      0.424000
     15 HAC         6.5840    0.0650    2.0180 ha        1 ES0      0.133000
     16 HAD         6.9060    0.2590   -0.4240 ha        1 ES0      0.133000
     17 HAE         4.3070   -0.1380    3.0220 ha        1 ES0      0.150000
     18 HNAG        2.0540   -0.1090   -1.8750 hn        1 ES0      0.310700
@<TRIPOS>BOND
     1    1    8 1   
     2    1   12 1   
     3    1   13 1   
     4    2    9 1   
     5    2   14 1   
     6    3    4 ar  
     7    3    5 ar  
     8    3   15 1   
     9    4    9 ar  
    10    4   16 1   
    11    5   10 ar  
    12    5   17 1   
    13    6    8 2   
    14    6   10 1   
    15    7    8 1   
    16    7   11 1   
    17    7   18 1   
    18    9   11 ar  
    19   10   11 ar  
@<TRIPOS>SUBSTRUCTURE
     1 ES0         1 TEMP              0 ****  ****    0 ROOT
