@<TRIPOS>MOLECULE
ES0
   18    15     1     0     0
SMALL
bcc


@<TRIPOS>ATOM
      1 NAA        -3.5360    0.0100   -0.0580 nh        1 ES0     -0.853800
      2 OAB         1.6920    0.2990   -2.2610 oh        1 ES0     -0.489600
      3 CAC         2.2350    0.0100    1.3120 c1        1 ES0     -0.101500
      4 CAD         2.4440    0.0100   -0.0580 c1        1 ES0     -0.101500
      5 CAE         0.9440    0.0100    1.8160 c1        1 ES0     -0.058500
      6 NAF        -1.4930    0.0100    1.1550 n2        1 ES0     -0.394000
      7 NAG        -1.1620    0.0100   -1.0200 ne        1 ES0     -0.569700
      8 CAH        -2.1170    0.0100   -0.0520 cf        1 ES0      0.697100
      9 CAI         1.3620    0.0100   -0.9240 c1        1 ES0      0.114600
     10 CAJ        -0.1550    0.0100    0.9370 cg        1 ES0      0.037800
     11 CAK         0.0500    0.0100   -0.4120 cg        1 ES0     -0.014000
     12 HNAA       -3.9920    0.7710    0.1510 hn        1 ES0      0.402300
     13 HNAB       -3.9910   -0.7520   -0.2670 hn        1 ES0      0.402300
     14 HOAB        1.8820   -0.4560   -2.6880 ho        1 ES0      0.424000
     15 HAC         2.9970    0.0100    1.9210 ha        1 ES0      0.075500
     16 HAD         3.3530    0.0100   -0.4130 ha        1 ES0      0.075500
     17 HAE         0.7970    0.0100    2.7810 ha        1 ES0      0.092500
     18 HNAG       -1.3110    0.0110   -1.9190 DU        1 ES0      0.260000
@<TRIPOS>BOND
     1    1    8 1   
     2    1   12 1   
     3    1   13 1   
     4    2    9 1   
     5    2   14 1   
     6    3    4 3   
     7    3   15 1   
     8    4   16 1   
     9    5   10 3   
    10    5   17 1   
    11    6    8 1   
    12    6   10 1   
    13    7    8 2   
    14    7   11 1   
    15    9   11 3   
@<TRIPOS>SUBSTRUCTURE
     1 ES0         1 TEMP              0 ****  ****    0 ROOT
