@<TRIPOS>MOLECULE
ES0
   18    19     1     0     0
SMALL
bcc


@<TRIPOS>ATOM
      1 NAA         3.5290   -0.2870   -0.0980 nh        1 ES0     -0.853800
      2 OAB        -1.5500   -2.2700   -0.2220 oh        1 ES0     -0.506100
      3 CAC        -2.1730    1.3900   -0.0370 ca        1 ES0     -0.107000
      4 CAD        -2.4290    0.0130   -0.1200 ca        1 ES0     -0.211000
      5 CAE        -0.8860    1.9030    0.0260 ca        1 ES0     -0.116000
      6 NAF         1.5790    1.2310    0.0580 nc        1 ES0     -0.613100
      7 NAG         1.1790   -1.0630   -0.0240 na        1 ES0     -0.273300
      8 CAH         2.1500   -0.0110   -0.0070 cd        1 ES0      0.583700
      9 CAI        -1.3790   -0.9060   -0.1380 ca        1 ES0      0.131100
     10 CAJ         0.1920    1.0050    0.0050 ca        1 ES0      0.121400
     11 CAK        -0.0650   -0.4190   -0.0740 ca        1 ES0     -0.111200
     12 HNAA        4.0870    0.5310    0.0480 hn        1 ES0      0.402300
     13 HNAB        3.8130   -1.0450    0.4890 hn        1 ES0      0.402300
     14 HOAB       -2.5020   -2.4440   -0.2520 ho        1 ES0      0.424000
     15 HAC        -3.0290    2.0820   -0.0230 ha        1 ES0      0.133000
     16 HAD        -3.4660   -0.3460   -0.1730 ha        1 ES0      0.133000
     17 HAE        -0.7040    2.9850    0.0920 ha        1 ES0      0.150000
     18 HNAG        1.3370   -1.9870   -0.3290 hn        1 ES0      0.309700
@<TRIPOS>BOND
     1    1    8 1   
     2    1   12 1   
     3    1   13 1   
     4    2    9 1   
     5    2   14 1   
     6    3    4 ar  
     7    3    5 ar  
     8    3   15 1   
     9    4    9 ar  
    10    4   16 1   
    11    5   10 ar  
    12    5   17 1   
    13    6    8 2   
    14    6   10 1   
    15    7    8 1   
    16    7   11 1   
    17    7   18 1   
    18    9   11 ar  
    19   10   11 ar  
@<TRIPOS>SUBSTRUCTURE
     1 ES0         1 TEMP              0 ****  ****    0 ROOT
