@<TRIPOS>MOLECULE
ES1
   18    19     1     0     0
SMALL
bcc


@<TRIPOS>ATOM
      1 O01         1.9940    1.9440   -0.1460 oh        1 ES1     -0.490100
      2 CAD         2.3350   -0.3710   -0.0440 ca        1 ES1     -0.293300
      3 CAE         1.8000   -1.6880    0.0200 ca        1 ES1      0.441200
      4 CAF         1.4440    0.6890   -0.0850 ca        1 ES1      0.167100
      5 CAG        -2.2850    1.1620   -0.0750 ca        1 ES1     -0.126000
      6 NAH         0.5090   -1.9760    0.0440 nb        1 ES1     -0.682000
      7 CAI        -0.9470    1.4670   -0.1000 ca        1 ES1     -0.117000
      8 CAJ        -1.7930   -1.2060    0.0280 ca        1 ES1     -0.166300
      9 CAK        -2.7080   -0.1860   -0.0110 ca        1 ES1     -0.118000
     10 CAL         0.0320    0.4420   -0.0620 ca        1 ES1     -0.199300
     11 CAM        -0.3870   -0.9260    0.0040 ca        1 ES1      0.421600
     12 HO01        1.2840    2.5990   -0.1700 ho        1 ES1      0.425000
     13 HAE         2.4910   -2.5520    0.0540 h4        1 ES1      0.025100
     14 HAG        -3.0420    1.9600   -0.1050 ha        1 ES1      0.137000
     15 HAI        -0.6360    2.5210   -0.1500 ha        1 ES1      0.122000
     16 HAJ        -2.1220   -2.2570    0.0780 ha        1 ES1      0.154000
     17 HAK        -3.7870   -0.4050    0.0080 ha        1 ES1      0.138000
     18 HAD         3.4190   -0.2050   -0.0600 ha        1 ES1      0.161000
@<TRIPOS>BOND
     1    1    4 1   
     2    1   12 1   
     3    2    3 ar  
     4    2    4 ar  
     5    2   18 1   
     6    3    6 ar  
     7    3   13 1   
     8    4   10 ar  
     9    5    7 ar  
    10    5    9 ar  
    11    5   14 1   
    12    6   11 ar  
    13    7   10 ar  
    14    7   15 1   
    15    8    9 ar  
    16    8   11 ar  
    17    8   16 1   
    18    9   17 1   
    19   10   11 ar  
@<TRIPOS>SUBSTRUCTURE
     1 ES1         1 TEMP              0 ****  ****    0 ROOT
