@<TRIPOS>MOLECULE
ES1
   18    19     1     0     0
SMALL
bcc


@<TRIPOS>ATOM
      1 O01        -0.0690   -0.1800    0.0840 oh        1 ES1     -0.490100
      2 CAD         2.3520   -0.1070   -0.0320 ca        1 ES1     -0.357300
      3 CAE         3.5690   -0.0400    0.7110 ca        1 ES1      0.446200
      4 CAF         1.1660   -0.1180    0.6760 ca        1 ES1      0.178100
      5 CAG         0.0740   -0.0200    4.2600 ca        1 ES1     -0.141000
      6 NAH         3.6450    0.0120    2.0280 nb        1 ES1     -0.680000
      7 CAI         0.0000   -0.0730    2.8890 ca        1 ES1     -0.087000
      8 CAJ         2.4980    0.0550    4.1760 ca        1 ES1     -0.177300
      9 CAK         1.3320    0.0450    4.9020 ca        1 ES1     -0.112000
     10 CAL         1.1830   -0.0640    2.1100 ca        1 ES1     -0.164300
     11 CAM         2.4620    0.0010    2.7460 ca        1 ES1      0.416600
     12 HO01        0.0600   -0.2120   -0.8770 ho        1 ES1      0.427000
     13 HAE         4.5310   -0.0290    0.1660 h4        1 ES1      0.022100
     14 HAG        -0.8410   -0.0260    4.8700 ha        1 ES1      0.136000
     15 HAI        -0.9690   -0.1240    2.3680 ha        1 ES1      0.149000
     16 HAJ         3.4750    0.1050    4.6810 ha        1 ES1      0.151000
     17 HAK         1.3660    0.0870    6.0010 ha        1 ES1      0.135000
     18 HAD         2.3790   -0.1470   -1.1270 ha        1 ES1      0.145000
@<TRIPOS>BOND
     1    1    4 1   
     2    1   12 1   
     3    2    3 ar  
     4    2    4 ar  
     5    2   18 1   
     6    3    6 ar  
     7    3   13 1   
     8    4   10 ar  
     9    5    7 ar  
    10    5    9 ar  
    11    5   14 1   
    12    6   11 ar  
    13    7   10 ar  
    14    7   15 1   
    15    8    9 ar  
    16    8   11 ar  
    17    8   16 1   
    18    9   17 1   
    19   10   11 ar  
@<TRIPOS>SUBSTRUCTURE
     1 ES1         1 TEMP              0 ****  ****    0 ROOT
