@<TRIPOS>MOLECULE
ES1
   18    14     1     0     0
SMALL
bcc


@<TRIPOS>ATOM
      1 O01        -1.4670    1.1840   -1.9080 oh        1 ES1     -0.244000
      2 CAD         0.8570    1.1840   -1.9080 c1        1 ES1     -0.141000
      3 CAE         2.0040    1.1840   -1.1200 c1        1 ES1     -0.141000
      4 CAF        -0.2820    0.5740   -1.4580 c1        1 ES1      0.133000
      5 CAG        -1.4710   -1.2920    1.4930 c1        1 ES1     -0.141000
      6 NAH         1.9940    0.5750    0.1020 n1        1 ES1     -0.154000
      7 CAI        -1.4630   -0.6730    0.2500 c1        1 ES1     -0.087000
      8 CAJ         0.8330   -0.6710    1.8210 c1        1 ES1     -0.112000
      9 CAK        -0.3230   -1.2910    2.2790 c1        1 ES1     -0.141000
     10 CAL        -0.2920   -0.0440   -0.2160 c1        1 ES1     -0.099000
     11 CAM         0.8420   -0.0430    0.5600 c1        1 ES1      0.023000
     12 HO01       -1.6720    0.8730   -2.7140 ho        1 ES1      0.226000
     13 HAD         0.8650    1.6190   -2.7810 ha        1 ES1      0.143750
     14 HAE         2.8160    1.6190   -1.4410 ha        1 ES1      0.143750
     15 HAG        -2.2830   -1.7280    1.8160 ha        1 ES1      0.143750
     16 HAI        -2.2680   -0.6750   -0.3020 ha        1 ES1      0.149000
     17 HAJ         1.6380   -0.6700    2.3730 ha        1 ES1      0.151000
     18 HAK        -0.3290   -1.7260    3.1530 ha        1 ES1      0.143750
@<TRIPOS>BOND
     1    1    4 1   
     2    1   12 1   
     3    2    3 1   
     4    2   13 1   
     5    3   14 1   
     6    4   10 1   
     7    5    9 1   
     8    5   15 1   
     9    6   11 1   
    10    7   10 1   
    11    7   16 1   
    12    8   11 1   
    13    8   17 1   
    14    9   18 1   
@<TRIPOS>SUBSTRUCTURE
     1 ES1         1 TEMP              0 ****  ****    0 ROOT
