@<TRIPOS>MOLECULE
ES2
   17    18     1     0     0
SMALL
bcc


@<TRIPOS>ATOM
      1 C10         0.5590    0.4770   -0.0010 ca        1 ES2      0.070600
      2 CL01       -3.3920    0.5410   -0.0030 cl        1 ES2     -0.089400
      3 C02        -1.7810   -0.0040   -0.0020 ca        1 ES2      0.054400
      4 C03        -1.5220   -1.3740    0.0000 ca        1 ES2     -0.158000
      5 C04        -0.2000   -1.8440    0.0010 ca        1 ES2     -0.069000
      6 C05         0.8350   -0.9340    0.0010 ca        1 ES2     -0.149300
      7 C06         2.3190   -1.1290    0.0020 c3        1 ES2     -0.102100
      8 C07         2.8570    0.3130    0.0000 c         1 ES2      0.700500
      9 O08         4.0360    0.6750    0.0000 o         1 ES2     -0.596500
     10 N09         1.7620    1.2010   -0.0010 n         1 ES2     -0.482100
     11 C11        -0.7500    0.9500   -0.0020 ca        1 ES2     -0.166000
     12 H03        -2.3520   -2.0960    0.0010 ha        1 ES2      0.151000
     13 H04        -0.0020   -2.9250    0.0030 ha        1 ES2      0.144000
     14 H06         2.6800   -1.6650    0.9130 hc        1 ES2      0.096700
     15 H06A        2.6810   -1.6670   -0.9090 hc        1 ES2      0.096700
     16 HN09        1.8210    2.1850   -0.0020 hn        1 ES2      0.343500
     17 H11        -0.9760    2.0250   -0.0030 ha        1 ES2      0.156000
@<TRIPOS>BOND
     1    1    6 ar  
     2    1   10 1   
     3    1   11 ar  
     4    2    3 1   
     5    3    4 ar  
     6    3   11 ar  
     7    4    5 ar  
     8    4   12 1   
     9    5    6 ar  
    10    5   13 1   
    11    6    7 1   
    12    7    8 1   
    13    7   14 1   
    14    7   15 1   
    15    8    9 2   
    16    8   10 1   
    17   10   16 1   
    18   11   17 1   
@<TRIPOS>SUBSTRUCTURE
     1 ES2         1 TEMP              0 ****  ****    0 ROOT
