@<TRIPOS>MOLECULE
ES2
   17    16     1     0     0
SMALL
bcc


@<TRIPOS>ATOM
      1 C10        -0.7420    0.0210    0.1980 c1        1 ES2      0.078000
      2 CL01       -1.6010   -0.1400   -3.7280 cl        1 ES2     -0.011000
      3 C02        -0.7460    0.0210   -2.2170 c2        1 ES2     -0.024000
      4 C03         0.6500    0.0210   -2.2170 c2        1 ES2     -0.158000
      5 C04         1.3460    0.0210   -1.0130 c1        1 ES2     -0.069000
      6 C05         0.6480    0.0210    0.1980 c1        1 ES2     -0.142000
      7 C06         1.1180    0.0210    1.6450 c3        1 ES2     -0.138000
      8 C07        -0.1520    0.0210    2.4330 c2        1 ES2      0.308000
      9 O08        -0.2410    0.0430    3.6440 o         1 ES2     -0.321000
     10 N09        -1.1920    0.0210    1.5800 n2        1 ES2     -0.336000
     11 C11        -1.4410    0.0210   -1.0140 c2        1 ES2     -0.166000
     12 H03         1.1380    0.0210   -3.0630 ha        1 ES2      0.151000
     13 H04         2.3220    0.0210   -1.0130 ha        1 ES2      0.144000
     14 H06         1.7810    0.6520    1.9840 hc        1 ES2      0.136000
     15 H06A        1.5980   -0.8210    1.7610 hc        1 ES2      0.136000
     16 HN09       -2.0670    0.0210    1.8360 hn        1 ES2      0.257000
     17 H11        -2.4170    0.0150   -1.0140 ha        1 ES2      0.156000
@<TRIPOS>BOND
     1    1    6 1   
     2    1   11 1   
     3    2    3 1   
     4    3    4 1   
     5    3   11 1   
     6    4    5 1   
     7    4   12 1   
     8    5   13 1   
     9    6    7 1   
    10    7    8 1   
    11    7   14 1   
    12    7   15 1   
    13    8    9 1   
    14    8   10 1   
    15   10   16 1   
    16   11   17 1   
@<TRIPOS>SUBSTRUCTURE
     1 ES2         1 TEMP              0 ****  ****    0 ROOT
