@<TRIPOS>MOLECULE
ES2
   17    18     1     0     0
SMALL
bcc


@<TRIPOS>ATOM
      1 C10        -0.0370   -0.0020   -0.0160 ca        1 ES2      0.070600
      2 CL01       -0.7940    0.0020   -3.8950 cl        1 ES2     -0.089400
      3 C02         0.0260    0.0020   -2.4040 ca        1 ES2      0.054400
      4 C03         1.4210    0.0080   -2.3900 ca        1 ES2     -0.158000
      5 C04         2.1150    0.0090   -1.1700 ca        1 ES2     -0.069000
      6 C05         1.4000    0.0030    0.0080 ca        1 ES2     -0.149300
      7 C06         1.8520    0.0030    1.4340 c3        1 ES2     -0.102100
      8 C07         0.5280   -0.0040    2.2170 c         1 ES2      0.700500
      9 O08         0.3780   -0.0070    3.4420 o         1 ES2     -0.596500
     10 N09        -0.5380   -0.0070    1.2950 n         1 ES2     -0.482100
     11 C11        -0.7330   -0.0030   -1.2220 ca        1 ES2     -0.166000
     12 H03         1.9850    0.0120   -3.3340 ha        1 ES2      0.151000
     13 H04         3.2140    0.0130   -1.1650 ha        1 ES2      0.144000
     14 H06         2.4410    0.9160    1.6980 hc        1 ES2      0.096700
     15 H06A        2.4490   -0.9060    1.6940 hc        1 ES2      0.096700
     16 HN09       -1.4970   -0.0110    1.5260 hn        1 ES2      0.343500
     17 H11        -1.8310   -0.0080   -1.2560 ha        1 ES2      0.156000
@<TRIPOS>BOND
     1    1    6 ar  
     2    1   10 1   
     3    1   11 ar  
     4    2    3 1   
     5    3    4 ar  
     6    3   11 ar  
     7    4    5 ar  
     8    4   12 1   
     9    5    6 ar  
    10    5   13 1   
    11    6    7 1   
    12    7    8 1   
    13    7   14 1   
    14    7   15 1   
    15    8    9 2   
    16    8   10 1   
    17   10   16 1   
    18   11   17 1   
@<TRIPOS>SUBSTRUCTURE
     1 ES2         1 TEMP              0 ****  ****    0 ROOT
