@<TRIPOS>MOLECULE
ES2
   17    18     1     0     0
SMALL
bcc


@<TRIPOS>ATOM
      1 C10        -0.0300   -0.0020   -0.0120 ca        1 ES2      0.070600
      2 CL01       -0.7890   -0.0020   -3.8900 cl        1 ES2     -0.089400
      3 C02         0.0320    0.0010   -2.4000 ca        1 ES2      0.054400
      4 C03         1.4260    0.0060   -2.3860 ca        1 ES2     -0.158000
      5 C04         2.1210    0.0080   -1.1680 ca        1 ES2     -0.069000
      6 C05         1.4070    0.0040    0.0110 ca        1 ES2     -0.149300
      7 C06         1.8610    0.0040    1.4370 c3        1 ES2     -0.102100
      8 C07         0.5370   -0.0010    2.2210 c         1 ES2      0.700500
      9 O08         0.3880   -0.0030    3.4460 o         1 ES2     -0.596500
     10 N09        -0.5300   -0.0050    1.2990 n         1 ES2     -0.482100
     11 C11        -0.7260   -0.0040   -1.2170 ca        1 ES2     -0.166000
     12 H03         1.9900    0.0090   -3.3310 ha        1 ES2      0.151000
     13 H04         3.2210    0.0120   -1.1640 ha        1 ES2      0.144000
     14 H06         2.4570   -0.9040    1.6980 hc        1 ES2      0.096700
     15 H06A        2.4500    0.9180    1.6990 hc        1 ES2      0.096700
     16 HN09       -1.4880   -0.0090    1.5320 hn        1 ES2      0.343500
     17 H11        -1.8240   -0.0080   -1.2500 ha        1 ES2      0.156000
@<TRIPOS>BOND
     1    1    6 ar  
     2    1   10 1   
     3    1   11 ar  
     4    2    3 1   
     5    3    4 ar  
     6    3   11 ar  
     7    4    5 ar  
     8    4   12 1   
     9    5    6 ar  
    10    5   13 1   
    11    6    7 1   
    12    7    8 1   
    13    7   14 1   
    14    7   15 1   
    15    8    9 2   
    16    8   10 1   
    17   10   16 1   
    18   11   17 1   
@<TRIPOS>SUBSTRUCTURE
     1 ES2         1 TEMP              0 ****  ****    0 ROOT
