@<TRIPOS>MOLECULE
ES3
    9     9     1     0     0
SMALL
bcc


@<TRIPOS>ATOM
      1 Br01        0.0110   -0.0030   -0.0470 br        1 ES3     -0.110200
      2 C02         1.8500   -0.0020   -0.0110 cc        1 ES3      0.327500
      3 C03         2.6750    0.0010    1.1350 cd        1 ES3     -0.215600
      4 N04         3.9850   -0.0000    0.6670 na        1 ES3     -0.316900
      5 C05         3.9170   -0.0030   -0.7340 cd        1 ES3      0.389400
      6 N06         2.6400   -0.0040   -1.1660 nc        1 ES3     -0.633000
      7 H03         2.4230    0.0030    2.1940 h4        1 ES3      0.188000
      8 HN04        4.8000    0.0010    1.2190 hn        1 ES3      0.305700
      9 H05         4.8070   -0.0040   -1.3710 h5        1 ES3      0.066100
@<TRIPOS>BOND
     1    1    2 1   
     2    2    3 2   
     3    2    6 1   
     4    3    4 1   
     5    3    7 1   
     6    4    5 1   
     7    4    8 1   
     8    5    6 2   
     9    5    9 1   
@<TRIPOS>SUBSTRUCTURE
     1 ES3         1 TEMP              0 ****  ****    0 ROOT
