@<TRIPOS>MOLECULE
ES3
    9     9     1     0     0
SMALL
bcc


@<TRIPOS>ATOM
      1 BR01       -1.4030   -0.0490    0.0010 br        1 ES3     -0.110200
      2 C02         0.4360   -0.0150    0.0000 cc        1 ES3      0.327500
      3 C03         1.2620    1.1310    0.0010 cd        1 ES3     -0.215600
      4 N04         2.5710    0.6610   -0.0000 na        1 ES3     -0.316900
      5 C05         2.5030   -0.7390   -0.0010 cd        1 ES3      0.389400
      6 N06         1.2250   -1.1710   -0.0010 nc        1 ES3     -0.633000
      7 H03         1.0110    2.1900    0.0020 h4        1 ES3      0.188000
      8 HN04        3.3870    1.2130   -0.0000 hn        1 ES3      0.305700
      9 H05         3.3920   -1.3770   -0.0020 h5        1 ES3      0.066100
@<TRIPOS>BOND
     1    1    2 1   
     2    2    3 2   
     3    2    6 1   
     4    3    4 1   
     5    3    7 1   
     6    4    5 1   
     7    4    8 1   
     8    5    6 2   
     9    5    9 1   
@<TRIPOS>SUBSTRUCTURE
     1 ES3         1 TEMP              0 ****  ****    0 ROOT
