@<TRIPOS>MOLECULE
ES3
    9     6     1     0     0
SMALL
bcc


@<TRIPOS>ATOM
      1 BR01       -3.0240    0.0000   -0.2320 br        1 ES3     -0.004700
      2 C02        -1.1120    0.0000   -0.2320 ce        1 ES3     -0.028800
      3 C03        -0.3070    0.0000    0.8750 c1        1 ES3     -0.062900
      4 N04         0.9630   -0.0000    0.4620 n1        1 ES3     -0.203000
      5 C05         0.9620   -0.0000   -0.8940 c1        1 ES3      0.121400
      6 N06        -0.3260   -0.0000   -1.3130 ne        1 ES3     -0.468000
      7 H03        -0.6090    0.0000    1.8040 DU        1 ES3      0.215667
      8 HN04        1.7010    0.0000    0.9970 DU        1 ES3      0.215667
      9 H05         1.7520   -0.0000   -1.4670 DU        1 ES3      0.215667
@<TRIPOS>BOND
     1    1    2 1   
     2    2    3 2   
     3    2    6 1   
     4    3    4 2   
     5    4    5 2   
     6    5    6 2   
@<TRIPOS>SUBSTRUCTURE
     1 ES3         1 TEMP              0 ****  ****    0 ROOT
