@<TRIPOS>MOLECULE
ES4
   13    14     1     0     0
SMALL
bcc


@<TRIPOS>ATOM
      1 C10         0.2420   -0.4340   -0.0000 ca        1 ES4     -0.158200
      2 CL01       -2.4290   -0.7720    0.0010 cl        1 ES4     -0.106000
      3 C02        -1.0290    0.1890    0.0000 ca        1 ES4      0.582300
      4 N03        -1.1360    1.5330    0.0010 nb        1 ES4     -0.706000
      5 C04         0.0240    2.2610    0.0010 ca        1 ES4      0.655900
      6 N05         1.3040    1.8270    0.0000 nb        1 ES4     -0.684000
      7 C06         1.4050    0.4660   -0.0000 ca        1 ES4      0.425800
      8 N07         2.5220   -0.3750   -0.0010 na        1 ES4     -0.378000
      9 C08         2.0190   -1.6940   -0.0010 cc        1 ES4      0.422700
     10 N09         0.6780   -1.7660   -0.0000 nd        1 ES4     -0.522100
     11 H04        -0.1140    3.3640    0.0010 h5        1 ES4      0.064100
     12 HN07        3.4670   -0.0920   -0.0010 hn        1 ES4      0.323700
     13 H08         2.6960   -2.5590   -0.0010 h5        1 ES4      0.079800
@<TRIPOS>BOND
     1    1    3 ar  
     2    1    7 ar  
     3    1   10 1   
     4    2    3 1   
     5    3    4 ar  
     6    4    5 ar  
     7    5    6 ar  
     8    5   11 1   
     9    6    7 ar  
    10    7    8 1   
    11    8    9 1   
    12    8   12 1   
    13    9   10 2   
    14    9   13 1   
@<TRIPOS>SUBSTRUCTURE
     1 ES4         1 TEMP              0 ****  ****    0 ROOT
