@<TRIPOS>MOLECULE
ES5
   19    20     1     0     0
SMALL
bcc


@<TRIPOS>ATOM
      1 C10        -0.0060    0.0500   -0.0080 ca        1 ES5     -0.104300
      2 N01        -0.6800    0.1520   -3.6700 nv        1 ES5     -0.820200
      3 C02        -0.0150    0.0290   -2.4470 ca        1 ES5      0.145600
      4 C03         1.4170   -0.0690   -2.4220 ca        1 ES5     -0.166000
      5 C04         2.1060   -0.1020   -1.2410 ca        1 ES5     -0.132300
      6 C05         1.4190   -0.0430    0.0140 ca        1 ES5      0.357600
      7 N06         2.1350   -0.0790    1.1960 nb        1 ES5     -0.647000
      8 C07         1.4570   -0.0210    2.3270 ca        1 ES5      0.394200
      9 C08         0.0310    0.0750    2.4080 ca        1 ES5     -0.239300
     10 C09        -0.6910    0.1100    1.2430 ca        1 ES5     -0.094000
     11 C11        -0.7020    0.0790   -1.2360 ca        1 ES5     -0.197000
     12 HN01       -1.6460   -0.0880   -3.6420 hn        1 ES5      0.392300
     13 HN0A       -0.1960   -0.2400   -4.4460 hn        1 ES5      0.392300
     14 H03         1.9680   -0.1090   -3.3760 ha        1 ES5      0.135000
     15 H04         3.2060   -0.1740   -1.2410 ha        1 ES5      0.150000
     16 H07         2.0540   -0.0510    3.2570 h4        1 ES5      0.020100
     17 H08        -0.4510    0.1190    3.3930 ha        1 ES5      0.142000
     18 H09        -1.7880    0.1840    1.2470 ha        1 ES5      0.137000
     19 H11        -1.8000    0.1510   -1.2110 ha        1 ES5      0.134000
@<TRIPOS>BOND
     1    1    6 ar  
     2    1   10 ar  
     3    1   11 ar  
     4    2    3 1   
     5    2   12 1   
     6    2   13 1   
     7    3    4 ar  
     8    3   11 ar  
     9    4    5 ar  
    10    4   14 1   
    11    5    6 ar  
    12    5   15 1   
    13    6    7 ar  
    14    7    8 ar  
    15    8    9 ar  
    16    8   16 1   
    17    9   10 ar  
    18    9   17 1   
    19   10   18 1   
    20   11   19 1   
@<TRIPOS>SUBSTRUCTURE
     1 ES5         1 TEMP              0 ****  ****    0 ROOT
