@<TRIPOS>MOLECULE
ES5
   19    20     1     0     0
SMALL
bcc


@<TRIPOS>ATOM
      1 C10         0.2790    0.6340    0.0160 ca        1 ES5     -0.104300
      2 N01        -3.4430    0.6650    0.1620 nh        1 ES5     -0.820200
      3 C02        -2.1240    0.2170    0.0500 ca        1 ES5      0.145600
      4 C03        -1.8500   -1.1920    0.0310 ca        1 ES5     -0.166000
      5 C04        -0.5670   -1.6650    0.0110 ca        1 ES5     -0.132300
      6 C05         0.5480   -0.7680    0.0020 ca        1 ES5      0.357600
      7 N06         1.8370   -1.2680   -0.0200 nb        1 ES5     -0.647000
      8 C07         2.8330   -0.4010   -0.0260 ca        1 ES5      0.394200
      9 C08         2.6640    1.0200   -0.0110 ca        1 ES5     -0.239300
     10 C09         1.3910    1.5280    0.0090 ca        1 ES5     -0.094000
     11 C11        -1.0520    1.1060    0.0330 ca        1 ES5     -0.197000
     12 HN01       -4.1270    0.0310   -0.1850 hn        1 ES5      0.392300
     13 HN0A       -3.5880    1.6050   -0.1310 hn        1 ES5      0.392300
     14 H03        -2.6930   -1.9010    0.0430 ha        1 ES5      0.135000
     15 H04        -0.3760   -2.7510   -0.0000 ha        1 ES5      0.150000
     16 H07         3.8530   -0.8290   -0.0430 h4        1 ES5      0.020100
     17 H08         3.5500    1.6680   -0.0170 ha        1 ES5      0.142000
     18 H09         1.2040    2.6120    0.0220 ha        1 ES5      0.137000
     19 H11        -1.2180    2.1940    0.0440 ha        1 ES5      0.134000
@<TRIPOS>BOND
     1    1    6 ar  
     2    1   10 ar  
     3    1   11 ar  
     4    2    3 1   
     5    2   12 1   
     6    2   13 1   
     7    3    4 ar  
     8    3   11 ar  
     9    4    5 ar  
    10    4   14 1   
    11    5    6 ar  
    12    5   15 1   
    13    6    7 ar  
    14    7    8 ar  
    15    8    9 ar  
    16    8   16 1   
    17    9   10 ar  
    18    9   17 1   
    19   10   18 1   
    20   11   19 1   
@<TRIPOS>SUBSTRUCTURE
     1 ES5         1 TEMP              0 ****  ****    0 ROOT
