@<TRIPOS>MOLECULE
ES5
   19    17     1     0     0
SMALL
bcc


@<TRIPOS>ATOM
      1 C10        -0.3890    0.0170    0.5250 c1        1 ES5     -0.039000
      2 N01        -1.0680   -0.0600   -3.1450 n3        1 ES5     -0.329000
      3 C02        -0.3970    0.0170   -1.8970 c2        1 ES5      0.064000
      4 C03         0.9940    0.0170   -1.8970 c2        1 ES5     -0.166000
      5 C04         1.6890    0.0170   -0.6950 c1        1 ES5     -0.067000
      6 C05         0.9860    0.0170    0.5250 c1        1 ES5     -0.036000
      7 N06         1.6780    0.0170    1.7250 n2        1 ES5     -0.121000
      8 C07         0.9970    0.0170    2.9080 c1        1 ES5     -0.071000
      9 C08        -0.3950    0.0170    2.9110 c1        1 ES5     -0.134000
     10 C09        -1.0810    0.0170    1.7270 c1        1 ES5     -0.134000
     11 C11        -1.0920    0.0170   -0.6950 c2        1 ES5     -0.197000
     12 HN01       -1.1280    0.6790   -3.6760 hn        1 ES5      0.187500
     13 HN0A       -1.4250   -0.8520   -3.4230 hn        1 ES5      0.187500
     14 H03         1.4820    0.0190   -2.7430 ha        1 ES5      0.135000
     15 H04         2.6660    0.0170   -0.6950 ha        1 ES5      0.150000
     16 H07         1.4860    0.0170    3.7530 ha        1 ES5      0.157000
     17 H08        -0.8810    0.0170    3.7570 ha        1 ES5      0.139500
     18 H09        -2.0570    0.0170    1.7290 ha        1 ES5      0.139500
     19 H11        -2.0670   -0.0230   -0.6950 ha        1 ES5      0.134000
@<TRIPOS>BOND
     1    1    6 1   
     2    1   11 1   
     3    2    3 1   
     4    2   12 1   
     5    2   13 1   
     6    3    4 1   
     7    3   11 1   
     8    4    5 1   
     9    4   14 1   
    10    5   15 1   
    11    6    7 1   
    12    7    8 1   
    13    8   16 1   
    14    9   10 1   
    15    9   17 1   
    16   10   18 1   
    17   11   19 1   
@<TRIPOS>SUBSTRUCTURE
     1 ES5         1 TEMP              0 ****  ****    0 ROOT
