@<TRIPOS>MOLECULE
ES5
   20    21     1     0     0
SMALL
bcc


@<TRIPOS>ATOM
      1 C10        -0.0020    0.0350    0.0250 ca        1 ES5     -0.156300
      2 N01        -0.7290    0.0460   -3.6680 n4        1 ES5     -0.698000
      3 C02        -0.0160    0.0160   -2.3910 ca        1 ES5     -0.083400
      4 C03         1.4070   -0.0630   -2.4170 ca        1 ES5     -0.136000
      5 C04         2.1070   -0.0930   -1.2390 ca        1 ES5     -0.110300
      6 C05         1.4260   -0.0450    0.0220 ca        1 ES5      0.430600
      7 N06         2.1580   -0.0760    1.1920 nb        1 ES5     -0.645000
      8 C07         1.4960   -0.0300    2.3360 ca        1 ES5      0.459200
      9 C08         0.0680    0.0500    2.4380 ca        1 ES5     -0.214300
     10 C09        -0.6730    0.0820    1.2850 ca        1 ES5     -0.076000
     11 C11        -0.7150    0.0650   -1.1950 ca        1 ES5     -0.047000
     12 HN01       -0.4220    0.8620   -4.2110 hn        1 ES5      0.462800
     13 HN0A       -0.5150   -0.8080   -4.1980 hn        1 ES5      0.462800
     14 H03         1.9470   -0.1010   -3.3770 ha        1 ES5      0.157000
     15 H04         3.2110   -0.1550   -1.2490 ha        1 ES5      0.189000
     16 H07         2.1140   -0.0580    3.2580 h4        1 ES5      0.055100
     17 H08        -0.4010    0.0840    3.4330 ha        1 ES5      0.174000
     18 H09        -1.7720    0.1440    1.3090 ha        1 ES5      0.156000
     19 H11        -1.8160    0.1270   -1.1570 ha        1 ES5      0.155000
     20 H013       -1.7410    0.1030   -3.5130 hn        1 ES5      0.462800
@<TRIPOS>BOND
     1    1    6 ar  
     2    1   10 ar  
     3    1   11 ar  
     4    2    3 1   
     5    2   12 1   
     6    2   13 1   
     7    2   20 1   
     8    3    4 ar  
     9    3   11 ar  
    10    4    5 ar  
    11    4   14 1   
    12    5    6 ar  
    13    5   15 1   
    14    6    7 ar  
    15    7    8 ar  
    16    8    9 ar  
    17    8   16 1   
    18    9   10 ar  
    19    9   17 1   
    20   10   18 1   
    21   11   19 1   
@<TRIPOS>SUBSTRUCTURE
     1 ES5         1 TEMP              0 ****  ****    0 ROOT
