@<TRIPOS>MOLECULE
ES6
   14    11     1     0     0
SMALL
bcc


@<TRIPOS>ATOM
      1 O01        -2.5320   -0.0350    2.0640 o         1 ES6     -0.550000
      2 C02        -1.2730   -0.0350    2.0640 c1        1 ES6      0.380000
      3 O03        -0.6440   -0.0350    3.1540 os        1 ES6     -0.550000
      4 C04        -0.5170   -0.0330    0.7540 c2        1 ES6     -0.143000
      5 C05        -0.0850   -1.3040    0.1520 c1        1 ES6     -0.101000
      6 C06         0.7270   -1.2920   -1.0750 c1        1 ES6     -0.138500
      7 C07         1.1170    0.0260   -1.7070 c1        1 ES6     -0.138500
      8 N08         0.6120    1.2790   -1.1530 n2        1 ES6     -0.311000
      9 C09        -0.1180    1.2780    0.1120 c2        1 ES6      0.338000
     10 O10        -0.4330    2.3290    0.6330 o         1 ES6     -0.376000
     11 H05        -0.4030   -2.1510    0.5190 ha        1 ES6      0.136000
     12 H06         1.0680   -2.1300   -1.4430 ha        1 ES6      0.118000
     13 H07         1.6300    0.0320   -2.5370 ha        1 ES6      0.118000
     14 HN08        0.8500    2.0720   -1.5360 hn        1 ES6      0.217000
@<TRIPOS>BOND
     1    1    2 1   
     2    2    4 1   
     3    4    5 1   
     4    4    9 1   
     5    5   11 1   
     6    6    7 1   
     7    6   12 1   
     8    7   13 1   
     9    8    9 1   
    10    8   14 1   
    11    9   10 1   
@<TRIPOS>SUBSTRUCTURE
     1 ES6         1 TEMP              0 ****  ****    0 ROOT
