@<TRIPOS>MOLECULE
ES6
   14    14     1     0     0
SMALL
bcc


@<TRIPOS>ATOM
      1 O01         2.3010   -0.6080    1.1110 o         1 ES6     -0.815300
      2 C02         1.7410   -0.3550    0.0110 c         1 ES6      0.929800
      3 O03         2.3300   -0.1930   -1.0900 o         1 ES6     -0.815300
      4 C04         0.2120   -0.3050    0.0010 cc        1 ES6     -0.181400
      5 C05        -0.5150   -1.4320   -0.2210 cd        1 ES6     -0.101000
      6 C06        -1.9470   -1.4010   -0.2340 cd        1 ES6     -0.227000
      7 C07        -2.5880   -0.2110   -0.0180 cc        1 ES6     -0.047400
      8 N08        -1.8860    0.9510    0.2110 n         1 ES6     -0.467100
      9 C09        -0.4690    0.9750    0.2340 c         1 ES6      0.699700
     10 O10         0.0460    2.0900    0.4510 o         1 ES6     -0.651500
     11 H05        -0.0070   -2.3920   -0.3960 ha        1 ES6      0.136000
     12 H06        -2.5140   -2.3200   -0.4140 ha        1 ES6      0.120000
     13 H07        -3.6870   -0.1230   -0.0150 h4        1 ES6      0.116000
     14 HN08       -2.3790    1.7990    0.3640 hn        1 ES6      0.303500
@<TRIPOS>BOND
     1    1    2 1   
     2    2    3 1   
     3    2    4 1   
     4    4    5 2   
     5    4    9 1   
     6    5    6 1   
     7    5   11 1   
     8    6    7 2   
     9    6   12 1   
    10    7    8 1   
    11    7   13 1   
    12    8    9 1   
    13    8   14 1   
    14    9   10 2   
@<TRIPOS>SUBSTRUCTURE
     1 ES6         1 TEMP              0 ****  ****    0 ROOT
