@<TRIPOS>MOLECULE
ES6
   14    14     1     0     0
SMALL
bcc


@<TRIPOS>ATOM
      1 O01         0.5490    1.0060    0.3770 o         1 ES6     -0.815300
      2 C02         1.1630   -0.0480    0.0620 c         1 ES6      0.929800
      3 O03         1.1490   -1.1260    0.7140 o         1 ES6     -0.815300
      4 C04         1.9380   -0.0380   -1.2570 cc        1 ES6     -0.181400
      5 C05         1.3290   -0.3910   -2.4190 cd        1 ES6     -0.101000
      6 C06         2.0410   -0.3870   -3.6620 cd        1 ES6     -0.227000
      7 C07         3.3590   -0.0200   -3.6710 cc        1 ES6     -0.047400
      8 N08         4.0110    0.3440   -2.5140 ns        1 ES6     -0.467100
      9 C09         3.3520    0.3580   -1.2580 c         1 ES6      0.699700
     10 O10         4.0530    0.7070   -0.2880 o         1 ES6     -0.651500
     11 H05         0.2690   -0.6880   -2.4210 ha        1 ES6      0.136000
     12 H06         1.5320   -0.6750   -4.5870 ha        1 ES6      0.120000
     13 H07         3.9610    0.0030   -4.5950 h4        1 ES6      0.116000
     14 HN08        4.9670    0.6060   -2.5520 hn        1 ES6      0.303500
@<TRIPOS>BOND
     1    1    2 1   
     2    2    3 1   
     3    2    4 1   
     4    4    5 2   
     5    4    9 1   
     6    5    6 1   
     7    5   11 1   
     8    6    7 2   
     9    6   12 1   
    10    7    8 1   
    11    7   13 1   
    12    8    9 1   
    13    8   14 1   
    14    9   10 2   
@<TRIPOS>SUBSTRUCTURE
     1 ES6         1 TEMP              0 ****  ****    0 ROOT
