@<TRIPOS>MOLECULE
ES6
   14    14     1     0     0
SMALL
bcc


@<TRIPOS>ATOM
      1 O01         0.6740    1.0860    0.4340 o         1 ES6     -0.815300
      2 C02         1.1610   -0.0130    0.0610 c         1 ES6      0.929800
      3 O03         1.0180   -1.1160    0.6540 o         1 ES6     -0.815300
      4 C04         1.9370   -0.0240   -1.2570 cc        1 ES6     -0.181400
      5 C05         1.2950   -0.2420   -2.4350 cd        1 ES6     -0.101000
      6 C06         2.0080   -0.2540   -3.6780 cd        1 ES6     -0.227000
      7 C07         3.3590   -0.0420   -3.6700 cc        1 ES6     -0.047400
      8 N08         4.0440    0.1820   -2.4970 n         1 ES6     -0.467100
      9 C09         3.3880    0.2050   -1.2410 c         1 ES6      0.699700
     10 O10         4.1200    0.4180   -0.2560 o         1 ES6     -0.651500
     11 H05         0.2080   -0.4130   -2.4500 ha        1 ES6      0.136000
     12 H06         1.4720   -0.4310   -4.6160 ha        1 ES6      0.120000
     13 H07         3.9630   -0.0400   -4.5940 h4        1 ES6      0.116000
     14 HN08        5.0250    0.3330   -2.5240 hn        1 ES6      0.303500
@<TRIPOS>BOND
     1    1    2 1   
     2    2    3 1   
     3    2    4 1   
     4    4    5 2   
     5    4    9 1   
     6    5    6 1   
     7    5   11 1   
     8    6    7 2   
     9    6   12 1   
    10    7    8 1   
    11    7   13 1   
    12    8    9 1   
    13    8   14 1   
    14    9   10 2   
@<TRIPOS>SUBSTRUCTURE
     1 ES6         1 TEMP              0 ****  ****    0 ROOT
