@<TRIPOS>MOLECULE
ES7
   21    22     1     0     0
SMALL
bcc


@<TRIPOS>ATOM
      1 C10        -0.0150    0.0070    0.0460 cc        1 ES7      0.346700
      2 C01         2.2280   -0.0000   -1.1580 c3        1 ES7      0.004600
      3 N02         1.4080    0.0020    0.0070 na        1 ES7     -0.128300
      4 C03         1.8030    0.0010    1.3480 ca        1 ES7     -0.023200
      5 C04         3.0690   -0.0040    1.9580 ca        1 ES7     -0.140000
      6 C05         3.1050   -0.0040    3.3410 ca        1 ES7     -0.056000
      7 C06         1.9270   -0.0010    4.1240 ca        1 ES7     -0.131000
      8 C07         0.6700    0.0030    3.5540 ca        1 ES7     -0.042000
      9 C08         0.5830    0.0040    2.1450 ca        1 ES7      0.054400
     10 N09        -0.5340    0.0080    1.3080 nd        1 ES7     -0.463100
     11 N11        -0.8390    0.0090   -1.1600 n4        1 ES7     -0.742600
     12 H01         2.0280   -0.9180   -1.7760 h1        1 ES7      0.074367
     13 H01A        3.3100   -0.0040   -0.8480 h1        1 ES7      0.074367
     14 H01B        2.0340    0.9190   -1.7750 h1        1 ES7      0.074367
     15 H04         3.9920   -0.0060    1.3610 ha        1 ES7      0.158000
     16 H05         4.0810   -0.0070    3.8560 ha        1 ES7      0.164000
     17 H06         2.0260   -0.0010    5.2230 ha        1 ES7      0.166000
     18 H07        -0.2450    0.0060    4.1650 ha        1 ES7      0.173000
     19 HN11       -0.6350    0.8500   -1.7140 hn        1 ES7      0.478133
     20 HN1A       -0.6410   -0.8320   -1.7150 hn        1 ES7      0.478133
     21 H113       -1.8330    0.0120   -0.8830 hn        1 ES7      0.478133
@<TRIPOS>BOND
     1    1    3 1   
     2    1   10 2   
     3    1   11 1   
     4    2    3 1   
     5    2   12 1   
     6    2   13 1   
     7    2   14 1   
     8    3    4 1   
     9    4    5 ar  
    10    4    9 ar  
    11    5    6 ar  
    12    5   15 1   
    13    6    7 ar  
    14    6   16 1   
    15    7    8 ar  
    16    7   17 1   
    17    8    9 ar  
    18    8   18 1   
    19    9   10 1   
    20   11   19 1   
    21   11   20 1   
    22   11   21 1   
@<TRIPOS>SUBSTRUCTURE
     1 ES7         1 TEMP              0 ****  ****    0 ROOT
