@<TRIPOS>MOLECULE
ES7
   20    21     1     0     0
SMALL
bcc


@<TRIPOS>ATOM
      1 C10        -1.6960    0.5780   -0.0240 cc        1 ES7      0.582700
      2 C01        -1.8010   -1.9550   -0.1200 c3        1 ES7      0.032600
      3 N02        -1.1170   -0.7320    0.1320 na        1 ES7     -0.180300
      4 C03         0.2740   -0.5350    0.0680 ca        1 ES7     -0.077200
      5 C04         1.3510   -1.4220    0.1360 ca        1 ES7     -0.128000
      6 C05         2.6310   -0.8810    0.0970 ca        1 ES7     -0.124000
      7 C06         2.8450    0.5010   -0.0010 ca        1 ES7     -0.146000
      8 C07         1.7890    1.4020   -0.0670 ca        1 ES7     -0.083000
      9 C08         0.4830    0.8980   -0.0360 ca        1 ES7      0.090400
     10 N09        -0.7560    1.5640   -0.0790 nd        1 ES7     -0.609100
     11 N11        -3.0890    0.7520   -0.1520 nh        1 ES7     -0.851800
     12 H01        -2.2090   -1.9890   -1.1670 h1        1 ES7      0.050033
     13 H01A       -1.0930   -2.8140    0.0250 h1        1 ES7      0.050033
     14 H01B       -2.6560   -2.0590    0.6020 h1        1 ES7      0.050033
     15 H04         1.1950   -2.5060    0.2180 ha        1 ES7      0.132000
     16 H05         3.5000   -1.5560    0.1450 ha        1 ES7      0.131000
     17 H06         3.8780    0.8800   -0.0270 ha        1 ES7      0.131000
     18 H07         1.9660    2.4850   -0.1400 ha        1 ES7      0.147000
     19 HN11       -3.6110    0.1740    0.4740 hn        1 ES7      0.400800
     20 HN1A       -3.3550    1.7140   -0.0920 hn        1 ES7      0.400800
@<TRIPOS>BOND
     1    1    3 1   
     2    1   10 2   
     3    1   11 1   
     4    2    3 1   
     5    2   12 1   
     6    2   13 1   
     7    2   14 1   
     8    3    4 1   
     9    4    5 ar  
    10    4    9 ar  
    11    5    6 ar  
    12    5   15 1   
    13    6    7 ar  
    14    6   16 1   
    15    7    8 ar  
    16    7   17 1   
    17    8    9 ar  
    18    8   18 1   
    19    9   10 1   
    20   11   19 1   
    21   11   20 1   
@<TRIPOS>SUBSTRUCTURE
     1 ES7         1 TEMP              0 ****  ****    0 ROOT
