@<TRIPOS>MOLECULE
ES7
   20    21     1     0     0
SMALL
bcc


@<TRIPOS>ATOM
      1 C10        -0.0310    0.0780   -0.0090 cc        1 ES7      0.582700
      2 C01         2.2250    0.0160   -1.1660 c3        1 ES7      0.032600
      3 N02         1.4030    0.2080   -0.0200 na        1 ES7     -0.180300
      4 C03         1.8030    0.0490    1.3200 ca        1 ES7     -0.077200
      5 C04         3.0590    0.0540    1.9310 ca        1 ES7     -0.128000
      6 C05         3.1010   -0.0760    3.3140 ca        1 ES7     -0.124000
      7 C06         1.9310   -0.2020    4.0780 ca        1 ES7     -0.146000
      8 C07         0.6710   -0.2060    3.4920 ca        1 ES7     -0.083000
      9 C08         0.5860   -0.0830    2.1000 ca        1 ES7      0.090400
     10 N09        -0.5370   -0.0500    1.2510 nd        1 ES7     -0.609100
     11 N11        -0.7720    0.0410   -1.2070 nh        1 ES7     -0.851800
     12 H01         3.3040    0.1200   -0.8730 h1        1 ES7      0.050033
     13 H01A        2.0650   -1.0000   -1.6210 h1        1 ES7      0.050033
     14 H01B        1.9780    0.7970   -1.9350 h1        1 ES7      0.050033
     15 H04         3.9800    0.1570    1.3430 ha        1 ES7      0.132000
     16 H05         4.0760   -0.0800    3.8230 ha        1 ES7      0.131000
     17 H06         2.0160   -0.3010    5.1710 ha        1 ES7      0.131000
     18 H07        -0.2400   -0.3020    4.0990 ha        1 ES7      0.147000
     19 HN11       -1.7570    0.1090   -1.0430 hn        1 ES7      0.400800
     20 HN1A       -0.4530    0.7070   -1.8800 hn        1 ES7      0.400800
@<TRIPOS>BOND
     1    1    3 1   
     2    1   10 2   
     3    1   11 1   
     4    2    3 1   
     5    2   12 1   
     6    2   13 1   
     7    2   14 1   
     8    3    4 1   
     9    4    5 ar  
    10    4    9 ar  
    11    5    6 ar  
    12    5   15 1   
    13    6    7 ar  
    14    6   16 1   
    15    7    8 ar  
    16    7   17 1   
    17    8    9 ar  
    18    8   18 1   
    19    9   10 1   
    20   11   19 1   
    21   11   20 1   
@<TRIPOS>SUBSTRUCTURE
     1 ES7         1 TEMP              0 ****  ****    0 ROOT
