@<TRIPOS>MOLECULE
ES7
   20    21     1     0     0
SMALL
bcc


@<TRIPOS>ATOM
      1 C10        -0.0260    0.0730   -0.0160 cc        1 ES7      0.582700
      2 C01         2.2360    0.0010   -1.1630 c3        1 ES7      0.032600
      3 N02         1.4090    0.2010   -0.0210 na        1 ES7     -0.180300
      4 C03         1.8020    0.0490    1.3210 ca        1 ES7     -0.077200
      5 C04         3.0550    0.0570    1.9380 ca        1 ES7     -0.128000
      6 C05         3.0910   -0.0650    3.3220 ca        1 ES7     -0.124000
      7 C06         1.9170   -0.1860    4.0810 ca        1 ES7     -0.146000
      8 C07         0.6600   -0.1920    3.4900 ca        1 ES7     -0.083000
      9 C08         0.5810   -0.0760    2.0970 ca        1 ES7      0.090400
     10 N09        -0.5380   -0.0470    1.2430 nd        1 ES7     -0.609100
     11 N11        -0.7620    0.0300   -1.2170 nv        1 ES7     -0.851800
     12 H01         3.3130    0.1070   -0.8650 h1        1 ES7      0.050033
     13 H01A        2.0770   -1.0180   -1.6110 h1        1 ES7      0.050033
     14 H01B        1.9920    0.7770   -1.9380 h1        1 ES7      0.050033
     15 H04         3.9790    0.1550    1.3530 ha        1 ES7      0.132000
     16 H05         4.0640   -0.0670    3.8360 ha        1 ES7      0.131000
     17 H06         1.9980   -0.2780    5.1750 ha        1 ES7      0.131000
     18 H07        -0.2540   -0.2830    4.0930 ha        1 ES7      0.147000
     19 HN11       -1.7470    0.1000   -1.0580 hn        1 ES7      0.400800
     20 HN1A       -0.4390    0.6920   -1.8930 hn        1 ES7      0.400800
@<TRIPOS>BOND
     1    1    3 1   
     2    1   10 2   
     3    1   11 1   
     4    2    3 1   
     5    2   12 1   
     6    2   13 1   
     7    2   14 1   
     8    3    4 1   
     9    4    5 ar  
    10    4    9 ar  
    11    5    6 ar  
    12    5   15 1   
    13    6    7 ar  
    14    6   16 1   
    15    7    8 ar  
    16    7   17 1   
    17    8    9 ar  
    18    8   18 1   
    19    9   10 1   
    20   11   19 1   
    21   11   20 1   
@<TRIPOS>SUBSTRUCTURE
     1 ES7         1 TEMP              0 ****  ****    0 ROOT
