@<TRIPOS>MOLECULE
ES8
   29    31     1     0     0
SMALL
bcc


@<TRIPOS>ATOM
      1 O19        -0.1970   -0.0080   -0.3440 o         1 ES8     -0.822300
      2 C17         1.0420   -0.0020   -0.1320 c         1 ES8      0.923600
      3 O18         1.6020    0.0050    0.9980 o         1 ES8     -0.822300
      4 C16         2.0150   -0.0030   -1.3420 c3        1 ES8      0.002400
      5 O15         1.1510   -0.0110   -2.5130 os        1 ES8     -0.136300
      6 N14         1.7460   -0.0130   -3.6700 n2        1 ES8     -0.373200
      7 C07         0.9400   -0.0210   -4.7060 cc        1 ES8      0.378500
      8 C03         1.3910   -0.0250   -6.1190 ca        1 ES8     -0.112400
      9 C04         2.6640   -0.0210   -6.6580 ca        1 ES8     -0.094000
     10 C05         2.8020   -0.0260   -8.0550 ca        1 ES8     -0.135500
     11 C06         1.6860   -0.0340   -8.8840 ca        1 ES8     -0.147000
     12 C01         0.3900   -0.0380   -8.3470 ca        1 ES8     -0.120000
     13 C08        -0.5420   -0.0280   -4.7620 ca        1 ES8     -0.112400
     14 C13        -1.4680   -0.0280   -3.7320 ca        1 ES8     -0.094000
     15 C12        -2.8300   -0.0350   -4.0750 ca        1 ES8     -0.135500
     16 C11        -3.2400   -0.0420   -5.4050 ca        1 ES8     -0.147000
     17 C10        -2.3050   -0.0420   -6.4500 ca        1 ES8     -0.120000
     18 C09        -0.9590   -0.0350   -6.1320 cp        1 ES8     -0.042500
     19 C02         0.2380   -0.0330   -6.9720 cp        1 ES8     -0.042500
     20 H2          2.6470    0.9170   -1.3420 h1        1 ES8      0.034700
     21 H3          2.6550   -0.9170   -1.3340 h1        1 ES8      0.034700
     22 H4          3.5510   -0.0150   -6.0080 ha        1 ES8      0.179500
     23 H5          3.8100   -0.0230   -8.4940 ha        1 ES8      0.125000
     24 H6          1.8150   -0.0380   -9.9760 ha        1 ES8      0.115000
     25 H7         -0.4870   -0.0440   -9.0100 ha        1 ES8      0.121500
     26 H8         -1.1430   -0.0220   -2.6700 ha        1 ES8      0.179500
     27 H9         -3.5790   -0.0350   -3.2690 ha        1 ES8      0.125000
     28 H10        -4.3130   -0.0470   -5.6460 ha        1 ES8      0.115000
     29 H11        -2.6390   -0.0470   -7.4970 ha        1 ES8      0.121500
@<TRIPOS>BOND
     1    1    2 1   
     2    2    3 1   
     3    2    4 1   
     4    4    5 1   
     5    4   20 1   
     6    4   21 1   
     7    5    6 1   
     8    6    7 2   
     9    7    8 1   
    10    7   13 1   
    11    8    9 ar  
    12    8   19 ar  
    13    9   10 ar  
    14    9   22 1   
    15   10   11 ar  
    16   10   23 1   
    17   11   12 ar  
    18   11   24 1   
    19   12   19 ar  
    20   12   25 1   
    21   13   14 ar  
    22   13   18 ar  
    23   14   15 ar  
    24   14   26 1   
    25   15   16 ar  
    26   15   27 1   
    27   16   17 ar  
    28   16   28 1   
    29   17   18 ar  
    30   17   29 1   
    31   18   19 1   
@<TRIPOS>SUBSTRUCTURE
     1 ES8         1 TEMP              0 ****  ****    0 ROOT
