@<TRIPOS>MOLECULE
ES9
   15    11     1     0     0
SMALL
bcc


@<TRIPOS>ATOM
      1 C10        -0.1290   -0.0040   -1.6480 c1        1 ES9     -0.061000
      2 CL01        2.1280    0.0550   -3.1570 cl        1 ES9     -0.019000
      3 C02         1.2570   -0.0040   -1.6480 c2        1 ES9     -0.084000
      4 C03         1.9500   -0.0040   -0.4480 c2        1 ES9     -0.107000
      5 C04         1.2570   -0.0040    0.7520 c1        1 ES9     -0.127000
      6 C05        -0.1510   -0.0040    0.7530 c1        1 ES9     -0.030000
      7 N06        -1.0590   -0.0040    1.7600 n1        1 ES9     -0.245000
      8 C07        -2.3000   -0.0040    1.2070 c1        1 ES9     -0.033000
      9 N08        -2.1590   -0.0040   -0.1450 n2        1 ES9     -0.134000
     10 C09        -0.8330   -0.0040   -0.4280 c1        1 ES9     -0.070000
     11 H10        -0.6170   -0.0060   -2.4930 ha        1 ES9      0.164000
     12 H03         2.9260   -0.0040   -0.4480 ha        1 ES9      0.148000
     13 H04         1.7460   -0.0040    1.5980 ha        1 ES9      0.140000
     14 HN06       -0.8700   -0.0040    2.6520 DU        1 ES9      0.229000
     15 H07        -3.1460   -0.0040    1.6950 DU        1 ES9      0.229000
@<TRIPOS>BOND
     1    1    3 1   
     2    1   11 1   
     3    2    3 1   
     4    3    4 1   
     5    4    5 1   
     6    4   12 1   
     7    5   13 1   
     8    6   10 1   
     9    7    8 1   
    10    8    9 1   
    11    9   10 1   
@<TRIPOS>SUBSTRUCTURE
     1 ES9         1 TEMP              0 ****  ****    0 ROOT
