@<TRIPOS>MOLECULE
ES9
   15    16     1     0     0
SMALL
bcc


@<TRIPOS>ATOM
      1 C10        -0.4460    1.0100   -0.0010 ca        1 ES9     -0.061000
      2 CL01       -3.0270    0.3200   -0.0020 cl        1 ES9     -0.097400
      3 C02        -1.3620   -0.0370   -0.0010 ca        1 ES9     -0.005600
      4 C03        -0.9660   -1.3910   -0.0000 ca        1 ES9     -0.107000
      5 C04         0.3740   -1.7470    0.0000 ca        1 ES9     -0.127000
      6 C05         1.3200   -0.7160    0.0000 ca        1 ES9     -0.075200
      7 N06         2.7180   -0.7060    0.0010 na        1 ES9     -0.288300
      8 C07         3.1040    0.6480    0.0000 cc        1 ES9      0.422700
      9 N08         2.0670    1.4990   -0.0010 nd        1 ES9     -0.561100
     10 C09         0.9160    0.6820   -0.0010 ca        1 ES9      0.069400
     11 H10        -0.7680    2.0620   -0.0020 ha        1 ES9      0.164000
     12 H03        -1.7360   -2.1780   -0.0000 ha        1 ES9      0.148000
     13 H04         0.6780   -2.8020    0.0010 ha        1 ES9      0.140000
     14 HN06        3.3070   -1.4940    0.0010 hn        1 ES9      0.307700
     15 H07         4.1610    0.9430    0.0000 h5        1 ES9      0.070800
@<TRIPOS>BOND
     1    1    3 ar  
     2    1   10 ar  
     3    1   11 1   
     4    2    3 1   
     5    3    4 ar  
     6    4    5 ar  
     7    4   12 1   
     8    5    6 ar  
     9    5   13 1   
    10    6    7 1   
    11    6   10 ar  
    12    7    8 1   
    13    7   14 1   
    14    8    9 2   
    15    8   15 1   
    16    9   10 1   
@<TRIPOS>SUBSTRUCTURE
     1 ES9         1 TEMP              0 ****  ****    0 ROOT
