@<TRIPOS>MOLECULE
ESA
   11    10     1     0     0
SMALL
bcc


@<TRIPOS>ATOM
      1 C1          0.0500   -0.0040    0.0350 c3        1 ESA     -0.043100
      2 C2          1.5450   -0.0010    0.0430 c3        1 ESA     -0.293600
      3 S           2.2310    0.0050    1.6840 s6        1 ESA      1.426800
      4 O1          1.7480    1.1920    2.2890 o         1 ESA     -0.754200
      5 O2          3.6320    0.0090    1.4660 o         1 ESA     -0.754200
      6 O3          1.7560   -1.1830    2.2940 o         1 ESA     -0.754200
      7 H11        -0.3370   -0.9110    0.5640 hc        1 ESA      0.018033
      8 H12        -0.3410    0.9030    0.5610 hc        1 ESA      0.018033
      9 H13        -0.3550   -0.0070   -1.0060 hc        1 ESA      0.018033
     10 H21         1.9300   -0.8970   -0.4990 h1        1 ESA      0.059700
     11 H22         1.9260    0.8950   -0.5030 h1        1 ESA      0.059700
@<TRIPOS>BOND
     1    1    2 1   
     2    1    7 1   
     3    1    8 1   
     4    1    9 1   
     5    2    3 1   
     6    2   10 1   
     7    2   11 1   
     8    3    4 1   
     9    3    5 1   
    10    3    6 1   
@<TRIPOS>SUBSTRUCTURE
     1 ESA         1 TEMP              0 ****  ****    0 ROOT
