@<TRIPOS>MOLECULE
ESA
   11     9     1     0     0
SMALL
bcc


@<TRIPOS>ATOM
      1 C1         -1.2070    0.0290   -0.6490 c3        1 ESA     -0.043100
      2 C2          0.3050    0.0630   -0.6620 c3        1 ESA     -0.328100
      3 S           0.9120   -0.0310    1.0010 s4        1 ESA      1.646500
      4 O1          2.3770   -0.3960    1.0300 o         1 ESA     -0.685900
      5 O2          0.6570    1.2690    1.7250 os        1 ESA     -1.076000
      6 O3          0.3050   -1.1990    1.7420 o         1 ESA     -0.685900
      7 H11        -1.5450    0.7400   -0.0650 hc        1 ESA      0.018033
      8 H12        -1.5120   -0.8410   -0.3150 hc        1 ESA      0.018033
      9 H13        -1.5450    0.1670   -1.5590 hc        1 ESA      0.018033
     10 H21         0.6440   -0.6970   -1.1760 h1        1 ESA      0.059700
     11 H22         0.6090    0.8960   -1.0730 h1        1 ESA      0.059700
@<TRIPOS>BOND
     1    1    2 1   
     2    1    7 1   
     3    1    8 1   
     4    1    9 1   
     5    2    3 1   
     6    2   10 1   
     7    2   11 1   
     8    3    4 1   
     9    3    6 1   
@<TRIPOS>SUBSTRUCTURE
     1 ESA         1 TEMP              0 ****  ****    0 ROOT
