@<TRIPOS>MOLECULE
ESB
   30    30     1     0     0
SMALL
bcc


@<TRIPOS>ATOM
      1 OX          0.3220   -2.6250   -1.3600 o         1 ESB     -0.523100
      2 C2         -3.0170    2.7820   -1.1230 c3        1 ESB     -0.105100
      3 C1         -3.2060    2.2890    0.3040 c3        1 ESB      0.102800
      4 N1         -3.3150    0.8660    0.4730 n2        1 ESB     -0.568900
      5 N           1.7180    1.3500    1.2450 n3        1 ESB     -0.898800
      6 CA          2.2660    0.3140    0.3790 c3        1 ESB      0.020500
      7 C           3.7000    0.6430   -0.1690 c         1 ESB      0.888600
      8 O           4.0720    1.8510   -0.1430 o         1 ESB     -0.834800
      9 CG          0.0040   -0.4040   -0.4980 cc        1 ESB     -0.090400
     10 CD1        -0.3420   -1.8370   -0.6750 c         1 ESB      0.572500
     11 CD2        -0.9270    0.4590   -0.0470 cd        1 ESB     -0.261600
     12 CE1        -1.5570   -2.2790    0.0240 cc        1 ESB     -0.359200
     13 CE2        -2.3010    0.0740    0.3220 cd        1 ESB      0.512900
     14 CZ         -2.4620   -1.3990    0.5090 cd        1 ESB      0.091500
     15 OH         -3.5870   -1.7900    1.1900 oh        1 ESB     -0.476100
     16 OXT         4.3910   -0.3200   -0.5930 o         1 ESB     -0.834800
     17 H2         -2.0610    2.3970   -1.5540 hc        1 ESB      0.041700
     18 H2A        -3.8600    2.4510   -1.7760 hc        1 ESB      0.041700
     19 H2B        -2.9850    3.8980   -1.1210 hc        1 ESB      0.041700
     20 H1         -2.3730    2.7110    0.9400 h1        1 ESB      0.050700
     21 H1A        -4.1770    2.7040    0.7020 h1        1 ESB      0.050700
     22 HA          2.3440   -0.6340    0.9840 h1        1 ESB      0.046700
     23 HD2        -0.6700    1.5240    0.0860 ha        1 ESB      0.159000
     24 HE1        -1.6860   -3.3650    0.1350 ha        1 ESB      0.143000
     25 HOH        -3.5690   -2.7570    1.2640 ho        1 ESB      0.413000
     26 HN          2.3010    1.4000    2.0620 hn        1 ESB      0.333800
     27 HB          1.3350    0.9470   -1.4850 hc        1 ESB      0.071200
     28 HBA         1.9050   -0.7780   -1.4350 hc        1 ESB      0.071200
     29 CB          1.3840    0.0260   -0.8450 c3        1 ESB     -0.038200
     30 HNA         1.8220    2.2320    0.7700 hn        1 ESB      0.333800
@<TRIPOS>BOND
     1    1   10 2   
     2    2    3 1   
     3    2   17 1   
     4    2   18 1   
     5    2   19 1   
     6    3    4 1   
     7    3   20 1   
     8    3   21 1   
     9    4   13 2   
    10    5    6 1   
    11    5   26 1   
    12    5   30 1   
    13    6    7 1   
    14    6   22 1   
    15    6   29 1   
    16    7    8 1   
    17    7   16 1   
    18    9   10 1   
    19    9   11 2   
    20    9   29 1   
    21   10   12 1   
    22   11   13 1   
    23   11   23 1   
    24   12   14 2   
    25   12   24 1   
    26   13   14 1   
    27   14   15 1   
    28   15   25 1   
    29   27   29 1   
    30   28   29 1   
@<TRIPOS>SUBSTRUCTURE
     1 ESB         1 TEMP              0 ****  ****    0 ROOT
