@<TRIPOS>MOLECULE
ESC
   22    21     1     0     0
SMALL
bcc


@<TRIPOS>ATOM
      1 N           1.1470   -0.4750   -2.5530 n3        1 ESC     -0.890800
      2 CA          0.9070   -0.7490   -1.1430 c3        1 ESC      0.018500
      3 CB         -0.5450   -1.1350   -0.8440 c3        1 ESC     -0.060400
      4 CG         -0.9330   -2.4410   -1.4900 c3        1 ESC      0.021700
      5 SD         -2.1450   -3.3580   -0.5650 ss        1 ESC     -0.413200
      6 C           1.8550   -1.8240   -0.5180 c         1 ESC      0.883600
      7 O           2.8150   -2.2520   -1.2190 o         1 ESC     -0.845300
      8 CD         -1.2470   -3.8320    0.8960 c3        1 ESC     -0.014300
      9 CE         -1.9870   -3.4050    2.1270 c3        1 ESC     -0.072100
     10 OXT         1.6140   -2.2060    0.6640 o         1 ESC     -0.845300
     11 H           2.1460   -0.4450   -2.6850 hn        1 ESC      0.331300
     12 H2          0.8160   -1.2560   -3.0910 hn        1 ESC      0.331300
     13 HCA1        1.1190    0.2150   -0.5930 h1        1 ESC      0.043700
     14 HB2        -1.2420   -0.3230   -1.1730 hc        1 ESC      0.045200
     15 HB3        -0.6240   -1.2300    0.2740 hc        1 ESC      0.045200
     16 HG2        -1.4040   -2.2750   -2.4890 h1        1 ESC      0.071200
     17 HG3        -0.0240   -3.0820   -1.6220 h1        1 ESC      0.071200
     18 HD2        -1.1340   -4.9420    0.8720 h1        1 ESC      0.097700
     19 HD3        -0.2150   -3.3740    0.8760 h1        1 ESC      0.097700
     20 HE1        -2.0370   -2.2900    2.1870 hc        1 ESC      0.027700
     21 HE2        -3.0300   -3.8050    2.1310 hc        1 ESC      0.027700
     22 HE3        -1.4620   -3.7820    3.0390 hc        1 ESC      0.027700
@<TRIPOS>BOND
     1    1    2 1   
     2    1   11 1   
     3    1   12 1   
     4    2    3 1   
     5    2    6 1   
     6    2   13 1   
     7    3    4 1   
     8    3   14 1   
     9    3   15 1   
    10    4    5 1   
    11    4   16 1   
    12    4   17 1   
    13    5    8 1   
    14    6    7 1   
    15    6   10 1   
    16    8    9 1   
    17    8   18 1   
    18    8   19 1   
    19    9   20 1   
    20    9   21 1   
    21    9   22 1   
@<TRIPOS>SUBSTRUCTURE
     1 ESC         1 TEMP              0 ****  ****    0 ROOT
