@<TRIPOS>MOLECULE
ESD
   16    15     1     0     0
SMALL
bcc


@<TRIPOS>ATOM
      1 N           1.2170   -1.4470    0.6920 n3        1 ESD     -0.905800
      2 CG          1.8970    0.2240   -1.0640 c3        1 ESD     -0.074300
      3 SB          1.4680    1.8530   -1.5890 ss        1 ESD     -0.280200
      4 CD          1.0100   -0.1370    0.1190 c3        1 ESD      0.155800
      5 CA          2.5910    2.0620   -2.9350 c3        1 ESD     -0.129300
      6 C           2.4130    3.4530   -3.5890 c         1 ESD      0.929600
      7 O           3.1300    4.3960   -3.1560 o         1 ESD     -0.825300
      8 OXT         1.6100    3.5450   -4.5560 o         1 ESD     -0.825300
      9 H           2.1600   -1.5400    1.0190 hn        1 ESD      0.333800
     10 HN2         1.0580   -2.1580    0.0040 hn        1 ESD      0.333800
     11 HG1         2.9760    0.1830   -0.7750 h1        1 ESD      0.041700
     12 HG2         1.7530   -0.5020   -1.9010 h1        1 ESD      0.041700
     13 HD2        -0.0680   -0.0700   -0.2030 h1        1 ESD      0.061700
     14 HD1         1.1690    0.6230    0.9370 h1        1 ESD      0.061700
     15 HA2         2.4050    1.2810   -3.7070 h1        1 ESD      0.040700
     16 HA1         3.6390    1.9730   -2.5700 h1        1 ESD      0.040700
@<TRIPOS>BOND
     1    1    4 1   
     2    1    9 1   
     3    1   10 1   
     4    2    3 1   
     5    2    4 1   
     6    2   11 1   
     7    2   12 1   
     8    3    5 1   
     9    4   13 1   
    10    4   14 1   
    11    5    6 1   
    12    5   15 1   
    13    5   16 1   
    14    6    7 1   
    15    6    8 1   
@<TRIPOS>SUBSTRUCTURE
     1 ESD         1 TEMP              0 ****  ****    0 ROOT
