@<TRIPOS>MOLECULE
ESD
   16    15     1     0     0
SMALL
bcc


@<TRIPOS>ATOM
      1 N          -2.7080   -0.1400   -1.7490 n3        1 ESD     -0.905800
      2 CG         -0.8120   -0.0110   -0.2230 c3        1 ESD     -0.074300
      3 SB          0.9730   -0.0020   -0.1510 ss        1 ESD     -0.280200
      4 CD         -1.2650   -0.1920   -1.6820 c3        1 ESD      0.155800
      5 CA          1.4940    0.2070    1.5320 c3        1 ESD     -0.129300
      6 C           2.9900    0.0790    1.6090 c         1 ESD      0.929600
      7 O           3.5090   -1.0120    1.9490 o         1 ESD     -0.825300
      8 OXT         3.7200    1.0410    1.2640 o         1 ESD     -0.825300
      9 H          -2.9970    0.6650   -1.4420 hn        1 ESD      0.333800
     10 HN2        -3.0570   -0.8010   -1.2400 hn        1 ESD      0.333800
     11 HG1        -1.1570    0.8370    0.1220 h1        1 ESD      0.041700
     12 HG2        -1.1590   -0.7530    0.3220 h1        1 ESD      0.041700
     13 HD2        -0.8830    0.5290   -2.2350 h1        1 ESD      0.061700
     14 HD1        -0.9520   -1.0610   -2.0150 h1        1 ESD      0.061700
     15 HA2         1.0800   -0.4790    2.0890 h1        1 ESD      0.040700
     16 HA1         1.2250    1.0920    1.8510 h1        1 ESD      0.040700
@<TRIPOS>BOND
     1    1    4 1   
     2    1    9 1   
     3    1   10 1   
     4    2    3 1   
     5    2    4 1   
     6    2   11 1   
     7    2   12 1   
     8    3    5 1   
     9    4   13 1   
    10    4   14 1   
    11    5    6 1   
    12    5   15 1   
    13    5   16 1   
    14    6    7 1   
    15    6    8 1   
@<TRIPOS>SUBSTRUCTURE
     1 ESD         1 TEMP              0 ****  ****    0 ROOT
