@<TRIPOS>MOLECULE
ESE
   40    42     1     0     0
SMALL
bcc


@<TRIPOS>ATOM
      1 C01         0.1410   -0.1050   -0.1050 ca        1 ESE     -0.184000
      2 C02         1.5420   -0.1020   -0.0070 ca        1 ESE      0.120100
      3 C03         2.1720   -0.0800    1.2440 ca        1 ESE     -0.184000
      4 C04         1.3930   -0.0610    2.3980 ca        1 ESE     -0.091000
      5 C05        -0.0040   -0.0640    2.3200 ca        1 ESE     -0.108300
      6 C06        -0.6170   -0.0860    1.0600 ca        1 ESE     -0.091000
      7 C07        -0.8210   -0.0440    3.5720 c3        1 ESE     -0.015400
      8 C08        -1.6850    1.2060    3.6440 c3        1 ESE     -0.067400
      9 C09        -2.4730    1.2900    4.9410 c3        1 ESE     -0.059700
     10 C10        -3.2050   -0.0150    5.3220 c3        1 ESE     -0.039000
     11 C11        -2.4430   -1.2900    4.9960 c3        1 ESE     -0.068400
     12 C12        -1.7160   -1.2720    3.6720 c3        1 ESE     -0.071400
     13 C13        -3.5870    2.3350    4.7960 c3        1 ESE     -0.074400
     14 C14        -4.8580    1.5810    4.4260 c3        1 ESE     -0.116400
     15 C15        -4.5340    0.0840    4.5320 c3        1 ESE      0.141100
     16 C16        -3.4950   -0.0040    6.8190 c3        1 ESE     -0.079100
     17 O01         2.2410   -0.1210   -1.1930 oh        1 ESE     -0.498100
     18 O02        -5.5420   -0.6410    5.2160 oh        1 ESE     -0.593800
     19 H1         -0.3340   -0.1220   -1.0960 ha        1 ESE      0.141000
     20 H2          3.2680   -0.0780    1.3130 ha        1 ESE      0.141000
     21 H3          1.8880   -0.0440    3.3820 ha        1 ESE      0.133500
     22 H4         -1.7160   -0.0880    0.9890 ha        1 ESE      0.133500
     23 H5         -0.1260   -0.0430    4.4610 hc        1 ESE      0.053700
     24 H6         -2.3960    1.2100    2.7740 hc        1 ESE      0.043700
     25 H7         -1.0380    2.1180    3.5520 hc        1 ESE      0.043700
     26 H8         -1.7720    1.5760    5.7690 hc        1 ESE      0.055700
     27 H9         -1.6930   -1.4770    5.8120 hc        1 ESE      0.048200
     28 H10        -3.1710   -2.1450    5.0100 hc        1 ESE      0.048200
     29 H11        -2.4510   -1.2720    2.8240 hc        1 ESE      0.043200
     30 H12        -1.0960   -2.2010    3.5760 hc        1 ESE      0.043200
     31 H13        -3.3270    3.0970    4.0200 hc        1 ESE      0.044700
     32 H14        -3.7270    2.8760    5.7660 hc        1 ESE      0.044700
     33 H15        -5.6920    1.8440    5.1230 hc        1 ESE      0.046700
     34 H16        -5.1860    1.8350    3.3880 hc        1 ESE      0.046700
     35 H17        -4.3960   -0.3590    3.5060 h1        1 ESE      0.035700
     36 H18        -4.0580   -0.9260    7.1030 hc        1 ESE      0.039033
     37 H19        -4.1180    0.8840    7.0810 hc        1 ESE      0.039033
     38 H20        -2.5430    0.0350    7.4000 hc        1 ESE      0.039033
     39 H21         3.1860   -0.1180   -0.9810 ho        1 ESE      0.418000
     40 H22        -6.3570   -0.5070    4.7190 ho        1 ESE      0.398000
@<TRIPOS>BOND
     1    1    2 ar  
     2    1    6 ar  
     3    1   19 1   
     4    2    3 ar  
     5    2   17 1   
     6    3    4 ar  
     7    3   20 1   
     8    4    5 ar  
     9    4   21 1   
    10    5    6 ar  
    11    5    7 1   
    12    6   22 1   
    13    7    8 1   
    14    7   12 1   
    15    7   23 1   
    16    8    9 1   
    17    8   24 1   
    18    8   25 1   
    19    9   10 1   
    20    9   13 1   
    21    9   26 1   
    22   10   11 1   
    23   10   15 1   
    24   10   16 1   
    25   11   12 1   
    26   11   27 1   
    27   11   28 1   
    28   12   29 1   
    29   12   30 1   
    30   13   14 1   
    31   13   31 1   
    32   13   32 1   
    33   14   15 1   
    34   14   33 1   
    35   14   34 1   
    36   15   18 1   
    37   15   35 1   
    38   16   36 1   
    39   16   37 1   
    40   16   38 1   
    41   17   39 1   
    42   18   40 1   
@<TRIPOS>SUBSTRUCTURE
     1 ESE         1 TEMP              0 ****  ****    0 ROOT
