@<TRIPOS>MOLECULE
ESE
   40    42     1     0     0
SMALL
bcc


@<TRIPOS>ATOM
      1 C01         0.1400   -0.0950   -0.1060 ca        1 ESE     -0.184000
      2 C02         1.5410   -0.0970   -0.0080 ca        1 ESE      0.120100
      3 C03         2.1710   -0.0820    1.2430 ca        1 ESE     -0.184000
      4 C04         1.3920   -0.0650    2.3980 ca        1 ESE     -0.091000
      5 C05        -0.0050   -0.0630    2.3200 ca        1 ESE     -0.108300
      6 C06        -0.6180   -0.0790    1.0590 ca        1 ESE     -0.091000
      7 C07        -0.8220   -0.0460    3.5710 c3        1 ESE     -0.015400
      8 C08        -1.6830    1.2060    3.6480 c3        1 ESE     -0.067400
      9 C09        -2.4700    1.2870    4.9450 c3        1 ESE     -0.059700
     10 C10        -3.2060   -0.0180    5.3220 c3        1 ESE     -0.039000
     11 C11        -2.4470   -1.2940    4.9910 c3        1 ESE     -0.068400
     12 C12        -1.7200   -1.2720    3.6660 c3        1 ESE     -0.071400
     13 C13        -3.5820    2.3350    4.8040 c3        1 ESE     -0.074400
     14 C14        -4.8540    1.5860    4.4310 c3        1 ESE     -0.116400
     15 C15        -4.5350    0.0870    4.5310 c3        1 ESE      0.141100
     16 C16        -3.4950   -0.0120    6.8190 c3        1 ESE     -0.079100
     17 O01         2.2410   -0.1130   -1.1940 oh        1 ESE     -0.498100
     18 O02        -5.5440   -0.6380    5.2130 oh        1 ESE     -0.593800
     19 H1         -0.3350   -0.1070   -1.0970 ha        1 ESE      0.141000
     20 H2          3.2680   -0.0830    1.3130 ha        1 ESE      0.141000
     21 H3          1.8870   -0.0540    3.3810 ha        1 ESE      0.133500
     22 H4         -1.7160   -0.0780    0.9880 ha        1 ESE      0.133500
     23 H5         -0.1260   -0.0510    4.4600 hc        1 ESE      0.053700
     24 H6         -1.0330    2.1150    3.5600 hc        1 ESE      0.043700
     25 H7         -2.3930    1.2140    2.7780 hc        1 ESE      0.043700
     26 H8         -1.7680    1.5670    5.7740 hc        1 ESE      0.055700
     27 H9         -3.1770   -2.1470    5.0010 hc        1 ESE      0.048200
     28 H10        -1.6970   -1.4860    5.8060 hc        1 ESE      0.048200
     29 H11        -1.1020   -2.2020    3.5670 hc        1 ESE      0.043200
     30 H12        -2.4550   -1.2670    2.8190 hc        1 ESE      0.043200
     31 H13        -3.3200    3.0990    4.0310 hc        1 ESE      0.044700
     32 H14        -3.7210    2.8720    5.7760 hc        1 ESE      0.044700
     33 H15        -5.6880    1.8480    5.1300 hc        1 ESE      0.046700
     34 H16        -5.1820    1.8430    3.3940 hc        1 ESE      0.046700
     35 H17        -4.3970   -0.3520    3.5040 h1        1 ESE      0.035700
     36 H18        -2.5430    0.0230    7.4000 hc        1 ESE      0.039033
     37 H19        -4.0600   -0.9340    7.0990 hc        1 ESE      0.039033
     38 H20        -4.1160    0.8770    7.0840 hc        1 ESE      0.039033
     39 H21         3.1850   -0.1140   -0.9820 ho        1 ESE      0.418000
     40 H22        -6.3590   -0.5000    4.7160 ho        1 ESE      0.398000
@<TRIPOS>BOND
     1    1    2 ar  
     2    1    6 ar  
     3    1   19 1   
     4    2    3 ar  
     5    2   17 1   
     6    3    4 ar  
     7    3   20 1   
     8    4    5 ar  
     9    4   21 1   
    10    5    6 ar  
    11    5    7 1   
    12    6   22 1   
    13    7    8 1   
    14    7   12 1   
    15    7   23 1   
    16    8    9 1   
    17    8   24 1   
    18    8   25 1   
    19    9   10 1   
    20    9   13 1   
    21    9   26 1   
    22   10   11 1   
    23   10   15 1   
    24   10   16 1   
    25   11   12 1   
    26   11   27 1   
    27   11   28 1   
    28   12   29 1   
    29   12   30 1   
    30   13   14 1   
    31   13   31 1   
    32   13   32 1   
    33   14   15 1   
    34   14   33 1   
    35   14   34 1   
    36   15   18 1   
    37   15   35 1   
    38   16   36 1   
    39   16   37 1   
    40   16   38 1   
    41   17   39 1   
    42   18   40 1   
@<TRIPOS>SUBSTRUCTURE
     1 ESE         1 TEMP              0 ****  ****    0 ROOT
