@<TRIPOS>MOLECULE
ESG
   51    48     1     0     0
SMALL
bcc


@<TRIPOS>ATOM
      1 C1         -5.8670   -2.2230   -2.5220 c1        1 ESG      0.308000
      2 N1         -4.7370   -2.6040   -4.5910 n3        1 ESG     -0.328000
      3 C2         -0.3140    2.7390   -1.0010 c1        1 ESG      0.258000
      4 N2         -0.5450    0.4240   -1.6390 n         1 ESG     -0.363000
      5 O2         -0.1430    3.0560   -2.1500 o         1 ESG     -0.404000
      6 C3         -1.2900    5.9410    0.7510 c1        1 ESG      0.328000
      7 N3         -0.7060    3.7310   -0.0320 n3        1 ESG     -0.325000
      8 C1'         5.5000   -3.5110    3.8110 c3        1 ESG     -0.234000
      9 N1'         3.9380   -1.7780    2.9740 n         1 ESG     -0.349000
     10 O1'         3.8040   -1.2940    5.2180 o         1 ESG     -0.354000
     11 O11        -6.0350   -2.8350   -1.4240 os        1 ESG     -0.567000
     12 O12        -6.7990   -1.5060   -2.9980 o         1 ESG     -0.593000
     13 C2'         4.1960   -3.2220    2.9910 c3        1 ESG     -0.010000
     14 O2'         4.7900   -1.0140    0.8840 o         1 ESG     -0.328000
     15 C3'         3.6190   -1.0010    4.0600 c2        1 ESG      0.320000
     16 O31        -2.2860    5.7720    1.5490 o         1 ESG     -0.584500
     17 O32        -0.4520    6.8610    0.9720 o         1 ESG     -0.584500
     18 C4'         2.8200    0.2580    3.5420 c3        1 ESG     -0.172000
     19 C5'         3.0020    0.1580    1.9720 c3        1 ESG     -0.267000
     20 C6'         4.0120   -0.9060    1.8050 c2        1 ESG      0.325000
     21 CA1        -4.5370   -2.2860   -3.2210 c3        1 ESG     -0.128000
     22 CA2        -0.1090    1.3110   -0.5780 c2        1 ESG      0.007000
     23 CA3        -1.1170    5.0240   -0.4660 c2        1 ESG     -0.121000
     24 CB1        -3.8420   -0.9360   -3.1110 c3        1 ESG     -0.140000
     25 CB2         1.3520    1.0750   -0.2930 c3        1 ESG     -0.291000
     26 CD1        -1.9670    0.1210   -1.8020 c2        1 ESG      0.305000
     27 OE1        -2.7980    0.8820   -1.3710 o         1 ESG     -0.401000
     28 CG1        -2.4060   -1.1360   -2.5880 c3        1 ESG     -0.173000
     29 SG2         1.5170   -0.1800    0.9540 ss        1 ESG      0.089000
     30 HN1        -4.0400   -3.1300   -4.8910 hn        1 ESG      0.126500
     31 HN2         0.0710    0.0770   -2.2310 hn        1 ESG      0.240000
     32 HN3        -0.7530    3.5110    0.8510 hn        1 ESG      0.233000
     33 H1'         5.4050   -3.1470    4.7120 hc        1 ESG      0.080000
     34 H1'A        5.6470   -4.4890    3.8630 hc        1 ESG      0.080000
     35 H1'B        6.2600   -3.0910    3.3700 hc        1 ESG      0.080000
     36 H2'         4.3100   -3.5460    2.0710 h1        1 ESG      0.094000
     37 H2'A        3.4310   -3.6900    3.4130 h1        1 ESG      0.094000
     38 H4'         1.9100    0.3370    3.8830 hc        1 ESG      0.163000
     39 H4'A        3.1660    1.1440    3.8160 hc        1 ESG      0.163000
     40 H5'         3.2800    1.0310    1.6240 h1        1 ESG      0.219000
     41 HA2        -0.6300    1.1330    0.2290 h4        1 ESG      0.150000
     42 HA3        -0.4330    5.4010   -1.0670 h4        1 ESG      0.088500
     43 HA3A       -1.9640    4.9520   -0.9420 h4        1 ESG      0.088500
     44 HB1        -4.3320   -0.3710   -2.4970 hc        1 ESG      0.096000
     45 HB1A       -3.8120   -0.5140   -3.9890 hc        1 ESG      0.096000
     46 HB2         1.7970    0.7850   -1.1060 h1        1 ESG      0.135500
     47 HB2A        1.7640    1.9120    0.0260 h1        1 ESG      0.135500
     48 HG1        -1.7970   -1.2780   -3.3480 hc        1 ESG      0.104000
     49 HG1A       -2.3790   -1.9220   -1.9930 hc        1 ESG      0.104000
     50 H23        -5.5140   -3.0530   -4.6850 hn        1 ESG      0.126500
     51 H24        -3.9850   -2.9700   -2.8060 h1        1 ESG      0.080000
@<TRIPOS>BOND
     1    1   12 1   
     2    1   21 1   
     3    2   21 1   
     4    2   30 1   
     5    2   50 1   
     6    3    5 1   
     7    3    7 1   
     8    4   22 1   
     9    4   26 1   
    10    4   31 1   
    11    6   16 1   
    12    6   17 1   
    13    7   23 1   
    14    7   32 1   
    15    8   13 1   
    16    8   33 1   
    17    8   34 1   
    18    8   35 1   
    19    9   13 1   
    20    9   15 1   
    21    9   20 1   
    22   10   15 1   
    23   13   36 1   
    24   13   37 1   
    25   14   20 1   
    26   15   18 1   
    27   18   19 1   
    28   18   38 1   
    29   18   39 1   
    30   19   20 1   
    31   19   29 1   
    32   19   40 1   
    33   21   24 1   
    34   21   51 1   
    35   22   25 1   
    36   22   41 1   
    37   23   42 1   
    38   23   43 1   
    39   24   28 1   
    40   24   44 1   
    41   24   45 1   
    42   25   29 1   
    43   25   46 1   
    44   25   47 1   
    45   26   27 1   
    46   26   28 1   
    47   28   48 1   
    48   28   49 1   
@<TRIPOS>SUBSTRUCTURE
     1 ESG         1 TEMP              0 ****  ****    0 ROOT
