@<TRIPOS>MOLECULE
ESG
   51    51     1     0     0
SMALL
bcc


@<TRIPOS>ATOM
      1 C1         -6.5200   -2.5480   -1.6430 c         1 ESG      0.888600
      2 N1         -7.2610   -0.8780    0.1210 n3        1 ESG     -0.895800
      3 C2         -0.0950    1.9150   -0.6320 c         1 ESG      0.615100
      4 N2         -2.0000    0.3540   -0.3570 n         1 ESG     -0.553900
      5 N1'         4.9110   -1.7510   -0.1760 n         1 ESG     -0.520400
      6 O11        -5.7170   -2.8720   -2.5600 o         1 ESG     -0.845300
      7 O12        -7.5180   -3.2430   -1.2920 o         1 ESG     -0.845300
      8 C2'         5.7730   -2.7060   -0.8110 c3        1 ESG      0.105000
      9 C3'         5.1610   -1.1550    1.0790 c         1 ESG      0.712500
     10 O31         3.6480    2.6080    0.3270 o         1 ESG     -0.849800
     11 O32         3.8020    4.6840   -0.4800 o         1 ESG     -0.849800
     12 C4'         4.0380   -0.1820    1.4040 c3        1 ESG     -0.143400
     13 C5'         3.0540   -0.2950    0.2360 c3        1 ESG     -0.094600
     14 C6'         3.6930   -1.2870   -0.7290 c         1 ESG      0.717500
     15 CA1        -6.2850   -1.1800   -0.9200 c3        1 ESG      0.019500
     16 CA2        -0.6330    0.6080    0.0210 c3        1 ESG      0.033700
     17 CA3         1.6300    3.6680   -0.5340 c3        1 ESG     -0.055000
     18 CB1        -4.8360   -1.1300   -0.4300 c3        1 ESG     -0.061400
     19 CB2         0.3170   -0.5320   -0.3820 c3        1 ESG     -0.030300
     20 CD1        -3.0290    0.3040    0.5690 c         1 ESG      0.661100
     21 OE1        -2.7880    0.2840    1.7950 o         1 ESG     -0.640100
     22 CG1        -4.4510    0.2560    0.0410 c3        1 ESG     -0.144400
     23 SG2         1.5090   -0.8410    0.8910 ss        1 ESG     -0.276200
     24 HN1        -8.1490   -1.2400   -0.1900 hn        1 ESG      0.331300
     25 HN2        -2.2230    0.5010   -1.3150 hn        1 ESG      0.326500
     26 HN3         1.3630    2.0960    0.7810 hn        1 ESG      0.319500
     27 H1'         5.5450   -4.3730    0.5870 hc        1 ESG      0.039033
     28 H1'A        4.4210   -4.4250   -0.8360 hc        1 ESG      0.039033
     29 H1'B        6.1810   -4.8100   -1.0560 hc        1 ESG      0.039033
     30 H2'         6.8290   -2.4870   -0.4810 h1        1 ESG      0.056700
     31 H2'A        5.6990   -2.5460   -1.9260 h1        1 ESG      0.056700
     32 H4'         3.5710   -0.4530    2.3840 hc        1 ESG      0.124700
     33 H4'A        4.4390    0.8690    1.4670 hc        1 ESG      0.124700
     34 H5'         2.9630    0.7080   -0.2780 h1        1 ESG      0.180700
     35 HA2        -0.6050    0.7100    1.1520 h1        1 ESG      0.110700
     36 HA3         1.2010    4.6400   -0.1620 h1        1 ESG      0.048700
     37 HA3A        1.5200    3.6510   -1.6530 h1        1 ESG      0.048700
     38 HB1        -4.6840   -1.8670    0.4000 hc        1 ESG      0.056700
     39 HB1A       -4.1850   -1.4480   -1.2890 hc        1 ESG      0.056700
     40 HB2        -0.2490   -1.4910   -0.4980 h1        1 ESG      0.095200
     41 HB2A        0.8180   -0.3140   -1.3570 h1        1 ESG      0.095200
     42 HG1        -4.5800    0.9910   -0.7960 hc        1 ESG      0.064700
     43 HG1A       -5.1220    0.5760    0.8820 hc        1 ESG      0.064700
     44 H23        -7.0190   -1.3960    0.9470 hn        1 ESG      0.331300
     45 H24        -6.4150   -0.3830   -1.7110 h1        1 ESG      0.040700
     46 O2         -0.5760    2.3310   -1.7100 o         1 ESG     -0.644100
     47 O2'         3.2730   -1.6370   -1.8380 o         1 ESG     -0.603500
     48 C1'         5.4550   -4.1640   -0.5060 c3        1 ESG     -0.114100
     49 N3          0.8790    2.5900    0.0580 n         1 ESG     -0.516900
     50 O1'         6.1540   -1.4110    1.7730 o         1 ESG     -0.629500
     51 C3          3.1450    3.6480   -0.1990 c         1 ESG      0.908600
@<TRIPOS>BOND
     1    1    6 1   
     2    1    7 1   
     3    1   15 1   
     4    2   15 1   
     5    2   24 1   
     6    2   44 1   
     7    3   16 1   
     8    3   46 2   
     9    3   49 1   
    10    4   16 1   
    11    4   20 1   
    12    4   25 1   
    13    5    8 1   
    14    5    9 1   
    15    5   14 1   
    16    8   30 1   
    17    8   31 1   
    18    8   48 1   
    19    9   12 1   
    20    9   50 2   
    21   10   51 1   
    22   11   51 1   
    23   12   13 1   
    24   12   32 1   
    25   12   33 1   
    26   13   14 1   
    27   13   23 1   
    28   13   34 1   
    29   14   47 2   
    30   15   18 1   
    31   15   45 1   
    32   16   19 1   
    33   16   35 1   
    34   17   36 1   
    35   17   37 1   
    36   17   49 1   
    37   17   51 1   
    38   18   22 1   
    39   18   38 1   
    40   18   39 1   
    41   19   23 1   
    42   19   40 1   
    43   19   41 1   
    44   20   21 2   
    45   20   22 1   
    46   22   42 1   
    47   22   43 1   
    48   26   49 1   
    49   27   48 1   
    50   28   48 1   
    51   29   48 1   
@<TRIPOS>SUBSTRUCTURE
     1 ESG         1 TEMP              0 ****  ****    0 ROOT
