@<TRIPOS>MOLECULE
ESG
   54    51     1     0     0
SMALL
bcc


@<TRIPOS>ATOM
      1 C1          3.5190    0.2260    1.5400 c2        1 ESG      0.350000
      2 N1          2.0140    0.4940   -0.4010 n3        1 ESG     -0.167000
      3 C2          5.9920    1.6370    3.5490 c2        1 ESG      0.381000
      4 N2          6.3690   -0.6960    2.7750 n4        1 ESG     -0.071000
      5 N1'         9.7540   -4.5310    2.5000 n         1 ESG     -0.347000
      6 O11         3.7810    0.6050    2.7090 o         1 ESG     -0.529000
      7 O12         4.1880   -0.6390    0.9150 o         1 ESG     -0.529000
      8 C2'        10.7820   -4.2450    1.5110 c3        1 ESG     -0.107000
      9 C3'         9.5270   -5.8160    3.0730 c2        1 ESG      0.305000
     10 O31         5.8530    3.0300    8.2550 o         1 ESG     -0.228000
     11 O32         6.5530    1.2460    6.9040 os        1 ESG     -0.330000
     12 C4'         8.3960   -5.7170    4.0900 c3        1 ESG     -0.193000
     13 C5'         8.0230   -4.2350    4.1290 c3        1 ESG     -0.239000
     14 C6'         8.9080   -3.5810    3.0590 c2        1 ESG      0.338000
     15 CA1         2.3020    0.8640    0.8220 c2        1 ESG      0.139000
     16 CA2         6.8850    0.4360    3.5330 c2        1 ESG     -0.215000
     17 CB1         1.5460    1.8800    1.6000 c3        1 ESG     -0.189000
     18 CB2         8.0740    0.4430    4.1600 c2        1 ESG     -0.023000
     19 CD1         5.2290   -1.4290    3.4440 c2        1 ESG      0.272000
     20 OE1         4.8810   -1.1200    4.5700 o         1 ESG     -0.209000
     21 CG1         0.3450    2.4770    0.9190 c3        1 ESG     -0.243000
     22 SG2         6.3230   -3.8980    3.7420 sh        1 ESG     -0.049000
     23 HN1        -0.4140    1.6960    0.6680 hc        1 ESG      0.101667
     24 HN2         7.1390   -1.3650    2.5990 hn        1 ESG      0.287000
     25 HN3         4.7140    2.7190    4.7440 hn        1 ESG      0.227500
     26 H1'         9.0060   -0.1620    1.7470 ha        1 ESG      0.001250
     27 H1'A        9.4780   -0.4810    1.3790 ha        1 ESG      0.001250
     28 H1'B        9.5660   -4.7740   -0.2720 ha        1 ESG      0.076000
     29 H2'        11.6710   -4.9290    1.7270 h1        1 ESG      0.183500
     30 H2'A       11.1340   -3.1750    1.6710 h1        1 ESG      0.183500
     31 H4'         7.5410   -6.3600    3.7550 hc        1 ESG      0.154500
     32 H4'A        8.7530   -6.0880    5.0840 hc        1 ESG      0.154500
     33 H5'         8.2790   -3.7860    5.1240 h1        1 ESG      0.163000
     34 HA2         8.7790   -0.4040    4.1250 ha        1 ESG      0.192500
     35 HA3         9.4810    2.2540    6.5640 ha        1 ESG      0.001250
     36 HA3A        8.8290    2.3300    6.7320 ha        1 ESG      0.001250
     37 HB1         0.6300    3.0210   -0.0140 hc        1 ESG      0.101667
     38 HB1A        2.2880    2.6870    1.8770 hc        1 ESG      0.166500
     39 HB2         5.7570   -4.3460    4.8640 hs        1 ESG      0.096000
     40 HB2A        8.3800    1.3280    4.7620 ha        1 ESG      0.192500
     41 HG1         4.7660   -2.1550    2.7350 hx        1 ESG      0.225000
     42 HG1A       -0.1400    3.2140    1.6080 hc        1 ESG      0.101667
     43 H23         1.2420    0.8780   -0.9130 hn        1 ESG      0.279500
     44 H24         1.2500    1.3880    2.5740 hc        1 ESG      0.166500
     45 O2'         8.8810   -2.3740    2.7520 o         1 ESG     -0.397000
     46 C1'        10.5230   -4.3970    0.1040 c1        1 ESG     -0.036000
     47 N3          5.3220    1.9020    4.8410 n4        1 ESG     -0.083000
     48 C3          6.1250    2.5400    7.1850 cu        1 ESG      0.206000
     49 H13         2.5850   -0.2010   -0.8580 hn        1 ESG      0.279500
     50 H22         6.0030   -0.3540    1.8620 hn        1 ESG      0.287000
     51 H32         4.7530    1.0810    5.0860 hn        1 ESG      0.227500
     52 O2          5.8140    2.3850    2.5940 o         1 ESG     -0.222000
     53 O1'        10.1650   -6.8210    2.7660 o         1 ESG     -0.254000
     54 CA3         6.4550    2.1940    5.8010 cu        1 ESG     -0.181000
@<TRIPOS>BOND
     1    1    6 1   
     2    1    7 1   
     3    1   15 1   
     4    2   15 1   
     5    2   43 1   
     6    2   49 1   
     7    3   16 1   
     8    3   47 1   
     9    3   52 1   
    10    4   16 1   
    11    4   19 1   
    12    4   24 1   
    13    4   50 1   
    14    5    8 1   
    15    5    9 1   
    16    5   14 1   
    17    8   29 1   
    18    8   30 1   
    19    8   46 1   
    20    9   12 1   
    21    9   53 1   
    22   10   48 1   
    23   11   48 1   
    24   11   54 1   
    25   12   13 1   
    26   12   31 1   
    27   12   32 1   
    28   13   14 1   
    29   13   22 1   
    30   13   33 1   
    31   14   45 1   
    32   15   17 1   
    33   16   18 1   
    34   17   21 1   
    35   17   38 1   
    36   17   44 1   
    37   18   34 1   
    38   18   40 1   
    39   19   20 1   
    40   19   41 1   
    41   21   23 1   
    42   21   37 1   
    43   21   42 1   
    44   22   39 1   
    45   25   47 1   
    46   26   27 1   
    47   28   46 1   
    48   35   36 1   
    49   47   51 1   
    50   47   54 1   
    51   48   54 1   
@<TRIPOS>SUBSTRUCTURE
     1 ESG         1 TEMP              0 ****  ****    0 ROOT
