@<TRIPOS>MOLECULE
ESG
   54    50     1     0     0
SMALL
bcc


@<TRIPOS>ATOM
      1 C1          4.6190    0.1380    1.1140 c         1 ESG      0.810300
      2 N1          4.0090   -0.5370   -1.1920 nv        1 ESG     -0.331100
      3 C2          7.8710    2.5120    2.5070 c         1 ESG      0.570100
      4 N2          6.8010    0.4960    3.5660 ny        1 ESG     -0.577600
      5 N1'         8.4700   -4.2170    2.1820 n         1 ESG     -0.416600
      6 O11         4.2760    0.8500    2.0870 o         1 ESG     -0.766300
      7 O12         5.6800   -0.5260    1.0210 o         1 ESG     -0.766300
      8 C2'         9.3140   -3.6630    1.2050 c2        1 ESG     -0.051400
      9 C3'         8.1650   -5.5970    2.3610 c         1 ESG      0.703500
     10 O31         5.6760    1.6310    6.4820 o         1 ESG     -0.755300
     11 O32         7.3130    0.8790    7.8340 o         1 ESG     -0.755300
     12 C4'         7.1990   -5.7480    3.5310 c3        1 ESG     -0.149400
     13 C5'         6.9330   -4.3270    4.0260 c3        1 ESG     -0.071600
     14 C6'         7.7860   -3.4300    3.1270 c         1 ESG      0.732500
     15 CA1         3.6370    0.0810   -0.1000 ce        1 ESG      0.325300
     16 CA2         7.6280    1.6870    3.7240 ce        1 ESG     -0.168200
     17 CB1         2.3280    0.7550    0.0920 c3        1 ESG     -0.188700
     18 CB2         8.1860    2.0250    4.9020 c2        1 ESG     -0.066000
     19 CD1         5.4490    0.6010    4.2320 c         1 ESG      0.654900
     20 OE1         4.9880   -0.4350    4.6810 o         1 ESG     -0.489100
     21 CG1         1.3890    0.7300   -1.0820 c3        1 ESG     -0.122100
     22 SG2         5.2000   -4.0350    3.8890 sh        1 ESG     -0.320900
     23 HN1         1.1120   -0.3150   -1.3630 hc        1 ESG      0.056367
     24 HN2         7.3080   -0.3240    3.9330 hn        1 ESG      0.493300
     25 HN3         6.4930    0.7940   10.1700 hn        1 ESG      0.476300
     26 H1'         8.1280   -0.1670    0.9510 ha        1 ESG      0.003000
     27 H1'A        8.1040   -0.7740    1.2530 ha        1 ESG      0.003000
     28 H1'B       10.0650   -5.4360    0.2280 ha        1 ESG      0.143500
     29 H2'         9.3210   -2.5530    1.2490 h4        1 ESG      0.158000
     30 H2'A       10.6700   -3.7960   -0.4080 ha        1 ESG      0.143500
     31 H4'         7.6660   -6.3850    4.3230 hc        1 ESG      0.111200
     32 H4'A        7.2760   -4.1860    5.0820 h1        1 ESG      0.111700
     33 H5'         6.2620   -6.2540    3.1770 hc        1 ESG      0.111200
     34 HA2         8.0450    1.4560    5.8410 ha        1 ESG      0.173500
     35 HA3         4.9470    1.1810   10.8030 hn        1 ESG      0.476300
     36 HA3A        4.1510    1.7690    8.5800 h4        1 ESG      0.188000
     37 HB1         1.8340    1.2380   -1.9720 hc        1 ESG      0.056367
     38 HB1A        2.5590    1.8190    0.4010 hc        1 ESG      0.127200
     39 HB2         5.1460   -2.7730    4.3070 hs        1 ESG      0.232800
     40 HB2A        8.8140    2.9250    4.9850 ha        1 ESG      0.173500
     41 HG1         5.0270    1.6270    4.2260 hx        1 ESG      0.143200
     42 HG1A        0.4480    1.2730   -0.8150 hc        1 ESG      0.056367
     43 H23         3.4270   -0.6050   -2.0040 hn        1 ESG      0.322700
     44 H24         1.8500    0.2770    0.9980 hc        1 ESG      0.127200
     45 O2'         7.8920   -2.1980    3.2260 o         1 ESG     -0.653500
     46 C1'        10.0420   -4.3410    0.3090 c2        1 ESG     -0.233000
     47 N3          5.5490    1.1150   10.0050 nv        1 ESG     -0.647600
     48 C3          6.1610    1.2920    7.5850 c         1 ESG      0.884600
     49 H13         4.9190   -0.9710   -1.2240 hn        1 ESG      0.322700
     50 H22         6.6410    0.3240    2.5430 hn        1 ESG      0.493300
     51 H32         8.4360    3.4490    2.7030 h4        1 ESG      0.038200
     52 O2          7.4900    2.1810    1.3860 o         1 ESG     -0.496100
     53 O1'         8.6170   -6.5130    1.6760 o         1 ESG     -0.547500
     54 CA3         5.1820    1.4140    8.7970 c2        1 ESG      0.147000
@<TRIPOS>BOND
     1    1    6 1   
     2    1    7 1   
     3    1   15 1   
     4    2   15 2   
     5    2   43 1   
     6    2   49 1   
     7    3   16 1   
     8    3   51 1   
     9    3   52 2   
    10    4   16 1   
    11    4   19 1   
    12    4   24 1   
    13    4   50 1   
    14    5    8 1   
    15    5    9 1   
    16    5   14 1   
    17    8   29 1   
    18    8   46 2   
    19    9   12 1   
    20    9   53 2   
    21   10   48 1   
    22   11   48 1   
    23   12   13 1   
    24   12   31 1   
    25   12   33 1   
    26   13   14 1   
    27   13   22 1   
    28   13   32 1   
    29   14   45 2   
    30   15   17 1   
    31   16   18 2   
    32   17   21 1   
    33   17   38 1   
    34   17   44 1   
    35   18   34 1   
    36   18   40 1   
    37   19   20 2   
    38   19   41 1   
    39   21   23 1   
    40   21   37 1   
    41   21   42 1   
    42   22   39 1   
    43   25   47 1   
    44   26   27 1   
    45   28   46 1   
    46   30   46 1   
    47   35   47 1   
    48   36   54 1   
    49   47   54 1   
    50   48   54 2   
@<TRIPOS>SUBSTRUCTURE
     1 ESG         1 TEMP              0 ****  ****    0 ROOT
