@<TRIPOS>MOLECULE
ESG
   54    50     1     0     0
SMALL
bcc


@<TRIPOS>ATOM
      1 C1          3.1540   -0.7970    1.0440 c2        1 ESG      0.353000
      2 N1          1.0130   -0.1230   -0.0270 n3        1 ESG     -0.188000
      3 C2          5.5150    2.0630    3.1600 c2        1 ESG      0.253000
      4 N2          5.6460   -0.3940    3.2390 n4        1 ESG      0.011000
      5 N1'         9.3780   -3.8230    2.9140 n         1 ESG     -0.357000
      6 O11         4.3440   -0.9700    0.6930 o         1 ESG     -0.500500
      7 O12         2.5930   -1.2570    2.0670 o         1 ESG     -0.500500
      8 C2'        10.3230   -2.8820    2.3420 c3        1 ESG     -0.104000
      9 C3'         9.4980   -5.2370    2.8210 c2        1 ESG      0.308000
     10 O31         8.7820    2.7290   10.8240 o         1 ESG     -0.221500
     11 O32         7.8590    2.0520    8.7370 o         1 ESG     -0.221500
     12 C4'         8.3290   -5.8830    3.5540 c3        1 ESG     -0.193000
     13 C5'         7.5100   -4.7180    4.1180 c3        1 ESG     -0.251000
     14 C6'         8.2570   -3.4590    3.6590 c2        1 ESG      0.347000
     15 CA1         2.2890    0.1290    0.1330 c2        1 ESG      0.136000
     16 CA2         6.1440    0.8890    3.6670 c2        1 ESG     -0.647000
     17 CB1         3.0150    1.2770   -0.4640 c3        1 ESG     -0.208000
     18 CB2         7.4210    0.9760    4.3860 c3        1 ESG     -0.069000
     19 CD1         4.6290   -1.0360    4.1190 c2        1 ESG      0.234000
     20 OE1         4.5800   -0.7770    5.3160 o         1 ESG     -0.284000
     21 CG1         2.2190    2.1630   -1.3810 c3        1 ESG     -0.235000
     22 SG2         5.8540   -4.6680    3.4970 sh        1 ESG      0.035000
     23 HN1         0.5980   -0.9010    0.4550 hn        1 ESG      0.266000
     24 HN2         6.4280   -1.0530    3.1230 hn        1 ESG      0.271000
     25 HN3         5.2730    1.1370    5.9590 hn        1 ESG      0.285500
     26 H1'         8.5340   -0.7350    2.1610 ha        1 ESG      0.011000
     27 H1'A        8.9430   -0.3090    1.8200 ha        1 ESG      0.011000
     28 H1'B        9.1420   -2.4440    0.5140 ha        1 ESG      0.076000
     29 H2'        11.2860   -3.4510    2.1060 h1        1 ESG      0.170500
     30 H2'A       10.5740   -2.1140    3.1380 h1        1 ESG      0.170500
     31 H4'         7.7340   -6.4980    2.8300 hc        1 ESG      0.151000
     32 H4'A        8.7180   -6.5540    4.3600 hc        1 ESG      0.151000
     33 H5'         7.5090   -4.7360    5.2370 h1        1 ESG      0.152000
     34 HA2         8.0440    0.0340    4.2990 hc        1 ESG      0.145000
     35 HA3         8.2070    1.4330    6.4420 h4        1 ESG      0.185000
     36 HA3A        6.0630    1.5130    7.4490 hn        1 ESG      0.285500
     37 HB1         1.8190    1.5940   -2.2550 hc        1 ESG      0.093000
     38 HB1A        3.9130    0.8430   -0.9970 hc        1 ESG      0.182000
     39 HB2         5.3070   -5.5590    4.3120 hs        1 ESG      0.055000
     40 HB2A        8.0470    1.8200    3.9710 hc        1 ESG      0.145000
     41 HG1         3.9460   -1.7280    3.5540 hx        1 ESG      0.250000
     42 HG1A        2.8810    2.9750   -1.7750 hc        1 ESG      0.093000
     43 H23         0.4160    0.4520   -0.5860 hn        1 ESG      0.266000
     44 H24         3.4370    1.8720    0.4070 hc        1 ESG      0.182000
     45 O2'         7.9440   -2.2860    3.9290 o         1 ESG     -0.398000
     46 C1'        10.0140   -2.1730    1.1200 c1        1 ESG     -0.056000
     47 N3          6.1310    1.3240    6.4660 n3        1 ESG     -0.154000
     48 C3          8.3220    2.3930    9.7880 c1        1 ESG      0.445000
     49 H13         1.3680    2.6480   -0.8440 hc        1 ESG      0.093000
     50 H22         5.1970   -0.2560    2.3070 hn        1 ESG      0.271000
     51 H32         5.9940    3.0220    3.4620 h4        1 ESG      0.076000
     52 O2          4.4950    2.0660    2.4390 o         1 ESG     -0.430000
     53 O1'        10.4190   -5.8040    2.2360 o         1 ESG     -0.270000
     54 CA3         7.2770    1.2550    5.8520 c2        1 ESG      0.131000
@<TRIPOS>BOND
     1    1    6 1   
     2    1    7 1   
     3    1   15 1   
     4    2   15 1   
     5    2   23 1   
     6    2   43 1   
     7    3   16 1   
     8    3   51 1   
     9    3   52 1   
    10    4   16 1   
    11    4   19 1   
    12    4   24 1   
    13    4   50 1   
    14    5    8 1   
    15    5    9 1   
    16    5   14 1   
    17    8   29 1   
    18    8   30 1   
    19    8   46 1   
    20    9   12 1   
    21    9   53 1   
    22   10   48 1   
    23   11   48 1   
    24   12   13 1   
    25   12   31 1   
    26   12   32 1   
    27   13   14 1   
    28   13   22 1   
    29   13   33 1   
    30   14   45 1   
    31   15   17 1   
    32   16   18 1   
    33   17   21 1   
    34   17   38 1   
    35   17   44 1   
    36   18   34 1   
    37   18   40 1   
    38   18   54 1   
    39   19   20 1   
    40   19   41 1   
    41   21   37 1   
    42   21   42 1   
    43   21   49 1   
    44   22   39 1   
    45   25   47 1   
    46   26   27 1   
    47   28   46 1   
    48   35   54 1   
    49   36   47 1   
    50   47   54 1   
@<TRIPOS>SUBSTRUCTURE
     1 ESG         1 TEMP              0 ****  ****    0 ROOT
