@<TRIPOS>MOLECULE
ESH
   63    67     1     0     0
SMALL
bcc


@<TRIPOS>ATOM
      1 N1         -5.8490    2.8440   -7.2640 n2        1 ESH     -0.841100
      2 C3         -6.2820    1.8010   -6.6160 ce        1 ESH      0.641800
      3 N2         -7.5970    1.3200   -6.7900 nh        1 ESH     -0.896800
      4 C4         -5.4810    1.0530   -5.5950 ca        1 ESH     -0.194900
      5 C9         -6.0220    0.7450   -4.3440 ca        1 ESH     -0.109500
      6 C8         -5.2550    0.0640   -3.4030 ca        1 ESH     -0.107500
      7 C7         -3.9440   -0.3310   -3.7030 ca        1 ESH     -0.063300
      8 C6         -3.4060   -0.0170   -4.9560 ca        1 ESH     -0.107500
      9 C5         -4.1700    0.6740   -5.8950 ca        1 ESH     -0.109500
     10 C10        -3.1520   -1.0450   -2.6390 c3        1 ESH      0.234800
     11 N11        -1.7180   -0.6990   -2.6860 n3        1 ESH     -0.700600
     12 C12        -1.2720    0.2360   -1.6540 c3        1 ESH      0.153800
     13 C13        -0.2770   -0.4630   -0.7130 c3        1 ESH     -0.100400
     14 C14        -0.0460   -1.8530   -1.2920 c3        1 ESH     -0.094400
     15 C15        -0.9120   -1.9340   -2.5670 c3        1 ESH      0.164500
     16 C16        -1.8470   -3.1530   -2.5880 c3        1 ESH     -0.083700
     17 C17        -1.6540   -4.0510   -3.8420 c3        1 ESH      0.110700
     18 N19        -2.9470   -4.0800   -4.5170 n         1 ESH     -0.475800
     19 C20        -3.8760   -3.2090   -3.9400 c         1 ESH      0.712500
     20 O21        -5.0350   -3.0700   -4.3570 o         1 ESH     -0.618500
     21 C22        -3.2840   -2.5890   -2.6790 c3        1 ESH     -0.144700
     22 C23        -3.1140   -4.6680   -5.8140 c3        1 ESH      0.147300
     23 C24        -2.3950   -3.9760   -6.9400 ca        1 ESH     -0.117300
     24 C32        -3.0660   -3.0330   -7.7240 ca        1 ESH     -0.107500
     25 C31        -2.4180   -2.4150   -8.7930 ca        1 ESH     -0.128000
     26 C30        -1.0880   -2.7420   -9.0750 ca        1 ESH      0.022400
     27 C26        -0.4060   -3.6800   -8.2940 ca        1 ESH     -0.128000
     28 C25        -1.0640   -4.2920   -7.2290 ca        1 ESH     -0.107500
     29 C18        -1.0940   -5.4470   -3.4970 c3        1 ESH     -0.073700
     30 C41         0.2950   -5.3030   -2.9090 c3        1 ESH     -0.091600
     31 C42        -1.9850   -6.2590   -2.5860 c3        1 ESH     -0.091600
     32 CL30       -0.2930   -1.9920  -10.3770 cl        1 ESH     -0.093400
     33 H20        -4.9420    3.1470   -6.9840 hn        1 ESH      0.393400
     34 H12        -8.0820    1.6730   -7.5860 hn        1 ESH      0.399800
     35 H11        -7.6730    0.3340   -6.6790 hn        1 ESH      0.399800
     36 H5         -7.0530    1.0450   -4.0970 ha        1 ESH      0.141500
     37 H6         -5.6900   -0.1760   -2.4210 ha        1 ESH      0.141000
     38 H8         -2.3750   -0.3090   -5.2090 ha        1 ESH      0.141000
     39 H9         -3.7340    0.9160   -6.8770 ha        1 ESH      0.141500
     40 H10        -3.5960   -0.7240   -1.6430 h1        1 ESH      0.045700
     41 H121       -2.1270    0.6720   -1.0700 h1        1 ESH      0.053200
     42 H122       -0.7620    1.0820   -2.1930 h1        1 ESH      0.053200
     43 H132       -0.6950   -0.5260    0.3220 hc        1 ESH      0.049700
     44 H131        0.6770    0.1150   -0.6590 hc        1 ESH      0.049700
     45 H141        1.0290   -2.0070   -1.5540 hc        1 ESH      0.049200
     46 H142       -0.3290   -2.6430   -0.5550 hc        1 ESH      0.049200
     47 H15        -0.2300   -1.9470   -3.4650 h1        1 ESH      0.074700
     48 H16        -1.7240   -3.7630   -1.6600 hc        1 ESH      0.076700
     49 H17        -0.9020   -3.5750   -4.5430 h1        1 ESH      0.055700
     50 H22        -3.9150   -2.9240   -1.8170 hc        1 ESH      0.087700
     51 H231       -4.2220   -4.6800   -6.0380 h1        1 ESH      0.068700
     52 H232       -2.7520   -5.7370   -5.7610 h1        1 ESH      0.068700
     53 H29        -4.1120   -2.7750   -7.4950 ha        1 ESH      0.142500
     54 H28        -2.9520   -1.6760   -9.4090 ha        1 ESH      0.148500
     55 H26         0.6400   -3.9350   -8.5180 ha        1 ESH      0.148500
     56 H25        -0.5310   -5.0330   -6.6120 ha        1 ESH      0.142500
     57 H18        -0.9950   -6.0120   -4.4700 hc        1 ESH      0.048700
     58 H323        0.2750   -4.6790   -1.9810 hc        1 ESH      0.038367
     59 H322        0.7060   -6.3080   -2.6500 hc        1 ESH      0.038367
     60 H321        0.9820   -4.8160   -3.6430 hc        1 ESH      0.038367
     61 H333       -2.0840   -5.7830   -1.5810 hc        1 ESH      0.038367
     62 H332       -1.5470   -7.2780   -2.4420 hc        1 ESH      0.038367
     63 H331       -3.0040   -6.3740   -3.0260 hc        1 ESH      0.038367
@<TRIPOS>BOND
     1    1    2 2   
     2    1   33 1   
     3    2    3 1   
     4    2    4 1   
     5    3   34 1   
     6    3   35 1   
     7    4    5 ar  
     8    4    9 ar  
     9    5    6 ar  
    10    5   36 1   
    11    6    7 ar  
    12    6   37 1   
    13    7    8 ar  
    14    7   10 1   
    15    8    9 ar  
    16    8   38 1   
    17    9   39 1   
    18   10   11 1   
    19   10   21 1   
    20   10   40 1   
    21   11   12 1   
    22   11   15 1   
    23   12   13 1   
    24   12   41 1   
    25   12   42 1   
    26   13   14 1   
    27   13   43 1   
    28   13   44 1   
    29   14   15 1   
    30   14   45 1   
    31   14   46 1   
    32   15   16 1   
    33   15   47 1   
    34   16   17 1   
    35   16   21 1   
    36   16   48 1   
    37   17   18 1   
    38   17   29 1   
    39   17   49 1   
    40   18   19 1   
    41   18   22 1   
    42   19   20 2   
    43   19   21 1   
    44   21   50 1   
    45   22   23 1   
    46   22   51 1   
    47   22   52 1   
    48   23   24 ar  
    49   23   28 ar  
    50   24   25 ar  
    51   24   53 1   
    52   25   26 ar  
    53   25   54 1   
    54   26   27 ar  
    55   26   32 1   
    56   27   28 ar  
    57   27   55 1   
    58   28   56 1   
    59   29   30 1   
    60   29   31 1   
    61   29   57 1   
    62   30   58 1   
    63   30   59 1   
    64   30   60 1   
    65   31   61 1   
    66   31   62 1   
    67   31   63 1   
@<TRIPOS>SUBSTRUCTURE
     1 ESH         1 TEMP              0 ****  ****    0 ROOT
