@<TRIPOS>MOLECULE
ESH
   64    68     1     0     0
SMALL
bcc


@<TRIPOS>ATOM
      1 N1          0.9710    1.0040    0.7210 n2        1 ESH     -0.680100
      2 C3          0.8740    0.2400   -0.2830 ce        1 ESH      0.633800
      3 N2         -0.1130   -0.9220   -0.4230 nz        1 ESH     -0.891600
      4 C4          1.7080    0.3140   -1.5040 ca        1 ESH     -0.217900
      5 C9          3.0920    0.1430   -1.4030 ca        1 ESH     -0.089500
      6 C8          3.8670    0.1530   -2.5610 ca        1 ESH     -0.094000
      7 C7          3.2700    0.3240   -3.8170 ca        1 ESH     -0.018300
      8 C6          1.8890    0.5500   -3.8990 ca        1 ESH     -0.094000
      9 C5          1.1070    0.5470   -2.7480 ca        1 ESH     -0.089500
     10 C10         4.1490    0.2710   -5.0450 c3        1 ESH      0.226800
     11 N11         3.6300    1.1230   -6.1250 n3        1 ESH     -0.713600
     12 C12         4.4650    2.2710   -6.4820 c3        1 ESH      0.153800
     13 C13         4.8890    2.1620   -7.9550 c3        1 ESH     -0.098400
     14 C14         4.1930    0.9280   -8.5120 c3        1 ESH     -0.092400
     15 C15         3.4090    0.3060   -7.3390 c3        1 ESH      0.167500
     16 C16         3.8100   -1.1510   -7.0490 c3        1 ESH     -0.087700
     17 C17         2.6180   -2.1500   -7.1120 c3        1 ESH      0.115700
     18 N19         2.4990   -2.7160   -5.7670 n         1 ESH     -0.477800
     19 C20         3.4900   -2.2550   -4.9030 c         1 ESH      0.708500
     20 O21         3.6750   -2.6960   -3.7560 o         1 ESH     -0.643500
     21 C22         4.3150   -1.1730   -5.5890 c3        1 ESH     -0.150700
     22 C23         1.6510   -3.8360   -5.4730 c3        1 ESH      0.149300
     23 C24         0.6660   -3.5960   -4.3560 ca        1 ESH     -0.083300
     24 C32         1.0310   -3.8980   -3.0370 ca        1 ESH     -0.086500
     25 C31         0.1150   -3.7410   -2.0000 ca        1 ESH     -0.152000
     26 C30        -1.1670   -3.2550   -2.2850 ca        1 ESH     -0.035600
     27 C26        -1.5440   -2.9550   -3.5960 ca        1 ESH     -0.152000
     28 C25        -0.6200   -3.1260   -4.6280 ca        1 ESH     -0.086500
     29 C18         2.7770   -3.1810   -8.2480 c3        1 ESH     -0.081700
     30 C41         2.7890   -2.4670   -9.5850 c3        1 ESH     -0.095100
     31 C42         3.9910   -4.0710   -8.1000 c3        1 ESH     -0.095100
     32 Cl30       -2.2900   -3.0560   -1.0140 cl        1 ESH     -0.118400
     33 H20         0.4120    0.9140    1.5410 hn        1 ESH      0.454400
     34 H12         0.4130   -1.7770   -0.6550 hn        1 ESH      0.459467
     35 H11        -0.6690   -1.0890    0.4170 hn        1 ESH      0.459467
     36 H5          3.5710    0.0030   -0.4210 ha        1 ESH      0.142500
     37 H6          4.9560    0.0000   -2.4820 ha        1 ESH      0.166000
     38 H8          1.4100    0.7340   -4.8750 ha        1 ESH      0.166000
     39 H9          0.0290    0.7500   -2.8260 ha        1 ESH      0.142500
     40 H10         5.1770    0.6230   -4.7190 h1        1 ESH      0.066700
     41 H121        3.8270    3.1850   -6.3280 h1        1 ESH      0.056200
     42 H122        5.3680    2.3720   -5.8210 h1        1 ESH      0.056200
     43 H132        4.5870    3.0820   -8.5130 hc        1 ESH      0.059200
     44 H131        6.0000    2.0660   -8.0360 hc        1 ESH      0.059200
     45 H141        3.4860    1.2050   -9.3330 hc        1 ESH      0.057200
     46 H142        4.9350    0.2090   -8.9380 hc        1 ESH      0.057200
     47 H15         2.3060    0.3700   -7.5620 h1        1 ESH      0.072700
     48 H16         4.6190   -1.4840   -7.7460 hc        1 ESH      0.088700
     49 H17         1.6590   -1.5870   -7.3210 h1        1 ESH      0.057700
     50 H22         5.3930   -1.4720   -5.5260 hc        1 ESH      0.101700
     51 H231        2.2950   -4.7200   -5.1850 h1        1 ESH      0.068700
     52 H232        1.0720   -4.1100   -6.4020 h1        1 ESH      0.068700
     53 H29         2.0560   -4.2510   -2.8250 ha        1 ESH      0.166000
     54 H28         0.3860   -4.0510   -0.9790 ha        1 ESH      0.153000
     55 H26        -2.5640   -2.6050   -3.8200 ha        1 ESH      0.153000
     56 H25        -0.9180   -2.8980   -5.6640 ha        1 ESH      0.166000
     57 H18         1.8640   -3.8450   -8.2350 hc        1 ESH      0.051700
     58 H323        3.6580   -1.7710   -9.6660 hc        1 ESH      0.043533
     59 H322        2.8610   -3.2160  -10.4120 hc        1 ESH      0.043533
     60 H321        1.8510   -1.8770   -9.7230 hc        1 ESH      0.043533
     61 H333        4.0150   -4.8150   -8.9340 hc        1 ESH      0.043533
     62 H332        4.9390   -3.4830   -8.1380 hc        1 ESH      0.043533
     63 H331        3.9580   -4.6300   -7.1340 hc        1 ESH      0.043533
     64 H23        -0.7470   -0.7300   -1.2080 hn        1 ESH      0.459467
@<TRIPOS>BOND
     1    1    2 2   
     2    1   33 1   
     3    2    3 1   
     4    2    4 1   
     5    3   34 1   
     6    3   35 1   
     7    3   64 1   
     8    4    5 ar  
     9    4    9 ar  
    10    5    6 ar  
    11    5   36 1   
    12    6    7 ar  
    13    6   37 1   
    14    7    8 ar  
    15    7   10 1   
    16    8    9 ar  
    17    8   38 1   
    18    9   39 1   
    19   10   11 1   
    20   10   21 1   
    21   10   40 1   
    22   11   12 1   
    23   11   15 1   
    24   12   13 1   
    25   12   41 1   
    26   12   42 1   
    27   13   14 1   
    28   13   43 1   
    29   13   44 1   
    30   14   15 1   
    31   14   45 1   
    32   14   46 1   
    33   15   16 1   
    34   15   47 1   
    35   16   17 1   
    36   16   21 1   
    37   16   48 1   
    38   17   18 1   
    39   17   29 1   
    40   17   49 1   
    41   18   19 1   
    42   18   22 1   
    43   19   20 2   
    44   19   21 1   
    45   21   50 1   
    46   22   23 1   
    47   22   51 1   
    48   22   52 1   
    49   23   24 ar  
    50   23   28 ar  
    51   24   25 ar  
    52   24   53 1   
    53   25   26 ar  
    54   25   54 1   
    55   26   27 ar  
    56   26   32 1   
    57   27   28 ar  
    58   27   55 1   
    59   28   56 1   
    60   29   30 1   
    61   29   31 1   
    62   29   57 1   
    63   30   58 1   
    64   30   59 1   
    65   30   60 1   
    66   31   61 1   
    67   31   62 1   
    68   31   63 1   
@<TRIPOS>SUBSTRUCTURE
     1 ESH         1 TEMP              0 ****  ****    0 ROOT
