@<TRIPOS>MOLECULE
ESH
   64    68     1     0     0
SMALL
bcc


@<TRIPOS>ATOM
      1 N1          1.0530    0.9610    0.7570 n2        1 ESH     -0.680100
      2 C3          0.9320    0.2130   -0.2570 ce        1 ESH      0.633800
      3 N2         -0.0850   -0.9220   -0.4070 n4        1 ESH     -0.891600
      4 C4          1.7620    0.2820   -1.4800 ca        1 ESH     -0.217900
      5 C9          3.1420    0.0750   -1.3880 ca        1 ESH     -0.089500
      6 C8          3.9120    0.0810   -2.5500 ca        1 ESH     -0.094000
      7 C7          3.3140    0.2830   -3.8010 ca        1 ESH     -0.018300
      8 C6          1.9380    0.5450   -3.8730 ca        1 ESH     -0.094000
      9 C5          1.1620    0.5470   -2.7180 ca        1 ESH     -0.089500
     10 C10         4.1860    0.2250   -5.0340 c3        1 ESH      0.226800
     11 N11         3.6840    1.1050   -6.1000 n3        1 ESH     -0.713600
     12 C12         4.5460    2.2350   -6.4450 c3        1 ESH      0.153800
     13 C13         4.9610    2.1360   -7.9210 c3        1 ESH     -0.098400
     14 C14         4.2320    0.9270   -8.4920 c3        1 ESH     -0.092400
     15 C15         3.4380    0.3090   -7.3240 c3        1 ESH      0.167500
     16 C16         3.8020   -1.1610   -7.0550 c3        1 ESH     -0.087700
     17 C17         2.5850   -2.1280   -7.1240 c3        1 ESH      0.115700
     18 N19         2.4580   -2.7090   -5.7870 n         1 ESH     -0.477800
     19 C20         3.4640   -2.2860   -4.9220 c         1 ESH      0.708500
     20 O21         3.6440   -2.7460   -3.7820 o         1 ESH     -0.643500
     21 C22         4.3130   -1.2160   -5.5980 c3        1 ESH     -0.150700
     22 C23         1.5830   -3.8120   -5.5030 c3        1 ESH      0.149300
     23 C24         0.6100   -3.5620   -4.3790 ca        1 ESH     -0.083300
     24 C32         0.9730   -3.8910   -3.0660 ca        1 ESH     -0.086500
     25 C31         0.0660   -3.7240   -2.0230 ca        1 ESH     -0.152000
     26 C30        -1.2050   -3.2040   -2.2950 ca        1 ESH     -0.035600
     27 C26        -1.5800   -2.8770   -3.6000 ca        1 ESH     -0.152000
     28 C25        -0.6650   -3.0570   -4.6390 ca        1 ESH     -0.086500
     29 C18         2.7120   -3.1470   -8.2760 c3        1 ESH     -0.081700
     30 C41         2.7350   -2.4150   -9.6030 c3        1 ESH     -0.095100
     31 C42         3.9020   -4.0700   -8.1470 c3        1 ESH     -0.095100
     32 CL30       -2.3170   -2.9940   -1.0160 cl        1 ESH     -0.118400
     33 H20         0.4950    0.8740    1.5780 hn        1 ESH      0.454400
     34 H12        -0.6410   -1.0870    0.4330 hn        1 ESH      0.459467
     35 H11        -0.7170   -0.7030   -1.1870 hn        1 ESH      0.459467
     36 H5          3.6210   -0.0900   -0.4110 ha        1 ESH      0.142500
     37 H6          4.9970   -0.1000   -2.4780 ha        1 ESH      0.166000
     38 H8          1.4600    0.7540   -4.8440 ha        1 ESH      0.166000
     39 H9          0.0890    0.7780   -2.7890 ha        1 ESH      0.142500
     40 H10         5.2240    0.5460   -4.7080 h1        1 ESH      0.066700
     41 H121        3.9320    3.1630   -6.2760 h1        1 ESH      0.056200
     42 H122        5.4540    2.3050   -5.7870 h1        1 ESH      0.056200
     43 H132        4.6790    3.0700   -8.4660 hc        1 ESH      0.059200
     44 H131        6.0680    2.0130   -8.0080 hc        1 ESH      0.059200
     45 H141        4.9540    0.1950   -8.9300 hc        1 ESH      0.057200
     46 H142        3.5290    1.2320   -9.3060 hc        1 ESH      0.057200
     47 H15         2.3350    0.4040   -7.5400 h1        1 ESH      0.072700
     48 H16         4.5990   -1.5050   -7.7600 hc        1 ESH      0.088700
     49 H17         1.6390   -1.5380   -7.3200 h1        1 ESH      0.057700
     50 H22         5.3830   -1.5420   -5.5440 hc        1 ESH      0.101700
     51 H231        0.9940   -4.0590   -6.4330 h1        1 ESH      0.068700
     52 H232        2.2070   -4.7150   -5.2300 h1        1 ESH      0.068700
     53 H29         1.9900   -4.2720   -2.8640 ha        1 ESH      0.166000
     54 H28         0.3340   -4.0560   -1.0070 ha        1 ESH      0.153000
     55 H26        -2.5920   -2.4990   -3.8150 ha        1 ESH      0.153000
     56 H25        -0.9620   -2.8080   -5.6700 ha        1 ESH      0.166000
     57 H18         1.7820   -3.7880   -8.2670 hc        1 ESH      0.051700
     58 H323        2.7840   -3.1540  -10.4400 hc        1 ESH      0.043533
     59 H322        3.6220   -1.7400   -9.6780 hc        1 ESH      0.043533
     60 H321        1.8120   -1.8000   -9.7270 hc        1 ESH      0.043533
     61 H333        3.9030   -4.8030   -8.9910 hc        1 ESH      0.043533
     62 H332        4.8650   -3.5060   -8.1810 hc        1 ESH      0.043533
     63 H331        3.8600   -4.6410   -7.1880 hc        1 ESH      0.043533
     64 H23         0.4180   -1.7870   -0.6540 hn        1 ESH      0.459467
@<TRIPOS>BOND
     1    1    2 2   
     2    1   33 1   
     3    2    3 1   
     4    2    4 1   
     5    3   34 1   
     6    3   35 1   
     7    3   64 1   
     8    4    5 ar  
     9    4    9 ar  
    10    5    6 ar  
    11    5   36 1   
    12    6    7 ar  
    13    6   37 1   
    14    7    8 ar  
    15    7   10 1   
    16    8    9 ar  
    17    8   38 1   
    18    9   39 1   
    19   10   11 1   
    20   10   21 1   
    21   10   40 1   
    22   11   12 1   
    23   11   15 1   
    24   12   13 1   
    25   12   41 1   
    26   12   42 1   
    27   13   14 1   
    28   13   43 1   
    29   13   44 1   
    30   14   15 1   
    31   14   45 1   
    32   14   46 1   
    33   15   16 1   
    34   15   47 1   
    35   16   17 1   
    36   16   21 1   
    37   16   48 1   
    38   17   18 1   
    39   17   29 1   
    40   17   49 1   
    41   18   19 1   
    42   18   22 1   
    43   19   20 2   
    44   19   21 1   
    45   21   50 1   
    46   22   23 1   
    47   22   51 1   
    48   22   52 1   
    49   23   24 ar  
    50   23   28 ar  
    51   24   25 ar  
    52   24   53 1   
    53   25   26 ar  
    54   25   54 1   
    55   26   27 ar  
    56   26   32 1   
    57   27   28 ar  
    58   27   55 1   
    59   28   56 1   
    60   29   30 1   
    61   29   31 1   
    62   29   57 1   
    63   30   58 1   
    64   30   59 1   
    65   30   60 1   
    66   31   61 1   
    67   31   62 1   
    68   31   63 1   
@<TRIPOS>SUBSTRUCTURE
     1 ESH         1 TEMP              0 ****  ****    0 ROOT
