@<TRIPOS>MOLECULE
ESH
   63    61     1     0     0
SMALL
bcc


@<TRIPOS>ATOM
      1 N1         -3.2170    0.4300    4.6610 n1        1 ESH     -0.296000
      2 C3         -1.9200    0.5840    4.7440 c1        1 ESH      0.129000
      3 N2         -1.2860    0.6730    6.0350 n2        1 ESH     -0.398000
      4 C4         -1.0720    0.6660    3.4640 c2        1 ESH     -0.055000
      5 C9         -0.1030   -0.2960    3.2180 c2        1 ESH     -0.110000
      6 C8          0.7720   -0.1450    2.1450 c1        1 ESH     -0.116000
      7 C7          0.6750    0.9750    1.3160 c1        1 ESH     -0.062000
      8 C6         -0.2910    1.9330    1.5630 c1        1 ESH     -0.106000
      9 C5         -1.1680    1.7810    2.6390 c1        1 ESH     -0.099000
     10 C10         1.7810    1.2660    0.3140 c3        1 ESH      0.033000
     11 N11         1.7160    2.5340   -0.0930 n3        1 ESH     -0.229000
     12 C12         2.5780    3.8600   -0.1930 c3        1 ESH     -0.080000
     13 C13         2.8880    4.0040   -1.4760 c3        1 ESH     -0.175000
     14 C14         1.6990    3.2590   -2.2830 c3        1 ESH     -0.169000
     15 C15         0.9330    2.4960   -1.2590 c3        1 ESH     -0.030000
     16 C16         0.7980    0.9460   -1.6670 c3        1 ESH     -0.130000
     17 C17        -0.6310    0.3520   -1.2240 c3        1 ESH      0.044000
     18 N19        -0.3240   -0.8310   -0.4130 n         1 ESH     -0.341000
     19 C20         0.9280   -1.0620   -0.6410 c2        1 ESH      0.324000
     20 O21         1.5550   -2.1210   -0.3450 o         1 ESH     -0.349000
     21 C22         1.5930    0.3760   -0.9980 c3        1 ESH     -0.144000
     22 C23        -1.2810   -1.7870    0.0940 c3        1 ESH      0.032000
     23 C24        -0.7610   -3.2150   -0.1660 c2        1 ESH     -0.101000
     24 C32        -1.4810   -4.0780   -1.0030 c2        1 ESH     -0.117000
     25 C31        -1.0910   -5.4130   -1.1330 c1        1 ESH     -0.130000
     26 C30         0.0270   -5.8930   -0.4230 c1        1 ESH     -0.060000
     27 C26         0.7470   -5.0280    0.4150 c1        1 ESH     -0.127000
     28 C25         0.3560   -3.6940    0.5440 c1        1 ESH     -0.104000
     29 C18        -1.3970   -0.0140   -2.3690 c3        1 ESH     -0.117000
     30 C41        -1.9980    1.2710   -3.0410 c3        1 ESH     -0.210000
     31 C42        -0.4960   -0.7330   -3.3690 c3        1 ESH     -0.210000
     32 CL30        0.3910   -7.6050   -0.4260 cl        1 ESH     -0.021000
     33 H20        -3.7240    0.3800    5.4260 DU        1 ESH      0.136000
     34 H12        -0.6240    0.0670    6.2670 hn        1 ESH      0.193000
     35 H11        -1.5500    1.3490    6.6510 hn        1 ESH      0.193000
     36 H5         -0.0340   -1.0970    3.8110 ha        1 ESH      0.143000
     37 H6          1.4370   -0.8060    1.9760 ha        1 ESH      0.135000
     38 H8         -0.3580    2.6900    1.0030 ha        1 ESH      0.141000
     39 H9         -1.8560    2.4650    2.8140 ha        1 ESH      0.145000
     40 H10         2.6430    1.0930    0.7130 h1        1 ESH      0.096000
     41 H121        2.0460    4.6410    0.1200 h1        1 ESH      0.087500
     42 H122        3.3860    3.7730    0.3360 h1        1 ESH      0.087500
     43 H132        2.9170    4.9590   -1.7160 hc        1 ESH      0.088500
     44 H131        3.7710    3.5660   -1.6710 hc        1 ESH      0.088500
     45 H141        1.1100    3.9290   -2.7240 hc        1 ESH      0.089500
     46 H142        2.0690    2.6550   -2.9420 hc        1 ESH      0.089500
     47 H15         0.0470    2.9010   -1.1020 h1        1 ESH      0.111000
     48 H16         0.9720    0.8060   -2.6240 hc        1 ESH      0.117000
     49 H17        -1.1280    1.0270   -0.6770 h1        1 ESH      0.089000
     50 H22         2.4150    0.2680   -1.4620 hc        1 ESH      0.127000
     51 H231       -2.1430   -1.6640   -0.3630 h1        1 ESH      0.106500
     52 H232       -1.4000   -1.6510    1.0600 h1        1 ESH      0.106500
     53 H29        -2.2660   -3.7410   -1.5040 ha        1 ESH      0.133000
     54 H28        -1.6060   -6.0280   -1.7310 ha        1 ESH      0.145000
     55 H26         1.5610   -5.3740    0.9340 ha        1 ESH      0.148000
     56 H25         0.8670   -3.0830    1.1360 ha        1 ESH      0.166000
     57 H18        -2.1250   -0.6100   -2.0990 hc        1 ESH      0.095000
     58 H323       -1.3510    1.6580   -3.6220 hc        1 ESH      0.077500
     59 H322       -2.2590    1.9540   -2.3120 hc        1 ESH      0.077500
     60 H321       -2.7920    1.0260   -3.5570 hc        1 ESH      0.077500
     61 H333        0.0310   -0.0770   -3.8600 hc        1 ESH      0.077500
     62 H332        0.0810   -1.3170   -2.9090 hc        1 ESH      0.077500
     63 H331       -1.0560   -1.2520   -4.0050 hc        1 ESH      0.077500
@<TRIPOS>BOND
     1    1    2 1   
     2    2    4 1   
     3    3   34 1   
     4    3   35 1   
     5    4    5 1   
     6    4    9 1   
     7    5    6 1   
     8    5   36 1   
     9    6   37 1   
    10    7    8 1   
    11    7   10 1   
    12    8   38 1   
    13    9   39 1   
    14   10   11 1   
    15   10   21 1   
    16   10   40 1   
    17   11   12 1   
    18   11   15 1   
    19   12   13 1   
    20   12   41 1   
    21   12   42 1   
    22   13   14 1   
    23   13   43 1   
    24   13   44 1   
    25   14   15 1   
    26   14   45 1   
    27   14   46 1   
    28   15   16 1   
    29   15   47 1   
    30   16   17 1   
    31   16   21 1   
    32   16   48 1   
    33   17   18 1   
    34   17   29 1   
    35   17   49 1   
    36   18   19 1   
    37   18   22 1   
    38   19   20 1   
    39   19   21 1   
    40   21   50 1   
    41   22   23 1   
    42   22   51 1   
    43   22   52 1   
    44   23   24 1   
    45   23   28 1   
    46   24   25 1   
    47   24   53 1   
    48   25   54 1   
    49   26   27 1   
    50   26   32 1   
    51   27   55 1   
    52   28   56 1   
    53   29   30 1   
    54   29   31 1   
    55   29   57 1   
    56   30   58 1   
    57   30   59 1   
    58   30   60 1   
    59   31   61 1   
    60   31   62 1   
    61   31   63 1   
@<TRIPOS>SUBSTRUCTURE
     1 ESH         1 TEMP              0 ****  ****    0 ROOT
