@<TRIPOS>MOLECULE
ESI
   21    15     1     0     0
SMALL
bcc


@<TRIPOS>ATOM
      1 C0         -2.7740   -0.0670   -0.1810 c1        1 ESI      0.604400
      2 C1         -1.2550   -0.0690   -0.2520 c1        1 ESI     -0.158900
      3 N1         -3.4860    1.1730   -0.1540 n3        1 ESI     -0.417400
      4 N2         -3.4630   -1.2570   -0.1440 n2        1 ESI     -0.790800
      5 S2         -0.5810   -0.1230    1.1400 ss        1 ESI      0.154800
      6 C3          0.9550   -0.0620    0.9210 c1        1 ESI     -0.158900
      7 C4          1.1970    0.0220   -0.4970 c1        1 ESI     -0.049000
      8 C5         -0.2080    0.0170   -1.2490 c1        1 ESI     -0.049000
      9 C6          2.0280   -0.0430    1.8150 c1        1 ESI     -0.024500
     10 C7          3.3550    0.0580    1.3270 c1        1 ESI     -0.024500
     11 C8          3.5940    0.1400   -0.0720 c1        1 ESI     -0.023500
     12 C9          2.5100    0.1220   -0.9760 c1        1 ESI      0.073600
     13 I9          2.8190   -0.0290   -3.0600 i         1 ESI     -0.091600
     14 HH11       -3.0100    1.9710   -0.2000 hn        1 ESI      0.326200
     15 HH12       -4.3880    1.1820   -0.2600 hn        1 ESI      0.326200
     16 HH21       -3.0070   -2.0540   -0.1620 DU        1 ESI      0.230500
     17 HH22       -4.3990   -1.2570   -0.0990 hn        1 ESI      0.514400
     18 H5         -0.3420    0.0980   -2.2150 DU        1 ESI      0.230500
     19 H6          1.8630   -0.1000    2.7780 ha        1 ESI      0.106500
     20 H7          4.0930    0.0690    1.9430 ha        1 ESI      0.106500
     21 H8          4.4990    0.2100   -0.4040 ha        1 ESI      0.113500
@<TRIPOS>BOND
     1    1    3 2   
     2    1    4 2   
     3    2    5 1   
     4    2    8 3   
     5    3   14 1   
     6    3   15 1   
     7    4   17 1   
     8    5    6 1   
     9    6    7 3   
    10    9   10 3   
    11    9   19 1   
    12   10   20 1   
    13   11   12 3   
    14   11   21 1   
    15   12   13 1   
@<TRIPOS>SUBSTRUCTURE
     1 ESI         1 TEMP              0 ****  ****    0 ROOT
