@<TRIPOS>MOLECULE
ESI
   21    22     1     0     0
SMALL
bcc


@<TRIPOS>ATOM
      1 C0          0.0810   -0.0200    0.0190 ce        1 ESI      0.564100
      2 C1          1.5380   -0.0030   -0.0470 cc        1 ESI     -0.339000
      3 N1         -0.6290    0.6020   -0.9530 nh        1 ESI     -0.476100
      4 N2         -0.5200   -0.6560    1.0570 nh        1 ESI     -0.460200
      5 S2          2.5330   -0.0120    1.3250 ss        1 ESI      0.137500
      6 C3          3.9490   -0.0010    0.4290 ca        1 ESI     -0.048100
      7 C4          3.6770    0.0150   -0.9730 ca        1 ESI     -0.087800
      8 C5          2.2710    0.0160   -1.2250 cd        1 ESI     -0.010200
      9 C6          5.2730    0.0020    0.8920 ca        1 ESI     -0.093000
     10 C7          6.3030    0.0150   -0.0300 ca        1 ESI     -0.071000
     11 C8          6.0390    0.0280   -1.4170 ca        1 ESI     -0.081000
     12 C9          4.7420    0.0280   -1.8970 ca        1 ESI      0.070900
     13 I9          4.3940    0.0480   -3.8860 i         1 ESI     -0.088900
     14 HH11       -1.6250    0.6040   -0.9790 hn        1 ESI      0.326200
     15 HH12       -0.1380    1.0890   -1.6730 hn        1 ESI      0.326200
     16 HH21        0.0450   -1.1410    1.7220 hn        1 ESI      0.326200
     17 HH22       -1.5090   -0.6850    1.1710 hn        1 ESI      0.326200
     18 H5          1.8550    0.0050   -2.2400 ha        1 ESI      0.178000
     19 H6          5.4830   -0.0070    1.9730 ha        1 ESI      0.162000
     20 H7          7.3510    0.0150    0.3140 ha        1 ESI      0.166000
     21 H8          6.8960    0.0380   -2.1140 ha        1 ESI      0.171000
@<TRIPOS>BOND
     1    1    2 1   
     2    1    3 2   
     3    1    4 1   
     4    2    5 1   
     5    2    8 2   
     6    3   14 1   
     7    3   15 1   
     8    4   16 1   
     9    4   17 1   
    10    5    6 1   
    11    6    7 ar  
    12    6    9 ar  
    13    7    8 1   
    14    7   12 ar  
    15    8   18 1   
    16    9   10 ar  
    17    9   19 1   
    18   10   11 ar  
    19   10   20 1   
    20   11   12 ar  
    21   11   21 1   
    22   12   13 1   
@<TRIPOS>SUBSTRUCTURE
     1 ESI         1 TEMP              0 ****  ****    0 ROOT
