@<TRIPOS>MOLECULE
ESI
   21    22     1     0     0
SMALL
bcc


@<TRIPOS>ATOM
      1 C0          3.4370   -1.4150    0.0140 ce        1 ESI      0.564100
      2 C1          2.4240   -0.3650    0.0290 cc        1 ESI     -0.339000
      3 N1          3.1580   -2.6070    0.5970 nh        1 ESI     -0.476100
      4 N2          4.6310   -1.1640   -0.5800 nh        1 ESI     -0.460200
      5 S2          2.7960    1.2870    0.0760 ss        1 ESI      0.137500
      6 C3          1.1890    1.7580    0.0520 ca        1 ESI     -0.048100
      7 C4          0.3160    0.6290    0.0120 ca        1 ESI     -0.087800
      8 C5          1.0560   -0.5930    0.0020 cd        1 ESI     -0.010200
      9 C6          0.6610    3.0580    0.0740 ca        1 ESI     -0.093000
     10 C7         -0.7110    3.2220    0.0510 ca        1 ESI     -0.071000
     11 C8         -1.5780    2.1080    0.0080 ca        1 ESI     -0.081000
     12 C9         -1.0810    0.8180   -0.0110 ca        1 ESI      0.070900
     13 I9         -2.3430   -0.7560   -0.0700 i         1 ESI     -0.088900
     14 HH11        3.7960   -3.3710    0.5970 hn        1 ESI      0.326200
     15 HH12        2.2800   -2.7250    1.0550 hn        1 ESI      0.326200
     16 HH21        4.7710   -0.2880   -1.0380 hn        1 ESI      0.326200
     17 HH22        5.3710   -1.8300   -0.6060 hn        1 ESI      0.326200
     18 H5          0.5690   -1.5750   -0.0500 ha        1 ESI      0.178000
     19 H6          1.3340    3.9300    0.1080 ha        1 ESI      0.162000
     20 H7         -1.1460    4.2360    0.0660 ha        1 ESI      0.166000
     21 H8         -2.6670    2.2920   -0.0090 ha        1 ESI      0.171000
@<TRIPOS>BOND
     1    1    2 1   
     2    1    3 2   
     3    1    4 1   
     4    2    5 1   
     5    2    8 2   
     6    3   14 1   
     7    3   15 1   
     8    4   16 1   
     9    4   17 1   
    10    5    6 1   
    11    6    7 ar  
    12    6    9 ar  
    13    7    8 1   
    14    7   12 ar  
    15    8   18 1   
    16    9   10 ar  
    17    9   19 1   
    18   10   11 ar  
    19   10   20 1   
    20   11   12 ar  
    21   11   21 1   
    22   12   13 1   
@<TRIPOS>SUBSTRUCTURE
     1 ESI         1 TEMP              0 ****  ****    0 ROOT
