@<TRIPOS>MOLECULE
ESJ
   25    27     1     0     0
SMALL
bcc


@<TRIPOS>ATOM
      1 O           0.4770    1.5590   -0.1910 o         1 ESJ     -0.798800
      2 C           1.1670    0.5120   -0.1870 c         1 ESJ      0.949600
      3 OXT         1.4500   -0.2220   -1.1630 o         1 ESJ     -0.798800
      4 CA          1.8240    0.0810    1.2000 c3        1 ESJ     -0.063500
      5 N           0.8810   -0.5560    2.0880 n2        1 ESJ     -0.446900
      6 CB          2.4810    1.3120    1.8550 c3        1 ESJ      0.014700
      7 SAJ         1.8780    1.3830    3.5490 ss        1 ESJ     -0.393300
      8 CAM         0.8210    0.0060    3.2550 ce        1 ESJ      0.358900
      9 CAO        -0.0480   -0.3600    4.3580 cc        1 ESJ      0.375900
     10 NAI        -0.3970   -1.5810    4.7320 nd        1 ESJ     -0.498100
     11 CAP        -1.2460   -1.4960    5.8480 ca        1 ESJ      0.054400
     12 CAE        -1.8220   -2.5910    6.5210 ca        1 ESJ     -0.040000
     13 CAD        -2.6390   -2.3620    7.6130 ca        1 ESJ     -0.217000
     14 CAN        -2.8920   -1.0420    8.0470 ca        1 ESJ      0.113100
     15 OAC        -3.6990   -0.7800    9.1360 oh        1 ESJ     -0.506100
     16 CAF        -2.3400    0.0640    7.4020 ca        1 ESJ     -0.124000
     17 CAQ        -1.5150   -0.1570    6.2990 ca        1 ESJ     -0.079100
     18 SAK        -0.7080    0.9460    5.3140 ss        1 ESJ      0.010900
     19 HA          2.6020   -0.6940    0.9440 h1        1 ESJ      0.089700
     20 HB1C        3.5880    1.2320    1.8640 h1        1 ESJ      0.079200
     21 HB2C        2.1670    2.2400    1.3190 h1        1 ESJ      0.079200
     22 HAE        -1.6200   -3.6150    6.1720 ha        1 ESJ      0.149000
     23 HAD        -3.0970   -3.2050    8.1480 ha        1 ESJ      0.126000
     24 HAC        -4.0300   -1.6270    9.4650 ho        1 ESJ      0.412000
     25 HAF        -2.5570    1.0790    7.7600 ha        1 ESJ      0.151000
@<TRIPOS>BOND
     1    1    2 1   
     2    2    3 1   
     3    2    4 1   
     4    4    5 1   
     5    4    6 1   
     6    4   19 1   
     7    5    8 2   
     8    6    7 1   
     9    6   20 1   
    10    6   21 1   
    11    7    8 1   
    12    8    9 1   
    13    9   10 2   
    14    9   18 1   
    15   10   11 1   
    16   11   12 ar  
    17   11   17 ar  
    18   12   13 ar  
    19   12   22 1   
    20   13   14 ar  
    21   13   23 1   
    22   14   15 1   
    23   14   16 ar  
    24   15   24 1   
    25   16   17 ar  
    26   16   25 1   
    27   17   18 1   
@<TRIPOS>SUBSTRUCTURE
     1 ESJ         1 TEMP              0 ****  ****    0 ROOT
