@<TRIPOS>MOLECULE
ESJ
   25    27     1     0     0
SMALL
bcc


@<TRIPOS>ATOM
      1 O           0.4630    1.5550   -0.1950 o         1 ESJ     -0.798800
      2 C           1.1540    0.5090   -0.1920 c         1 ESJ      0.949600
      3 OXT         1.4350   -0.2260   -1.1680 o         1 ESJ     -0.798800
      4 CA          1.8150    0.0800    1.1940 c3        1 ESJ     -0.063500
      5 N           0.8750   -0.5570    2.0850 n2        1 ESJ     -0.446900
      6 CB          2.4730    1.3120    1.8450 c3        1 ESJ      0.014700
      7 SAJ         1.8750    1.3840    3.5410 ss        1 ESJ     -0.393300
      8 CAM         0.8180    0.0060    3.2510 ce        1 ESJ      0.358900
      9 CAO        -0.0490   -0.3600    4.3570 cc        1 ESJ      0.375900
     10 NAI        -0.3950   -1.5800    4.7340 nd        1 ESJ     -0.498100
     11 CAP        -1.2400   -1.4950    5.8510 ca        1 ESJ      0.054400
     12 CAE        -1.8130   -2.5900    6.5280 ca        1 ESJ     -0.040000
     13 CAD        -2.6280   -2.3610    7.6210 ca        1 ESJ     -0.217000
     14 CAN        -2.8830   -1.0410    8.0540 ca        1 ESJ      0.113100
     15 OAC        -3.6880   -0.7780    9.1440 oh        1 ESJ     -0.506100
     16 CAF        -2.3340    0.0650    7.4050 ca        1 ESJ     -0.124000
     17 CAQ        -1.5110   -0.1560    6.3010 ca        1 ESJ     -0.079100
     18 SAK        -0.7090    0.9470    5.3120 ss        1 ESJ      0.010900
     19 HA          2.5930   -0.6950    0.9360 h1        1 ESJ      0.089700
     20 HB1C        2.1570    2.2390    1.3100 h1        1 ESJ      0.079200
     21 HB2C        3.5800    1.2330    1.8530 h1        1 ESJ      0.079200
     22 HAE        -1.6110   -3.6150    6.1800 ha        1 ESJ      0.149000
     23 HAD        -3.0830   -3.2040    8.1590 ha        1 ESJ      0.126000
     24 HAC        -4.0170   -1.6250    9.4760 ho        1 ESJ      0.412000
     25 HAF        -2.5530    1.0800    7.7630 ha        1 ESJ      0.151000
@<TRIPOS>BOND
     1    1    2 1   
     2    2    3 1   
     3    2    4 1   
     4    4    5 1   
     5    4    6 1   
     6    4   19 1   
     7    5    8 2   
     8    6    7 1   
     9    6   20 1   
    10    6   21 1   
    11    7    8 1   
    12    8    9 1   
    13    9   10 2   
    14    9   18 1   
    15   10   11 1   
    16   11   12 ar  
    17   11   17 ar  
    18   12   13 ar  
    19   12   22 1   
    20   13   14 ar  
    21   13   23 1   
    22   14   15 1   
    23   14   16 ar  
    24   15   24 1   
    25   16   17 ar  
    26   16   25 1   
    27   17   18 1   
@<TRIPOS>SUBSTRUCTURE
     1 ESJ         1 TEMP              0 ****  ****    0 ROOT
