@<TRIPOS>MOLECULE
ESL
   45    46     1     0     0
SMALL
bcc


@<TRIPOS>ATOM
      1 C2         -0.2310   -0.8640   -0.5330 c3        1 ESL     -0.055000
      2 C3          1.4510   -0.8640   -0.5330 c3        1 ESL     -0.150000
      3 C4          1.9790   -0.8640    0.7770 c3        1 ESL     -0.142000
      4 C5          1.4290    0.1470    1.5380 c3        1 ESL     -0.044000
      5 C6          1.9580    1.5110    1.0360 c3        1 ESL     -0.198000
      6 C7          1.6660    0.0380    2.8550 c3        1 ESL      0.037000
      7 O1          2.9420    0.4330    3.1560 oh        1 ESL     -0.319000
      8 C8          0.5250    1.1160    3.5070 c3        1 ESL     -0.014000
      9 O2          0.0140    0.6650    4.4550 oh        1 ESL     -0.331000
     10 C9         -0.5710    1.2630    2.2390 c3        1 ESL     -0.180000
     11 C10        -0.2910    0.1520    1.5010 c3        1 ESL     -0.103000
     12 C12        -0.7740    0.1780    0.3040 c3        1 ESL     -0.088000
     13 C14        -1.5320    0.2610    0.3290 c3        1 ESL     -0.152000
     14 C15        -2.3110    0.4320   -1.1270 c3        1 ESL     -0.123000
     15 C16        -1.7220   -0.2420   -2.2250 c2        1 ESL     -0.030000
     16 C17        -2.3030   -0.2660   -3.5550 c2        1 ESL     -0.162000
     17 C18        -1.7220   -0.9990   -4.5350 c1        1 ESL      0.078000
     18 O3         -2.2310   -0.9440   -5.8570 o         1 ESL     -0.253000
     19 C19        -0.6280   -1.6900   -4.2770 c2        1 ESL     -0.215000
     20 C20        -0.0890   -1.6630   -3.0300 c1        1 ESL     -0.091000
     21 C21        -0.7160   -0.8770   -1.9880 c1        1 ESL     -0.092000
     22 H2         -0.5130   -1.7110   -0.1390 hc        1 ESL      0.095000
     23 H31         1.7680   -0.0690   -1.0030 hc        1 ESL      0.083500
     24 H32         1.7680   -1.6590   -1.0030 hc        1 ESL      0.083500
     25 H41         2.9460   -0.7400    0.7320 hc        1 ESL      0.086500
     26 H42         1.7860   -1.7230    1.1990 hc        1 ESL      0.086500
     27 H61         2.9230    1.4550    0.8990 hc        1 ESL      0.081000
     28 H62         1.7630    2.2000    1.7000 hc        1 ESL      0.081000
     29 H63         1.5220    1.7380    0.1930 hc        1 ESL      0.081000
     30 H7          1.4990   -0.8730    3.1630 h1        1 ESL      0.098000
     31 HO1         3.2440   -0.0410    3.8440 ho        1 ESL      0.207000
     32 H8          0.9390    1.9770    3.7100 h1        1 ESL      0.088000
     33 HO2         0.0330    1.2600    5.1130 ho        1 ESL      0.202000
     34 H91        -1.4890    1.2410    2.5680 hc        1 ESL      0.090000
     35 H92        -0.4020    2.0750    1.7250 hc        1 ESL      0.090000
     36 H10        -0.6260   -0.6370    1.9670 hc        1 ESL      0.093000
     37 H12        -0.4430    1.0080   -0.0870 hc        1 ESL      0.103000
     38 H141       -1.8980   -0.5320    0.7640 hc        1 ESL      0.083500
     39 H142       -1.7200    1.0610    0.8550 hc        1 ESL      0.083500
     40 H151       -2.3300    1.3840   -1.3410 hc        1 ESL      0.092000
     41 H152       -3.2160    0.0830   -1.0190 hc        1 ESL      0.092000
     42 H17        -3.0940    0.2710   -3.7510 ha        1 ESL      0.148000
     43 HO3        -1.8180   -0.3000   -6.3060 ho        1 ESL      0.217000
     44 H19        -0.2060   -2.2190   -4.9810 ha        1 ESL      0.132000
     45 H20         0.7200   -2.1730   -2.8370 ha        1 ESL      0.134000
@<TRIPOS>BOND
     1    1    2 1   
     2    1   12 1   
     3    1   21 1   
     4    1   22 1   
     5    2    3 1   
     6    2   23 1   
     7    2   24 1   
     8    3    4 1   
     9    3   25 1   
    10    3   26 1   
    11    4    5 1   
    12    4    6 1   
    13    4   11 1   
    14    5   27 1   
    15    5   28 1   
    16    5   29 1   
    17    6    7 1   
    18    6    8 1   
    19    6   30 1   
    20    7   31 1   
    21    8    9 1   
    22    8   10 1   
    23    8   32 1   
    24    9   33 1   
    25   10   11 1   
    26   10   34 1   
    27   10   35 1   
    28   11   12 1   
    29   11   36 1   
    30   12   13 1   
    31   12   37 1   
    32   13   14 1   
    33   13   38 1   
    34   13   39 1   
    35   14   15 1   
    36   14   40 1   
    37   14   41 1   
    38   15   16 1   
    39   15   21 1   
    40   16   17 1   
    41   16   42 1   
    42   17   19 1   
    43   18   43 1   
    44   19   20 1   
    45   19   44 1   
    46   20   45 1   
@<TRIPOS>SUBSTRUCTURE
     1 ESL         1 TEMP              0 ****  ****    0 ROOT
