@<TRIPOS>MOLECULE
ESL
   45    48     1     0     0
SMALL
bcc


@<TRIPOS>ATOM
      1 C2          0.5930    0.3870    0.6220 c3        1 ESL     -0.008400
      2 C3          0.0280    1.7810    0.3680 c3        1 ESL     -0.071400
      3 C4         -1.4740    1.8890    0.5830 c3        1 ESL     -0.063400
      4 C5         -2.2180    0.8140   -0.1890 c3        1 ESL     -0.044000
      5 C6         -2.1020    1.0590   -1.6840 c3        1 ESL     -0.080100
      6 C7         -3.7120    0.6500    0.1790 c3        1 ESL      0.148100
      7 O1         -4.5080    1.5390   -0.5760 oh        1 ESL     -0.591800
      8 C8         -4.0260   -0.8340   -0.1720 c3        1 ESL      0.097100
      9 O2         -4.8750   -1.3220    0.8520 oh        1 ESL     -0.603800
     10 C9         -2.6750   -1.5720   -0.2340 c3        1 ESL     -0.101400
     11 C10        -1.6590   -0.5550    0.2660 c3        1 ESL     -0.063700
     12 C12        -0.2060   -0.6960   -0.1260 c3        1 ESL     -0.048700
     13 C14         0.3570   -2.0590    0.2320 c3        1 ESL     -0.073400
     14 C15         1.7740   -2.1910   -0.2790 c3        1 ESL     -0.037100
     15 C16         2.6010   -0.9650   -0.0880 ca        1 ESL     -0.037300
     16 C17         3.9730   -1.0790   -0.3350 ca        1 ESL     -0.162000
     17 C18         4.8000    0.0430   -0.1980 ca        1 ESL      0.123100
     18 O3          6.1390   -0.1430   -0.4580 oh        1 ESL     -0.499100
     19 C19         4.2650    1.2790    0.1850 ca        1 ESL     -0.215000
     20 C20         2.8990    1.3780    0.4300 ca        1 ESL     -0.091000
     21 C21         2.0500    0.2720    0.2980 ca        1 ESL     -0.099300
     22 H2          0.4880    0.1790    1.7300 hc        1 ESL      0.055700
     23 H31         0.2840    2.0980   -0.6770 hc        1 ESL      0.044200
     24 H32         0.5200    2.5080    1.0680 hc        1 ESL      0.044200
     25 H41        -1.8230    2.9010    0.2530 hc        1 ESL      0.047200
     26 H42        -1.7040    1.7910    1.6770 hc        1 ESL      0.047200
     27 H61        -1.0380    1.1480   -2.0030 hc        1 ESL      0.041700
     28 H62        -2.5780    0.2220   -2.2500 hc        1 ESL      0.041700
     29 H63        -2.6340    2.0070   -1.9460 hc        1 ESL      0.041700
     30 H7         -3.8730    0.8250    1.2780 h1        1 ESL      0.058700
     31 HO1        -5.4180    1.3970   -0.2840 ho        1 ESL      0.408000
     32 H8         -4.5600   -0.8930   -1.1590 h1        1 ESL      0.048700
     33 HO2        -4.9910   -2.2670    0.6970 ho        1 ESL      0.403000
     34 H91        -2.4500   -1.8850   -1.2830 hc        1 ESL      0.050700
     35 H92        -2.6840   -2.4860    0.4090 hc        1 ESL      0.050700
     36 H10        -1.7050   -0.5820    1.3960 hc        1 ESL      0.053700
     37 H12        -0.0920   -0.5430   -1.2340 hc        1 ESL      0.063700
     38 H141        0.3340   -2.1980    1.3450 hc        1 ESL      0.044200
     39 H142       -0.2820   -2.8630   -0.2190 hc        1 ESL      0.044200
     40 H151        2.2730   -3.0590    0.2300 hc        1 ESL      0.052700
     41 H152        1.7510   -2.4240   -1.3800 hc        1 ESL      0.052700
     42 H17         4.4110   -2.0410   -0.6360 ha        1 ESL      0.148000
     43 HO3         6.5870    0.7050   -0.3250 ho        1 ESL      0.418000
     44 H19         4.9150    2.1580    0.2920 ha        1 ESL      0.132000
     45 H20         2.4930    2.3540    0.7360 ha        1 ESL      0.134000
@<TRIPOS>BOND
     1    1    2 1   
     2    1   12 1   
     3    1   21 1   
     4    1   22 1   
     5    2    3 1   
     6    2   23 1   
     7    2   24 1   
     8    3    4 1   
     9    3   25 1   
    10    3   26 1   
    11    4    5 1   
    12    4    6 1   
    13    4   11 1   
    14    5   27 1   
    15    5   28 1   
    16    5   29 1   
    17    6    7 1   
    18    6    8 1   
    19    6   30 1   
    20    7   31 1   
    21    8    9 1   
    22    8   10 1   
    23    8   32 1   
    24    9   33 1   
    25   10   11 1   
    26   10   34 1   
    27   10   35 1   
    28   11   12 1   
    29   11   36 1   
    30   12   13 1   
    31   12   37 1   
    32   13   14 1   
    33   13   38 1   
    34   13   39 1   
    35   14   15 1   
    36   14   40 1   
    37   14   41 1   
    38   15   16 ar  
    39   15   21 ar  
    40   16   17 ar  
    41   16   42 1   
    42   17   18 1   
    43   17   19 ar  
    44   18   43 1   
    45   19   20 ar  
    46   19   44 1   
    47   20   21 ar  
    48   20   45 1   
@<TRIPOS>SUBSTRUCTURE
     1 ESL         1 TEMP              0 ****  ****    0 ROOT
