@<TRIPOS>MOLECULE
ESL
   45    48     1     0     0
SMALL
bcc


@<TRIPOS>ATOM
      1 C2          0.0250    0.0600   -0.0740 c3        1 ESL     -0.008400
      2 C3          1.5500    0.0080   -0.0340 c3        1 ESL     -0.071400
      3 C4          2.1340    0.0810    1.3690 c3        1 ESL     -0.063400
      4 C5          1.5750    1.2660    2.1350 c3        1 ESL     -0.044000
      5 C6          2.0660    2.5700    1.5280 c3        1 ESL     -0.080100
      6 C7          1.8780    1.2740    3.6530 c3        1 ESL      0.148100
      7 O1          3.1260    1.8850    3.9060 oh        1 ESL     -0.591800
      8 C8          0.7060    2.0970    4.2670 c3        1 ESL      0.097100
      9 O2          0.3490    1.4540    5.4780 oh        1 ESL     -0.603800
     10 C9         -0.4310    2.0950    3.2280 c3        1 ESL     -0.101400
     11 C10         0.0340    1.1250    2.1510 c3        1 ESL     -0.063700
     12 C12        -0.5260    1.2360    0.7510 c3        1 ESL     -0.048700
     13 C14        -2.0430    1.1820    0.7340 c3        1 ESL     -0.073400
     14 C15        -2.5580    1.4100   -0.6700 c3        1 ESL     -0.037100
     15 C16        -1.7710    0.7060   -1.7230 ca        1 ESL     -0.037300
     16 C17        -2.3090    0.6910   -3.0130 ca        1 ESL     -0.162000
     17 C18        -1.6050    0.0690   -4.0530 ca        1 ESL      0.123100
     18 O3         -2.1950    0.0920   -5.2970 oh        1 ESL     -0.499100
     19 C19        -0.3670   -0.5390   -3.8100 ca        1 ESL     -0.215000
     20 C20         0.1550   -0.5190   -2.5210 ca        1 ESL     -0.091000
     21 C21        -0.5270    0.0990   -1.4650 ca        1 ESL     -0.099300
     22 H2         -0.3550   -0.8940    0.4010 hc        1 ESL      0.055700
     23 H31         1.8950   -0.9580   -0.4910 hc        1 ESL      0.044200
     24 H32         1.9640    0.8410   -0.6600 hc        1 ESL      0.044200
     25 H41         3.2500    0.1680    1.3000 hc        1 ESL      0.047200
     26 H42         1.9000   -0.8660    1.9220 hc        1 ESL      0.047200
     27 H61         1.5870    3.4390    2.0410 hc        1 ESL      0.041700
     28 H62         1.8370    2.6260    0.4380 hc        1 ESL      0.041700
     29 H63         3.1730    2.6480    1.6650 hc        1 ESL      0.041700
     30 H7          1.8670    0.2290    4.0670 h1        1 ESL      0.058700
     31 HO1         3.2570    1.8390    4.8620 ho        1 ESL      0.408000
     32 H8          1.0450    3.1460    4.4860 h1        1 ESL      0.048700
     33 HO2        -0.4390    1.8970    5.8110 ho        1 ESL      0.403000
     34 H91        -1.3940    1.7600    3.6850 hc        1 ESL      0.050700
     35 H92        -0.5800    3.1200    2.8100 hc        1 ESL      0.050700
     36 H10        -0.2060    0.0860    2.5270 hc        1 ESL      0.053700
     37 H12        -0.1980    2.2050    0.2840 hc        1 ESL      0.063700
     38 H141       -2.4570    1.9670    1.4190 hc        1 ESL      0.044200
     39 H142       -2.3910    0.1870    1.1160 hc        1 ESL      0.044200
     40 H151       -3.6320    1.0840   -0.7280 hc        1 ESL      0.052700
     41 H152       -2.5350    2.5110   -0.8990 hc        1 ESL      0.052700
     42 H17        -3.2790    1.1630   -3.2230 ha        1 ESL      0.148000
     43 HO3        -1.6060   -0.3690   -5.9120 ho        1 ESL      0.418000
     44 H19         0.1830   -1.0270   -4.6260 ha        1 ESL      0.132000
     45 H20         1.1260   -1.0050   -2.3430 ha        1 ESL      0.134000
@<TRIPOS>BOND
     1    1    2 1   
     2    1   12 1   
     3    1   21 1   
     4    1   22 1   
     5    2    3 1   
     6    2   23 1   
     7    2   24 1   
     8    3    4 1   
     9    3   25 1   
    10    3   26 1   
    11    4    5 1   
    12    4    6 1   
    13    4   11 1   
    14    5   27 1   
    15    5   28 1   
    16    5   29 1   
    17    6    7 1   
    18    6    8 1   
    19    6   30 1   
    20    7   31 1   
    21    8    9 1   
    22    8   10 1   
    23    8   32 1   
    24    9   33 1   
    25   10   11 1   
    26   10   34 1   
    27   10   35 1   
    28   11   12 1   
    29   11   36 1   
    30   12   13 1   
    31   12   37 1   
    32   13   14 1   
    33   13   38 1   
    34   13   39 1   
    35   14   15 1   
    36   14   40 1   
    37   14   41 1   
    38   15   16 ar  
    39   15   21 ar  
    40   16   17 ar  
    41   16   42 1   
    42   17   18 1   
    43   17   19 ar  
    44   18   43 1   
    45   19   20 ar  
    46   19   44 1   
    47   20   21 ar  
    48   20   45 1   
@<TRIPOS>SUBSTRUCTURE
     1 ESL         1 TEMP              0 ****  ****    0 ROOT
