@<TRIPOS>MOLECULE
ESL
   45    48     1     0     0
SMALL
bcc


@<TRIPOS>ATOM
      1 C2          0.0440   -0.0080   -0.0500 c3        1 ESL     -0.008400
      2 C3          1.5690   -0.0380   -0.0070 c3        1 ESL     -0.072400
      3 C4          2.1500    0.0820    1.3940 c3        1 ESL     -0.063400
      4 C5          1.5740    1.2800    2.1270 c3        1 ESL     -0.044000
      5 C6          2.0490    2.5730    1.4840 c3        1 ESL     -0.080100
      6 C7          1.8730    1.3340    3.6440 c3        1 ESL      0.148100
      7 O1          3.1120    1.9690    3.8820 oh        1 ESL     -0.591800
      8 C8          0.6900    2.1590    4.2330 c3        1 ESL      0.097100
      9 O2          0.3390    1.5440    5.4600 oh        1 ESL     -0.603800
     10 C9         -0.4460    2.1120    3.1930 c3        1 ESL     -0.101400
     11 C10         0.0350    1.1190    2.1440 c3        1 ESL     -0.063700
     12 C12        -0.5240    1.1840    0.7410 c3        1 ESL     -0.048700
     13 C14        -2.0400    1.1110    0.7220 c3        1 ESL     -0.073400
     14 C15        -2.5550    1.2910   -0.6890 c3        1 ESL     -0.037100
     15 C16        -1.7550    0.5680   -1.7190 ca        1 ESL     -0.033300
     16 C17        -2.2870    0.5080   -3.0130 ca        1 ESL     -0.217000
     17 C18        -1.5760   -0.1340   -4.0310 ca        1 ESL      0.123100
     18 O3         -2.0440   -0.2270   -5.3220 oh        1 ESL     -0.498100
     19 C19        -0.3290   -0.7220   -3.7690 ca        1 ESL     -0.158000
     20 C20         0.1850   -0.6560   -2.4800 ca        1 ESL     -0.096000
     21 C21        -0.5070   -0.0160   -1.4430 ca        1 ESL     -0.099300
     22 H2         -0.3250   -0.9530    0.4510 hc        1 ESL      0.055700
     23 H31         1.9730    0.7820   -0.6550 hc        1 ESL      0.044700
     24 H32         1.9280   -1.0120   -0.4360 hc        1 ESL      0.044700
     25 H41         1.9270   -0.8530    1.9740 hc        1 ESL      0.047200
     26 H42         3.2640    0.1810    1.3250 hc        1 ESL      0.047200
     27 H61         1.5570    3.4490    1.9710 hc        1 ESL      0.041700
     28 H62         1.8220    2.5950    0.3930 hc        1 ESL      0.041700
     29 H63         3.1540    2.6690    1.6210 hc        1 ESL      0.041700
     30 H7          1.8760    0.3010    4.0870 h1        1 ESL      0.058700
     31 HO1         3.2440    1.9480    4.8390 ho        1 ESL      0.408000
     32 H8          1.0140    3.2180    4.4240 h1        1 ESL      0.048700
     33 HO2        -0.4550    1.9880    5.7810 ho        1 ESL      0.403000
     34 H91        -0.6060    3.1240    2.7460 hc        1 ESL      0.050700
     35 H92        -1.4050    1.7780    3.6570 hc        1 ESL      0.050700
     36 H10        -0.1930    0.0880    2.5480 hc        1 ESL      0.053700
     37 H12        -0.2070    2.1430    0.2470 hc        1 ESL      0.062700
     38 H141       -2.3770    0.1220    1.1320 hc        1 ESL      0.044200
     39 H142       -2.4660    1.9100    1.3830 hc        1 ESL      0.044200
     40 H151       -3.6240    0.9490   -0.7400 hc        1 ESL      0.051200
     41 H152       -2.5460    2.3860   -0.9490 hc        1 ESL      0.051200
     42 H17        -3.2640    0.9660   -3.2240 ha        1 ESL      0.131000
     43 HO3        -2.9040    0.2160   -5.3590 ho        1 ESL      0.417000
     44 H19         0.2180   -1.2230   -4.5790 ha        1 ESL      0.149000
     45 H20         1.1620   -1.1260   -2.2850 ha        1 ESL      0.136000
@<TRIPOS>BOND
     1    1    2 1   
     2    1   12 1   
     3    1   21 1   
     4    1   22 1   
     5    2    3 1   
     6    2   23 1   
     7    2   24 1   
     8    3    4 1   
     9    3   25 1   
    10    3   26 1   
    11    4    5 1   
    12    4    6 1   
    13    4   11 1   
    14    5   27 1   
    15    5   28 1   
    16    5   29 1   
    17    6    7 1   
    18    6    8 1   
    19    6   30 1   
    20    7   31 1   
    21    8    9 1   
    22    8   10 1   
    23    8   32 1   
    24    9   33 1   
    25   10   11 1   
    26   10   34 1   
    27   10   35 1   
    28   11   12 1   
    29   11   36 1   
    30   12   13 1   
    31   12   37 1   
    32   13   14 1   
    33   13   38 1   
    34   13   39 1   
    35   14   15 1   
    36   14   40 1   
    37   14   41 1   
    38   15   16 ar  
    39   15   21 ar  
    40   16   17 ar  
    41   16   42 1   
    42   17   18 1   
    43   17   19 ar  
    44   18   43 1   
    45   19   20 ar  
    46   19   44 1   
    47   20   21 ar  
    48   20   45 1   
@<TRIPOS>SUBSTRUCTURE
     1 ESL         1 TEMP              0 ****  ****    0 ROOT
