@<TRIPOS>MOLECULE
ESM
   48    51     1     0     0
SMALL
bcc


@<TRIPOS>ATOM
      1 C1          0.8730    0.2980    2.2260 ca        1 ESM     -0.158000
      2 C10        -0.1740    0.3040    1.2940 ca        1 ESM     -0.069300
      3 C11         1.4970    0.2780   -0.6010 c3        1 ESM     -0.070400
      4 C12         1.7480    0.5230   -2.0810 c3        1 ESM     -0.063400
      5 C13         0.6670   -0.1150   -2.9340 c3        1 ESM     -0.044000
      6 C14        -0.6910    0.4630   -2.4690 c3        1 ESM     -0.066700
      7 C15        -1.6600    0.0970   -3.5850 c3        1 ESM     -0.068400
      8 C16        -0.8190    0.1630   -4.8620 c3        1 ESM     -0.117400
      9 C17         0.6560    0.3040   -4.4250 c3        1 ESM      0.141100
     10 C18         0.7500   -1.6290   -2.8500 c3        1 ESM     -0.077100
     11 C2          0.6240    0.0220    3.5690 ca        1 ESM      0.038100
     12 C3         -0.6920   -0.2500    4.0050 ca        1 ESM      0.112100
     13 C4         -1.7370   -0.2380    3.0780 ca        1 ESM     -0.142000
     14 C5         -1.4830    0.0360    1.7280 ca        1 ESM     -0.066300
     15 C6         -2.6510   -0.0020    0.8030 c3        1 ESM     -0.033100
     16 C7         -2.3510    0.5310   -0.5810 c3        1 ESM     -0.073400
     17 C8         -0.9900    0.0480   -1.0460 c3        1 ESM     -0.047700
     18 C9          0.0940    0.6560   -0.1380 c3        1 ESM     -0.010400
     19 O17         1.5230   -0.5320   -5.1690 oh        1 ESM     -0.591800
     20 O3         -1.0080   -0.5210    5.3150 oh        1 ESM     -0.497100
     21 O2          1.5830    0.0120    4.5700 os        1 ESM     -0.349900
     22 C19         2.9370    0.0230    4.1340 c3        1 ESM      0.121700
     23 HC1         1.9010    0.5140    1.9020 ha        1 ESM      0.139000
     24 H111        2.2480    0.8870   -0.0290 hc        1 ESM      0.041700
     25 H112        1.6860   -0.8010   -0.3600 hc        1 ESM      0.041700
     26 H121        1.7790    1.6270   -2.2780 hc        1 ESM      0.044700
     27 H122        2.7480    0.1010   -2.3610 hc        1 ESM      0.044700
     28 H14C       -0.6010    1.5900   -2.4740 hc        1 ESM      0.045700
     29 H151       -2.5190    0.8090   -3.6260 hc        1 ESM      0.045200
     30 H152       -2.0740   -0.9300   -3.4340 hc        1 ESM      0.045200
     31 H161       -1.1190    1.0340   -5.4930 hc        1 ESM      0.047700
     32 H162       -0.9480   -0.7680   -5.4680 hc        1 ESM      0.047700
     33 H17C        0.9960    1.3710   -4.5270 h1        1 ESM      0.033700
     34 H181        0.7030   -1.9860   -1.7950 hc        1 ESM      0.041367
     35 H182       -0.0890   -2.0930   -3.4240 hc        1 ESM      0.041367
     36 H183        1.7150   -1.9720   -3.2990 hc        1 ESM      0.041367
     37 HC4        -2.7600   -0.4490    3.4240 ha        1 ESM      0.151000
     38 HC61       -3.4990    0.5830    1.2500 hc        1 ESM      0.051700
     39 HC62       -2.9950   -1.0710    0.7210 hc        1 ESM      0.051700
     40 HC71       -2.3740    1.6530   -0.5750 hc        1 ESM      0.044200
     41 HC72       -3.1410    0.1840   -1.2980 hc        1 ESM      0.044200
     42 HC8        -0.9620   -1.0730   -0.9610 hc        1 ESM      0.063700
     43 HC9         0.0070    1.7820   -0.2150 hc        1 ESM      0.055700
     44 H17O        1.4090   -0.2870   -6.0950 ho        1 ESM      0.399000
     45 HO3        -0.1850   -0.5200    5.8270 ho        1 ESM      0.435000
     46 H191        3.5180   -0.1180    5.0810 h1        1 ESM      0.044700
     47 H192        3.1340   -0.8120    3.4190 h1        1 ESM      0.044700
     48 H193        3.1850    1.0070    3.6650 h1        1 ESM      0.044700
@<TRIPOS>BOND
     1    1    2 ar  
     2    1   11 ar  
     3    1   23 1   
     4    2   14 ar  
     5    2   18 1   
     6    3    4 1   
     7    3   18 1   
     8    3   24 1   
     9    3   25 1   
    10    4    5 1   
    11    4   26 1   
    12    4   27 1   
    13    5    6 1   
    14    5    9 1   
    15    5   10 1   
    16    6    7 1   
    17    6   17 1   
    18    6   28 1   
    19    7    8 1   
    20    7   29 1   
    21    7   30 1   
    22    8    9 1   
    23    8   31 1   
    24    8   32 1   
    25    9   19 1   
    26    9   33 1   
    27   10   34 1   
    28   10   35 1   
    29   10   36 1   
    30   11   12 ar  
    31   11   21 1   
    32   12   13 ar  
    33   12   20 1   
    34   13   14 ar  
    35   13   37 1   
    36   14   15 1   
    37   15   16 1   
    38   15   38 1   
    39   15   39 1   
    40   16   17 1   
    41   16   40 1   
    42   16   41 1   
    43   17   18 1   
    44   17   42 1   
    45   18   43 1   
    46   19   44 1   
    47   20   45 1   
    48   21   22 1   
    49   22   46 1   
    50   22   47 1   
    51   22   48 1   
@<TRIPOS>SUBSTRUCTURE
     1 ESM         1 TEMP              0 ****  ****    0 ROOT
