@<TRIPOS>MOLECULE
ESM
   48    51     1     0     0
SMALL
bcc


@<TRIPOS>ATOM
      1 C1          0.0160   -0.0810    0.0020 ca        1 ESM     -0.158000
      2 C10         1.4180   -0.0700   -0.0150 ca        1 ESM     -0.069300
      3 C11         1.3930    0.6310   -2.4430 c3        1 ESM     -0.070400
      4 C12         2.1740    0.7440   -3.7440 c3        1 ESM     -0.063400
      5 C13         3.5450    1.3530   -3.5090 c3        1 ESM     -0.044000
      6 C14         4.2720    0.4700   -2.4670 c3        1 ESM     -0.066700
      7 C15         5.7320    0.8910   -2.5680 c3        1 ESM     -0.068400
      8 C16         5.9320    1.2350   -4.0470 c3        1 ESM     -0.117400
      9 C17         4.5320    1.2570   -4.6990 c3        1 ESM      0.141100
     10 C18         3.4140    2.8090   -3.0950 c3        1 ESM     -0.077100
     11 C2         -0.6770   -0.1360    1.2100 ca        1 ESM      0.038100
     12 C3          0.0310   -0.1870    2.4320 ca        1 ESM      0.112100
     13 C4          1.4270   -0.1820    2.4150 ca        1 ESM     -0.142000
     14 C5          2.1210   -0.1230    1.2000 ca        1 ESM     -0.066300
     15 C6          3.6090   -0.0920    1.2750 c3        1 ESM     -0.033100
     16 C7          4.2930   -0.2680   -0.0630 c3        1 ESM     -0.073400
     17 C8          3.5640    0.5240   -1.1320 c3        1 ESM     -0.047700
     18 C9          2.1550   -0.0680   -1.3200 c3        1 ESM     -0.010400
     19 O17         4.3560    2.3640   -5.5640 oh        1 ESM     -0.591800
     20 O3         -0.5890   -0.2510    3.6570 oh        1 ESM     -0.497100
     21 O2         -2.0570   -0.1720    1.3340 os        1 ESM     -0.349900
     22 C19        -2.7960    0.1320    0.1570 c3        1 ESM      0.121700
     23 HC1        -0.5470   -0.0480   -0.9410 ha        1 ESM      0.139000
     24 H111        0.4570    0.0520   -2.6640 hc        1 ESM      0.041700
     25 H112        1.0840    1.6520   -2.0980 hc        1 ESM      0.041700
     26 H121        2.2890   -0.2740   -4.2010 hc        1 ESM      0.044700
     27 H122        1.5970    1.3780   -4.4660 hc        1 ESM      0.044700
     28 H14C        4.2170   -0.5990   -2.8300 hc        1 ESM      0.045700
     29 H151        5.9380    1.7800   -1.9210 hc        1 ESM      0.045200
     30 H152        6.4140    0.0680   -2.2450 hc        1 ESM      0.045200
     31 H161        6.5790    0.4760   -4.5480 hc        1 ESM      0.047700
     32 H162        6.4190    2.2350   -4.1570 hc        1 ESM      0.047700
     33 H17C        4.3510    0.3070   -5.2730 h1        1 ESM      0.033700
     34 H181        4.4200    3.2330   -2.8590 hc        1 ESM      0.041367
     35 H182        2.7560    2.9250   -2.2030 hc        1 ESM      0.041367
     36 H183        2.9760    3.3950   -3.9400 hc        1 ESM      0.041367
     37 HC4         1.9730   -0.2240    3.3690 ha        1 ESM      0.151000
     38 HC61        3.9630   -0.8920    1.9800 hc        1 ESM      0.051700
     39 HC62        3.9140    0.8960    1.7190 hc        1 ESM      0.051700
     40 HC71        4.3160   -1.3530   -0.3440 hc        1 ESM      0.044200
     41 HC72        5.3560    0.0820    0.0080 hc        1 ESM      0.044200
     42 HC8         3.4770    1.5910   -0.7880 hc        1 ESM      0.063700
     43 HC9         2.2800   -1.1510   -1.6230 hc        1 ESM      0.055700
     44 H17O        5.0500    2.3000   -6.2310 ho        1 ESM      0.399000
     45 HO3        -1.5470   -0.2190    3.5090 ho        1 ESM      0.435000
     46 H191       -2.4860    1.1180   -0.2660 h1        1 ESM      0.044700
     47 H192       -3.8560    0.1690    0.5160 h1        1 ESM      0.044700
     48 H193       -2.6660   -0.6790   -0.6010 h1        1 ESM      0.044700
@<TRIPOS>BOND
     1    1    2 ar  
     2    1   11 ar  
     3    1   23 1   
     4    2   14 ar  
     5    2   18 1   
     6    3    4 1   
     7    3   18 1   
     8    3   24 1   
     9    3   25 1   
    10    4    5 1   
    11    4   26 1   
    12    4   27 1   
    13    5    6 1   
    14    5    9 1   
    15    5   10 1   
    16    6    7 1   
    17    6   17 1   
    18    6   28 1   
    19    7    8 1   
    20    7   29 1   
    21    7   30 1   
    22    8    9 1   
    23    8   31 1   
    24    8   32 1   
    25    9   19 1   
    26    9   33 1   
    27   10   34 1   
    28   10   35 1   
    29   10   36 1   
    30   11   12 ar  
    31   11   21 1   
    32   12   13 ar  
    33   12   20 1   
    34   13   14 ar  
    35   13   37 1   
    36   14   15 1   
    37   15   16 1   
    38   15   38 1   
    39   15   39 1   
    40   16   17 1   
    41   16   40 1   
    42   16   41 1   
    43   17   18 1   
    44   17   42 1   
    45   18   43 1   
    46   19   44 1   
    47   20   45 1   
    48   21   22 1   
    49   22   46 1   
    50   22   47 1   
    51   22   48 1   
@<TRIPOS>SUBSTRUCTURE
     1 ESM         1 TEMP              0 ****  ****    0 ROOT
