@<TRIPOS>MOLECULE
ESM
   48    48     1     0     0
SMALL
bcc


@<TRIPOS>ATOM
      1 C1         -2.4790   -0.4630    1.2130 c1        1 ESM     -0.053500
      2 C10        -1.1010   -0.5160    1.2120 c1        1 ESM     -0.048100
      3 C11        -1.0580    0.0110   -1.3540 c3        1 ESM     -0.072400
      4 C12        -0.1380    0.0500   -2.7110 c3        1 ESM     -0.063400
      5 C13         1.2050    0.6640   -2.4530 c3        1 ESM     -0.044000
      6 C14         1.9890   -0.0170   -1.1670 c3        1 ESM     -0.066700
      7 C15         3.0700    0.7280   -1.0920 c3        1 ESM     -0.068400
      8 C16         3.4840    0.8720   -2.6670 c3        1 ESM     -0.117400
      9 C17         2.0620    0.4860   -3.4080 c3        1 ESM      0.141100
     10 C18         1.0350    2.1480   -2.2080 c3        1 ESM     -0.078100
     11 C2         -3.1950   -0.4350    2.4500 c1        1 ESM      0.057600
     12 C3         -2.4670   -0.4620    3.7180 c1        1 ESM      0.077600
     13 C4         -1.0280   -0.5180    3.7230 c1        1 ESM     -0.145500
     14 C5         -0.3380   -0.5450    2.5350 c1        1 ESM     -0.013100
     15 C6          1.2990   -0.6550    2.4890 c3        1 ESM     -0.069300
     16 C7          1.9120   -0.5880    1.2220 c3        1 ESM     -0.073400
     17 C8          1.1200   -0.0220    0.1400 c3        1 ESM     -0.047700
     18 C9         -0.2890   -0.6550   -0.1200 c3        1 ESM     -0.043600
     19 O17         1.7970    1.3730   -4.4950 oh        1 ESM     -0.591800
     20 O3         -3.1850   -0.3880    4.9560 oh        1 ESM     -0.479600
     21 O2         -4.6100   -0.2170    2.4460 os        1 ESM     -0.313400
     22 C19        -5.3650   -1.3940    2.4420 c3        1 ESM      0.114700
     23 HC1        -2.9660   -0.4450    0.3690 ha        1 ESM      0.093500
     24 H111       -1.8700   -0.5000   -1.5350 hc        1 ESM      0.045700
     25 H112       -1.3050    0.9200   -1.1170 hc        1 ESM      0.045700
     26 H121       -0.0170   -0.8580   -3.0420 hc        1 ESM      0.045200
     27 H122       -0.6060    0.5840   -3.4000 hc        1 ESM      0.045200
     28 H14C        2.2350   -0.9080   -1.3840 hc        1 ESM      0.045700
     29 H151        2.8700    1.5750   -0.7170 hc        1 ESM      0.044700
     30 H152        3.7690    0.2780   -0.5870 hc        1 ESM      0.044700
     31 H161        3.7550    1.8020   -2.8800 hc        1 ESM      0.047700
     32 H162        4.2050    0.2210   -2.9100 hc        1 ESM      0.047700
     33 H17C        2.0660   -0.4310   -3.7010 h1        1 ESM      0.033700
     34 H181        0.6190    2.2890   -1.3420 hc        1 ESM      0.041367
     35 H182        1.9050    2.5790   -2.2230 hc        1 ESM      0.041367
     36 H183        0.4580    2.5380   -2.9210 hc        1 ESM      0.041367
     37 HC4        -0.5340   -0.5350    4.5860 ha        1 ESM      0.075500
     38 HC61        1.6790    0.0950    3.0600 hc        1 ESM      0.050200
     39 HC62        1.5630   -1.5380    2.9140 hc        1 ESM      0.050200
     40 HC71        2.7560   -0.0360    1.3130 hc        1 ESM      0.044200
     41 HC72        2.1710   -1.4980    0.9630 hc        1 ESM      0.044200
     42 HC8         0.9560    0.9560    0.3840 hc        1 ESM      0.064700
     43 HC9        -0.1710   -1.5980   -0.3090 hc        1 ESM      0.054700
     44 H17O        2.2810    1.1040   -5.2400 ho        1 ESM      0.398000
     45 HO3        -2.9000   -1.0440    5.5110 ho        1 ESM      0.418000
     46 H191       -5.4880   -1.6980    1.5250 h1        1 ESM      0.043700
     47 H192       -4.8940   -2.0890    2.9580 h1        1 ESM      0.043700
     48 H193       -6.2570   -1.2190    2.8560 h1        1 ESM      0.043700
@<TRIPOS>BOND
     1    1    2 3   
     2    1   23 1   
     3    2   18 1   
     4    3    4 1   
     5    3   18 1   
     6    3   24 1   
     7    3   25 1   
     8    4    5 1   
     9    4   26 1   
    10    4   27 1   
    11    5    6 1   
    12    5    9 1   
    13    5   10 1   
    14    6    7 1   
    15    6   17 1   
    16    6   28 1   
    17    7    8 1   
    18    7   29 1   
    19    7   30 1   
    20    8    9 1   
    21    8   31 1   
    22    8   32 1   
    23    9   19 1   
    24    9   33 1   
    25   10   34 1   
    26   10   35 1   
    27   10   36 1   
    28   11   12 3   
    29   11   21 1   
    30   12   20 1   
    31   13   14 3   
    32   13   37 1   
    33   14   15 1   
    34   15   16 1   
    35   15   38 1   
    36   15   39 1   
    37   16   17 1   
    38   16   40 1   
    39   16   41 1   
    40   17   18 1   
    41   17   42 1   
    42   18   43 1   
    43   19   44 1   
    44   20   45 1   
    45   21   22 1   
    46   22   46 1   
    47   22   47 1   
    48   22   48 1   
@<TRIPOS>SUBSTRUCTURE
     1 ESM         1 TEMP              0 ****  ****    0 ROOT
