@<TRIPOS>MOLECULE
ESO
   45    47     1     0     0
SMALL
bcc


@<TRIPOS>ATOM
      1 C1          1.1850   -0.7140   -0.9930 ca        1 ESO     -0.066000
      2 C2          1.0670   -0.5720   -2.3510 ca        1 ESO     -0.300000
      3 C3         -0.2050   -0.2820   -2.9660 ca        1 ESO      0.314000
      4 O3         -0.3440   -0.1440   -4.2230 o         1 ESO     -0.543000
      5 P           0.5620   -0.1090   -6.3210 p3        1 ESO      2.495000
      6 O1P         1.9520   -0.4080   -5.9040 o         1 ESO     -1.174000
      7 O2P        -0.2550   -1.2000   -6.9010 o         1 ESO     -1.174000
      8 O3P         0.2090    1.2900   -6.6580 o         1 ESO     -1.174000
      9 C4         -1.3170   -0.1570   -2.0610 ca        1 ESO     -0.331000
     10 C5         -1.1710   -0.3020   -0.6930 ca        1 ESO     -0.007000
     11 C6         -2.3970   -0.1200    0.1430 c3        1 ESO     -0.109000
     12 C7         -2.2260   -0.5170    1.5940 c3        1 ESO     -0.139000
     13 C8         -0.8790   -0.0410    2.1030 c3        1 ESO     -0.091000
     14 C9          0.2310   -0.7980    1.3460 c3        1 ESO      0.004000
     15 C10         0.0860   -0.5800   -0.1190 ca        1 ESO     -0.297000
     16 C11         1.6180   -0.4360    1.8740 c3        1 ESO     -0.156000
     17 C12         1.7610   -0.4950    3.3890 c3        1 ESO     -0.132000
     18 C13         0.6530    0.2880    4.0690 c3        1 ESO     -0.094000
     19 C14        -0.6950   -0.2960    3.5810 c3        1 ESO     -0.097000
     20 C15        -1.7180    0.2180    4.5880 c3        1 ESO     -0.153000
     21 C16        -0.9640    0.2310    5.9210 c3        1 ESO     -0.220000
     22 C17         0.5140    0.1530    5.5780 c2        1 ESO      0.240000
     23 O17         1.4140    0.0190    6.4070 o         1 ESO     -0.316000
     24 C18         0.8140    1.7780    3.7940 c3        1 ESO     -0.199000
     25 H1          2.1760   -0.9430   -0.5710 ha        1 ESO      0.071000
     26 H2          1.9320   -0.6740   -3.0230 ha        1 ESO      0.149000
     27 H4         -2.3000    0.0610   -2.4960 ha        1 ESO      0.105000
     28 H61        -3.2420   -0.7120   -0.3000 hc        1 ESO      0.065000
     29 H62        -2.6970    0.9630    0.0960 hc        1 ESO      0.065000
     30 H71        -2.2950   -1.6320    1.6970 hc        1 ESO      0.054500
     31 H72        -3.0470   -0.0720    2.2150 hc        1 ESO      0.054500
     32 H8         -0.7890    1.0590    1.8870 hc        1 ESO      0.098000
     33 H9          0.0810   -1.9000    1.5600 hc        1 ESO      0.050000
     34 H111        1.8930    0.5870    1.5060 hc        1 ESO      0.086000
     35 H112        2.3630   -1.1540    1.4380 hc        1 ESO      0.086000
     36 H121        2.7570   -0.0810    3.6900 hc        1 ESO      0.071500
     37 H122        1.7220   -1.5620    3.7310 hc        1 ESO      0.071500
     38 H14        -0.6450   -1.4170    3.7190 hc        1 ESO      0.085000
     39 H151       -2.0670    1.2440    4.3150 hc        1 ESO      0.083000
     40 H152       -2.6130   -0.4480    4.6330 hc        1 ESO      0.083000
     41 H161       -1.1670    1.1640    6.5000 hc        1 ESO      0.096500
     42 H162       -1.2500   -0.6430    6.5560 hc        1 ESO      0.096500
     43 H181        0.9040    1.9700    2.6970 hc        1 ESO      0.081333
     44 H182       -0.0660    2.3460    4.1820 hc        1 ESO      0.081333
     45 H183        1.7380    2.1530    4.2970 hc        1 ESO      0.081333
@<TRIPOS>BOND
     1    1    2 1   
     2    1   15 1   
     3    1   25 1   
     4    2    3 1   
     5    2   26 1   
     6    3    4 1   
     7    3    9 1   
     8    5    6 1   
     9    5    7 1   
    10    5    8 1   
    11    9   10 1   
    12    9   27 1   
    13   10   11 1   
    14   10   15 1   
    15   11   12 1   
    16   11   28 1   
    17   11   29 1   
    18   12   13 1   
    19   12   30 1   
    20   12   31 1   
    21   13   14 1   
    22   13   19 1   
    23   13   32 1   
    24   14   15 1   
    25   14   16 1   
    26   14   33 1   
    27   16   17 1   
    28   16   34 1   
    29   16   35 1   
    30   17   18 1   
    31   17   36 1   
    32   17   37 1   
    33   18   19 1   
    34   18   22 1   
    35   18   24 1   
    36   19   20 1   
    37   19   38 1   
    38   20   21 1   
    39   20   39 1   
    40   20   40 1   
    41   21   22 1   
    42   21   41 1   
    43   21   42 1   
    44   22   23 1   
    45   24   43 1   
    46   24   44 1   
    47   24   45 1   
@<TRIPOS>SUBSTRUCTURE
     1 ESO         1 TEMP              0 ****  ****    0 ROOT
