@<TRIPOS>MOLECULE
ESO
   45    45     1     0     0
SMALL
bcc


@<TRIPOS>ATOM
      1 C1          1.4320    0.7010   -2.0710 c1        1 ESO     -0.127000
      2 C2          2.8540    0.7160   -2.1160 c1        1 ESO     -0.127000
      3 C3          3.6290    0.6760   -0.8740 c1        1 ESO      0.341600
      4 O3          5.0300    0.5850   -0.9280 os        1 ESO     -0.339000
      5 P           5.8610    1.9010   -1.1980 p5        1 ESO      1.303900
      6 O1P         4.9530    3.1090   -1.0650 o         1 ESO     -0.854500
      7 O2P         6.4370    1.8560   -2.5950 o         1 ESO     -0.854500
      8 O3P         6.9830    2.0030   -0.1950 o         1 ESO     -0.854500
      9 C4          2.9610    0.6210    0.3870 c1        1 ESO     -0.274500
     10 C5          1.6070    0.6070    0.4360 c1        1 ESO      0.017900
     11 C6          0.7280    0.7640    1.9760 c3        1 ESO     -0.057300
     12 C7         -0.7440    1.0100    1.8900 c3        1 ESO     -0.061400
     13 C8         -1.4750    0.4130    0.6630 c3        1 ESO     -0.042700
     14 C9         -0.8490    0.7930   -0.7520 c3        1 ESO      0.013400
     15 C10         0.7900    0.6490   -0.8760 c1        1 ESO     -0.264100
     16 C11        -1.3940    0.1050   -1.7100 c3        1 ESO     -0.066400
     17 C12        -1.3600   -0.9000   -1.5210 c3        1 ESO     -0.061400
     18 C13        -1.9490   -1.2950    0.0250 c3        1 ESO     -0.127000
     19 C14        -1.4910   -0.7060    0.8500 c3        1 ESO     -0.044700
     20 C15        -2.2360   -0.8130    1.8240 c3        1 ESO     -0.082400
     21 C16        -3.6050   -0.7330    1.3150 c3        1 ESO     -0.191400
     22 C17        -3.4670   -1.1900    0.2110 c         1 ESO      0.582100
     23 O17        -4.3120   -1.7990   -0.4240 o         1 ESO     -0.562100
     24 C18        -1.5720   -2.7780    0.2730 c3        1 ESO     -0.084100
     25 H1          0.9210    0.7280   -2.8950 ha        1 ESO      0.053500
     26 H2          3.3140    0.8030   -2.9760 ha        1 ESO      0.053500
     27 H4          3.4790    0.6730    1.2180 ha        1 ESO      0.047500
     28 H61         1.1270    1.5000    2.4760 hc        1 ESO      0.024700
     29 H62         0.8660   -0.0590    2.4860 hc        1 ESO      0.024700
     30 H71        -0.8890    1.9790    1.8860 hc        1 ESO      0.014200
     31 H72        -1.1570    0.6440    2.6920 hc        1 ESO      0.014200
     32 H8         -2.4000    0.7350    0.6770 hc        1 ESO      0.006700
     33 H9         -1.0650    1.7380   -0.9150 hc        1 ESO      0.012700
     34 H111       -2.3340    0.3820   -1.8090 hc        1 ESO      0.023700
     35 H112       -0.9160    0.2900   -2.5490 hc        1 ESO      0.023700
     36 H121       -0.4240   -1.2060   -1.5920 hc        1 ESO      0.060200
     37 H122       -1.8940   -1.3650   -2.1890 hc        1 ESO      0.060200
     38 H14        -0.5920   -1.0390    1.0610 hc        1 ESO      0.089700
     39 H151       -2.0910   -1.6750    2.2630 hc        1 ESO      0.037700
     40 H152       -2.0710   -0.0860    2.4510 hc        1 ESO      0.037700
     41 H161       -4.1900   -1.2230    1.9330 hc        1 ESO      0.056200
     42 H162       -4.0190    0.1630    1.2900 hc        1 ESO      0.056200
     43 H181       -1.9790   -3.3430   -0.4270 hc        1 ESO      0.040367
     44 H182       -0.5910   -2.8780    0.2440 hc        1 ESO      0.040367
     45 H183       -1.9030   -3.0570    1.1510 hc        1 ESO      0.040367
@<TRIPOS>BOND
     1    1    2 3   
     2    1   25 1   
     3    2   26 1   
     4    3    4 1   
     5    3    9 3   
     6    4    5 1   
     7    5    6 1   
     8    5    7 1   
     9    5    8 1   
    10    9   27 1   
    11   10   11 1   
    12   10   15 3   
    13   11   12 1   
    14   11   28 1   
    15   11   29 1   
    16   12   13 1   
    17   12   30 1   
    18   12   31 1   
    19   13   14 1   
    20   13   19 1   
    21   13   32 1   
    22   14   15 1   
    23   14   16 1   
    24   14   33 1   
    25   16   17 1   
    26   16   34 1   
    27   16   35 1   
    28   17   18 1   
    29   17   36 1   
    30   17   37 1   
    31   18   19 1   
    32   18   22 1   
    33   18   24 1   
    34   19   20 1   
    35   19   38 1   
    36   20   21 1   
    37   20   39 1   
    38   20   40 1   
    39   21   22 1   
    40   21   41 1   
    41   21   42 1   
    42   22   23 2   
    43   24   43 1   
    44   24   44 1   
    45   24   45 1   
@<TRIPOS>SUBSTRUCTURE
     1 ESO         1 TEMP              0 ****  ****    0 ROOT
