@<TRIPOS>MOLECULE
ESO
   45    47     1     0     0
SMALL
bcc


@<TRIPOS>ATOM
      1 C1          0.0720   -0.5230    0.1650 ca        1 ESO     -0.066000
      2 C2          1.4370   -0.6240    0.2440 ca        1 ESO     -0.300000
      3 C3          2.1210   -0.5390    1.5120 ca        1 ESO      0.314000
      4 O3          3.3850   -0.6300    1.6170 o         1 ESO     -0.543000
      5 P           5.4340   -0.9180    0.6470 p3        1 ESO      2.495000
      6 O1P         4.9420   -1.0270   -0.7460 o         1 ESO     -1.174000
      7 O2P         6.0370    0.3610    1.0880 o         1 ESO     -1.174000
      8 O3P         5.8120   -2.1580    1.3640 o         1 ESO     -1.174000
      9 C4          1.2750   -0.3440    2.6600 ca        1 ESO     -0.331000
     10 C5         -0.1010   -0.2490    2.5530 ca        1 ESO     -0.007000
     11 C6         -0.8700   -0.0760    3.8240 c3        1 ESO     -0.109000
     12 C7         -2.3340    0.2540    3.6240 c3        1 ESO     -0.139000
     13 C8         -2.9030   -0.5870    2.4970 c3        1 ESO     -0.091000
     14 C9         -2.2160   -0.1750    1.1790 c3        1 ESO      0.004000
     15 C10        -0.7420   -0.3400    1.3020 ca        1 ESO     -0.297000
     16 C11        -2.8080   -0.9170   -0.0180 c3        1 ESO     -0.156000
     17 C12        -4.3290   -0.9030   -0.0900 c3        1 ESO     -0.132000
     18 C13        -4.9380   -1.3410    1.2290 c3        1 ESO     -0.094000
     19 C14        -4.3930   -0.3970    2.3280 c3        1 ESO     -0.097000
     20 C15        -5.3380   -0.6010    3.5080 c3        1 ESO     -0.153000
     21 C16        -6.7060   -0.8300    2.8610 c3        1 ESO     -0.220000
     22 C17        -6.4410   -1.1750    1.4050 c2        1 ESO      0.240000
     23 O17        -7.3160   -1.3040    0.5500 o         1 ESO     -0.316000
     24 C18        -4.6460   -2.8150    1.4840 c3        1 ESO     -0.199000
     25 H1         -0.4030   -0.5860   -0.8270 ha        1 ESO      0.071000
     26 H2          2.0620   -0.7700   -0.6480 ha        1 ESO      0.149000
     27 H4          1.7640   -0.2730    3.6400 ha        1 ESO      0.105000
     28 H61        -0.3940    0.7330    4.4410 hc        1 ESO      0.065000
     29 H62        -0.7890   -1.0290    4.4150 hc        1 ESO      0.065000
     30 H71        -2.4520    1.3420    3.3800 hc        1 ESO      0.054500
     31 H72        -2.9040    0.0590    4.5710 hc        1 ESO      0.054500
     32 H8         -2.6740   -1.6660    2.7120 hc        1 ESO      0.098000
     33 H9         -2.4400    0.9230    1.0220 hc        1 ESO      0.050000
     34 H111       -2.4230   -0.4400   -0.9580 hc        1 ESO      0.086000
     35 H112       -2.4370   -1.9750   -0.0110 hc        1 ESO      0.086000
     36 H121       -4.6870    0.1300   -0.3370 hc        1 ESO      0.071500
     37 H122       -4.6730   -1.5850   -0.9100 hc        1 ESO      0.071500
     38 H14        -4.5510    0.6640    1.9700 hc        1 ESO      0.085000
     39 H151       -5.0290   -1.4850    4.1180 hc        1 ESO      0.083000
     40 H152       -5.3470    0.2920    4.1780 hc        1 ESO      0.083000
     41 H161       -7.3410    0.0870    2.9200 hc        1 ESO      0.096500
     42 H162       -7.2590   -1.6680    3.3510 hc        1 ESO      0.096500
     43 H181       -5.1900   -3.4380    0.7320 hc        1 ESO      0.081333
     44 H182       -3.5530   -3.0220    1.3930 hc        1 ESO      0.081333
     45 H183       -4.9800   -3.1100    2.5080 hc        1 ESO      0.081333
@<TRIPOS>BOND
     1    1    2 1   
     2    1   15 1   
     3    1   25 1   
     4    2    3 1   
     5    2   26 1   
     6    3    4 1   
     7    3    9 1   
     8    5    6 1   
     9    5    7 1   
    10    5    8 1   
    11    9   10 1   
    12    9   27 1   
    13   10   11 1   
    14   10   15 1   
    15   11   12 1   
    16   11   28 1   
    17   11   29 1   
    18   12   13 1   
    19   12   30 1   
    20   12   31 1   
    21   13   14 1   
    22   13   19 1   
    23   13   32 1   
    24   14   15 1   
    25   14   16 1   
    26   14   33 1   
    27   16   17 1   
    28   16   34 1   
    29   16   35 1   
    30   17   18 1   
    31   17   36 1   
    32   17   37 1   
    33   18   19 1   
    34   18   22 1   
    35   18   24 1   
    36   19   20 1   
    37   19   38 1   
    38   20   21 1   
    39   20   39 1   
    40   20   40 1   
    41   21   22 1   
    42   21   41 1   
    43   21   42 1   
    44   22   23 1   
    45   24   43 1   
    46   24   44 1   
    47   24   45 1   
@<TRIPOS>SUBSTRUCTURE
     1 ESO         1 TEMP              0 ****  ****    0 ROOT
