@<TRIPOS>MOLECULE
ESO
   45    47     1     0     0
SMALL
bcc


@<TRIPOS>ATOM
      1 C1          0.0650   -0.5450    0.1580 ca        1 ESO     -0.066000
      2 C2          1.4300   -0.6530    0.2340 ca        1 ESO     -0.300000
      3 C3          2.1190   -0.5650    1.4980 ca        1 ESO      0.314000
      4 O3          3.3830   -0.6620    1.6000 o         1 ESO     -0.543000
      5 P           5.4270   -0.9680    0.6250 p3        1 ESO      2.495000
      6 O1P         4.9300   -1.0810   -0.7660 o         1 ESO     -1.174000
      7 O2P         6.0390    0.3100    1.0570 o         1 ESO     -1.174000
      8 O3P         5.8000   -2.2060    1.3470 o         1 ESO     -1.174000
      9 C4          1.2780   -0.3580    2.6480 ca        1 ESO     -0.331000
     10 C5         -0.0980   -0.2560    2.5450 ca        1 ESO     -0.007000
     11 C6         -0.8610   -0.0710    3.8170 c3        1 ESO     -0.109000
     12 C7         -2.3240    0.2660    3.6210 c3        1 ESO     -0.139000
     13 C8         -2.9020   -0.5780    2.5010 c3        1 ESO     -0.091000
     14 C9         -2.2170   -0.1780    1.1780 c3        1 ESO      0.004000
     15 C10        -0.7440   -0.3510    1.2960 ca        1 ESO     -0.297000
     16 C11        -2.8170   -0.9240   -0.0130 c3        1 ESO     -0.156000
     17 C12        -4.3380   -0.9010   -0.0800 c3        1 ESO     -0.132000
     18 C13        -4.9460   -1.3270    1.2440 c3        1 ESO     -0.094000
     19 C14        -4.3910   -0.3800    2.3350 c3        1 ESO     -0.097000
     20 C15        -5.3330   -0.5710    3.5190 c3        1 ESO     -0.153000
     21 C16        -6.7050   -0.7960    2.8780 c3        1 ESO     -0.220000
     22 C17        -6.4470   -1.1500    1.4230 c2        1 ESO      0.240000
     23 O17        -7.3260   -1.2800    0.5720 o         1 ESO     -0.316000
     24 C18        -4.6620   -2.8010    1.5060 c3        1 ESO     -0.199000
     25 H1         -0.4130   -0.6110   -0.8320 ha        1 ESO      0.071000
     26 H2          2.0520   -0.8080   -0.6600 ha        1 ESO      0.149000
     27 H4          1.7700   -0.2850    3.6260 ha        1 ESO      0.105000
     28 H61        -0.7840   -1.0220    4.4140 hc        1 ESO      0.065000
     29 H62        -0.3790    0.7380    4.4280 hc        1 ESO      0.065000
     30 H71        -2.8930    0.0810    4.5700 hc        1 ESO      0.054500
     31 H72        -2.4370    1.3530    3.3700 hc        1 ESO      0.054500
     32 H8         -2.6780   -1.6570    2.7210 hc        1 ESO      0.098000
     33 H9         -2.4350    0.9210    1.0150 hc        1 ESO      0.050000
     34 H111       -2.4530   -1.9830   -0.0010 hc        1 ESO      0.086000
     35 H112       -2.4320   -0.4540   -0.9570 hc        1 ESO      0.086000
     36 H121       -4.6900   -1.5850   -0.8950 hc        1 ESO      0.071500
     37 H122       -4.6910    0.1330   -0.3320 hc        1 ESO      0.071500
     38 H14        -4.5450    0.6800    1.9710 hc        1 ESO      0.085000
     39 H151       -5.3350    0.3250    4.1840 hc        1 ESO      0.083000
     40 H152       -5.0280   -1.4540    4.1330 hc        1 ESO      0.083000
     41 H161       -7.2610   -1.6280    3.3750 hc        1 ESO      0.096500
     42 H162       -7.3350    0.1260    2.9340 hc        1 ESO      0.096500
     43 H181       -4.9940   -3.0880    2.5330 hc        1 ESO      0.081333
     44 H182       -5.2120   -3.4250    0.7590 hc        1 ESO      0.081333
     45 H183       -3.5700   -3.0160    1.4130 hc        1 ESO      0.081333
@<TRIPOS>BOND
     1    1    2 1   
     2    1   15 1   
     3    1   25 1   
     4    2    3 1   
     5    2   26 1   
     6    3    4 1   
     7    3    9 1   
     8    5    6 1   
     9    5    7 1   
    10    5    8 1   
    11    9   10 1   
    12    9   27 1   
    13   10   11 1   
    14   10   15 1   
    15   11   12 1   
    16   11   28 1   
    17   11   29 1   
    18   12   13 1   
    19   12   30 1   
    20   12   31 1   
    21   13   14 1   
    22   13   19 1   
    23   13   32 1   
    24   14   15 1   
    25   14   16 1   
    26   14   33 1   
    27   16   17 1   
    28   16   34 1   
    29   16   35 1   
    30   17   18 1   
    31   17   36 1   
    32   17   37 1   
    33   18   19 1   
    34   18   22 1   
    35   18   24 1   
    36   19   20 1   
    37   19   38 1   
    38   20   21 1   
    39   20   39 1   
    40   20   40 1   
    41   21   22 1   
    42   21   41 1   
    43   21   42 1   
    44   22   23 1   
    45   24   43 1   
    46   24   44 1   
    47   24   45 1   
@<TRIPOS>SUBSTRUCTURE
     1 ESO         1 TEMP              0 ****  ****    0 ROOT
