@<TRIPOS>MOLECULE
ESP
   20    21     1     0     0
SMALL
bcc


@<TRIPOS>ATOM
      1 C0         -2.7260   -0.2300    0.0090 ce        1 ESP      0.565100
      2 C1         -1.2700   -0.1530   -0.0050 cc        1 ESP     -0.358000
      3 N1         -3.4320    0.8140    0.5120 nh        1 ESP     -0.476600
      4 N2         -3.3320   -1.3380   -0.4830 nh        1 ESP     -0.460700
      5 S2         -0.4300    1.3080   -0.1770 ss        1 ESP      0.087100
      6 C3          1.0790    0.5670   -0.0730 ca        1 ESP      0.432600
      7 C4          0.9420   -0.8540    0.0930 ca        1 ESP     -0.228100
      8 C5         -0.4230   -1.2470    0.1270 cd        1 ESP     -0.000200
      9 N6          2.2810    1.2000   -0.1400 nb        1 ESP     -0.630000
     10 C7          3.3650    0.4300   -0.0400 ca        1 ESP      0.467200
     11 C8          3.3320   -0.9890    0.1300 ca        1 ESP     -0.234300
     12 C9          2.1160   -1.6350    0.1980 ca        1 ESP     -0.027000
     13 HH11       -2.9400    1.5880    0.9080 hn        1 ESP      0.325950
     14 HH12       -4.4280    0.8350    0.5270 hn        1 ESP      0.325950
     15 HH21       -4.3210   -1.4610   -0.4800 hn        1 ESP      0.325950
     16 HH22       -2.7690   -2.0580   -0.8830 hn        1 ESP      0.325950
     17 H5         -0.7330   -2.2880    0.2680 ha        1 ESP      0.170000
     18 H7          4.3370    0.9600   -0.0950 h4        1 ESP      0.055100
     19 H8          4.2810   -1.5420    0.2050 ha        1 ESP      0.174000
     20 H9          2.0440   -2.7250    0.3290 ha        1 ESP      0.161000
@<TRIPOS>BOND
     1    1    2 1   
     2    1    3 2   
     3    1    4 1   
     4    2    5 1   
     5    2    8 2   
     6    3   13 1   
     7    3   14 1   
     8    4   15 1   
     9    4   16 1   
    10    5    6 1   
    11    6    7 ar  
    12    6    9 ar  
    13    7    8 1   
    14    7   12 ar  
    15    8   17 1   
    16    9   10 ar  
    17   10   11 ar  
    18   10   18 1   
    19   11   12 ar  
    20   11   19 1   
    21   12   20 1   
@<TRIPOS>SUBSTRUCTURE
     1 ESP         1 TEMP              0 ****  ****    0 ROOT
