@<TRIPOS>MOLECULE
ESP
   20    21     1     0     0
SMALL
bcc


@<TRIPOS>ATOM
      1 C0          0.0830    0.0300    0.0330 ce        1 ESP      0.565100
      2 C1          1.5390    0.0180   -0.0470 cc        1 ESP     -0.358000
      3 N1         -0.5210   -0.6100    1.0670 nh        1 ESP     -0.476600
      4 N2         -0.6240    0.6820   -0.9220 nh        1 ESP     -0.460700
      5 S2          2.5330   -0.0290    1.3230 ss        1 ESP      0.087100
      6 C3          3.9520   -0.0420    0.4150 ca        1 ESP      0.432600
      7 C4          3.6600   -0.0020   -0.9920 ca        1 ESP     -0.228100
      8 C5          2.2610    0.0360   -1.2350 cd        1 ESP     -0.000200
      9 N6          5.2160   -0.0790    0.9160 nb        1 ESP     -0.630000
     10 C7          6.2080   -0.0800    0.0260 ca        1 ESP      0.467200
     11 C8          6.0210   -0.0440   -1.3900 ca        1 ESP     -0.234300
     12 C9          4.7420   -0.0060   -1.9020 ca        1 ESP     -0.027000
     13 HH11       -1.5090   -0.6170    1.1930 hn        1 ESP      0.325950
     14 HH12        0.0400   -1.1170    1.7180 hn        1 ESP      0.325950
     15 HH21       -0.1310    1.1750   -1.6350 hn        1 ESP      0.325950
     16 HH22       -1.6200    0.7070   -0.9350 hn        1 ESP      0.325950
     17 H5          1.8390    0.0480   -2.2450 ha        1 ESP      0.170000
     18 H7          7.2320   -0.1110    0.4510 h4        1 ESP      0.055100
     19 H8          6.9030   -0.0480   -2.0480 ha        1 ESP      0.174000
     20 H9          4.5510    0.0210   -2.9860 ha        1 ESP      0.161000
@<TRIPOS>BOND
     1    1    2 1   
     2    1    3 2   
     3    1    4 1   
     4    2    5 1   
     5    2    8 2   
     6    3   13 1   
     7    3   14 1   
     8    4   15 1   
     9    4   16 1   
    10    5    6 1   
    11    6    7 ar  
    12    6    9 ar  
    13    7    8 1   
    14    7   12 ar  
    15    8   17 1   
    16    9   10 ar  
    17   10   11 ar  
    18   10   18 1   
    19   11   12 ar  
    20   11   19 1   
    21   12   20 1   
@<TRIPOS>SUBSTRUCTURE
     1 ESP         1 TEMP              0 ****  ****    0 ROOT
