@<TRIPOS>MOLECULE
ESP
   20    14     1     0     0
SMALL
bcc


@<TRIPOS>ATOM
      1 C0         -2.6860    0.1100   -0.1610 c1        1 ESP      0.605400
      2 C1         -1.1620    0.0360   -0.1730 c1        1 ESP     -0.142400
      3 N1         -3.4560   -1.0700    0.0010 n3        1 ESP     -0.424400
      4 N2         -3.2830    1.2630   -0.2890 n2        1 ESP     -0.784800
      5 S2         -0.4920   -0.0260    1.2320 ss        1 ESP      0.204800
      6 C3          1.0620   -0.0430    1.0140 c1        1 ESP     -0.142400
      7 C4          1.3130    0.0050   -0.3940 c1        1 ESP     -0.081500
      8 C5         -0.1150    0.0550   -1.1630 c1        1 ESP     -0.081500
      9 N6          2.1030   -0.1380    1.8900 n1        1 ESP     -0.429800
     10 C7          3.4010   -0.1880    1.4250 c1        1 ESP      0.385300
     11 C8          3.6590   -0.1420    0.0340 c1        1 ESP     -0.040500
     12 C9          2.6060   -0.0450   -0.8610 c1        1 ESP     -0.040500
     13 HH11       -4.2530   -1.0020    0.3960 hn        1 ESP      0.326700
     14 HH12       -3.1080   -1.8850   -0.1450 hn        1 ESP      0.326700
     15 HH21       -2.7340    2.1030   -0.3980 DU        1 ESP      0.226000
     16 HH22       -4.1300    1.3010   -0.2850 hn        1 ESP      0.513400
     17 H5         -0.2400    0.1140   -2.0850 DU        1 ESP      0.226000
     18 H7          4.1160   -0.2540    2.0360 ha        1 ESP      0.134500
     19 H8          4.6290   -0.1790   -0.3100 ha        1 ESP      0.110000
     20 H9          2.7700   -0.0150   -1.7640 ha        1 ESP      0.110000
@<TRIPOS>BOND
     1    1    3 2   
     2    1    4 2   
     3    2    5 1   
     4    2    8 3   
     5    3   13 1   
     6    3   14 1   
     7    4   16 1   
     8    5    6 1   
     9    6    7 3   
    10    9   10 3   
    11   10   18 1   
    12   11   12 3   
    13   11   19 1   
    14   12   20 1   
@<TRIPOS>SUBSTRUCTURE
     1 ESP         1 TEMP              0 ****  ****    0 ROOT
