@<TRIPOS>MOLECULE
ESR
   46    49     1     0     0
SMALL
bcc


@<TRIPOS>ATOM
      1 C1          0.1820   -0.0410   -4.5870 c         1 ESR      0.570100
      2 C2         -1.0260    0.3330   -3.7770 c3        1 ESR     -0.180400
      3 C3         -0.9450   -0.2140   -2.3610 c3        1 ESR     -0.054700
      4 C4          0.3630    0.2060   -1.6830 c3        1 ESR     -0.058700
      5 C5          1.5460   -0.2830   -2.5050 c3        1 ESR     -0.071400
      6 C6          1.5040    0.2290   -3.9280 c3        1 ESR     -0.182400
      7 C10        -2.1540    0.2550   -1.5650 c3        1 ESR     -0.074400
      8 C11        -2.0980   -0.2500   -0.1400 c3        1 ESR     -0.074400
      9 C12        -0.8080    0.1910    0.5300 c3        1 ESR     -0.047700
     10 C13         0.4050   -0.3430   -0.2540 c3        1 ESR     -0.054700
     11 C16        -0.7050   -0.3310    1.9450 c3        1 ESR     -0.063700
     12 C17         0.5630    0.2210    2.6370 c3        1 ESR     -0.153000
     13 C19         1.7260   -0.0180    0.4360 c3        1 ESR     -0.074400
     14 C24        -1.8270   -0.0740    2.9450 c3        1 ESR     -0.072400
     15 C25        -1.1660   -0.2840    4.3100 c3        1 ESR     -0.188400
     16 C26         0.3320   -0.2200    4.0800 c         1 ESR      0.577100
     17 C27         0.6410    1.7420    2.6700 c3        1 ESR     -0.082100
     18 O1          0.0940   -0.5060   -5.7260 o         1 ESR     -0.531100
     19 C18         1.7660   -0.3590    1.9180 c3        1 ESR     -0.056400
     20 O26         1.1940   -0.4680    4.9170 o         1 ESR     -0.519100
     21 H2C1       -1.0910    1.4540   -3.7510 hc        1 ESR      0.069700
     22 H2C2       -1.9550   -0.0510   -4.2770 hc        1 ESR      0.069700
     23 H3         -0.9660   -1.3390   -2.4100 hc        1 ESR      0.056700
     24 H4          0.3990    1.3310   -1.6350 hc        1 ESR      0.050700
     25 H5C1        2.5030    0.0670   -2.0360 hc        1 ESR      0.049700
     26 H5C2        1.5600   -1.4050   -2.5060 hc        1 ESR      0.049700
     27 H6C1        1.6680    1.3410   -3.9390 hc        1 ESR      0.069200
     28 H6C2        2.3290   -0.2420   -4.5250 hc        1 ESR      0.069200
     29 H101       -2.1920    1.3760   -1.5670 hc        1 ESR      0.043700
     30 H102       -3.0900   -0.1150   -2.0600 hc        1 ESR      0.043700
     31 H111       -2.9720    0.1490    0.4390 hc        1 ESR      0.044200
     32 H112       -2.1680   -1.3690   -0.1290 hc        1 ESR      0.044200
     33 H12        -0.7780    1.3160    0.5340 hc        1 ESR      0.055700
     34 H13         0.3120   -1.4650   -0.3080 hc        1 ESR      0.050700
     35 H16        -0.5890   -1.4540    1.8750 hc        1 ESR      0.052700
     36 H191        1.9560    1.0710    0.2950 hc        1 ESR      0.042700
     37 H192        2.5460   -0.5990   -0.0670 hc        1 ESR      0.042700
     38 H241       -2.2230    0.9660    2.8470 hc        1 ESR      0.049700
     39 H242       -2.6770   -0.7820    2.7900 hc        1 ESR      0.049700
     40 H251       -1.4700    0.5060    5.0400 hc        1 ESR      0.075200
     41 H252       -1.4370   -1.2790    4.7440 hc        1 ESR      0.075200
     42 H271        0.8000    2.1600    1.6490 hc        1 ESR      0.043700
     43 H272       -0.3010    2.1730    3.0860 hc        1 ESR      0.043700
     44 H273        1.4980    2.0560    3.3160 hc        1 ESR      0.043700
     45 H181        2.7100    0.0450    2.3680 hc        1 ESR      0.052200
     46 H182        1.7790   -1.4720    2.0520 hc        1 ESR      0.052200
@<TRIPOS>BOND
     1    1    2 1   
     2    1    6 1   
     3    1   18 2   
     4    2    3 1   
     5    2   21 1   
     6    2   22 1   
     7    3    4 1   
     8    3    7 1   
     9    3   23 1   
    10    4    5 1   
    11    4   10 1   
    12    4   24 1   
    13    5    6 1   
    14    5   25 1   
    15    5   26 1   
    16    6   27 1   
    17    6   28 1   
    18    7    8 1   
    19    7   29 1   
    20    7   30 1   
    21    8    9 1   
    22    8   31 1   
    23    8   32 1   
    24    9   10 1   
    25    9   11 1   
    26    9   33 1   
    27   10   13 1   
    28   10   34 1   
    29   11   12 1   
    30   11   14 1   
    31   11   35 1   
    32   12   16 1   
    33   12   17 1   
    34   12   19 1   
    35   13   19 1   
    36   13   36 1   
    37   13   37 1   
    38   14   15 1   
    39   14   38 1   
    40   14   39 1   
    41   15   16 1   
    42   15   40 1   
    43   15   41 1   
    44   16   20 2   
    45   17   42 1   
    46   17   43 1   
    47   17   44 1   
    48   19   45 1   
    49   19   46 1   
@<TRIPOS>SUBSTRUCTURE
     1 ESR         1 TEMP              0 ****  ****    0 ROOT
