@<TRIPOS>MOLECULE
ESR
   46    49     1     0     0
SMALL
bcc


@<TRIPOS>ATOM
      1 C1         -0.0430    0.1150   -0.0350 c         1 ESR      0.570100
      2 C2          1.4570    0.0500    0.0030 c3        1 ESR     -0.180400
      3 C3          1.9810   -0.0200    1.4280 c3        1 ESR     -0.054700
      4 C4          1.3290   -1.1730    2.1980 c3        1 ESR     -0.058700
      5 C5         -0.1830   -0.9960    2.2010 c3        1 ESR     -0.071400
      6 C6         -0.7510   -0.9120    0.8000 c3        1 ESR     -0.182400
      7 C10         3.4950   -0.1580    1.4060 c3        1 ESR     -0.074400
      8 C11         4.0540   -0.2560    2.8090 c3        1 ESR     -0.074400
      9 C12         3.4180   -1.4150    3.5550 c3        1 ESR     -0.047700
     10 C13         1.8910   -1.2280    3.6220 c3        1 ESR     -0.054700
     11 C16         3.9280   -1.5150    4.9750 c3        1 ESR     -0.063700
     12 C17         3.3460   -2.7650    5.6760 c3        1 ESR     -0.153000
     13 C19         1.2120   -2.3110    4.4530 c3        1 ESR     -0.074400
     14 C24         5.4260   -1.5860    5.2520 c3        1 ESR     -0.072400
     15 C25         5.5180   -2.1710    6.6640 c3        1 ESR     -0.188400
     16 C26         4.1680   -2.7970    6.9610 c         1 ESR      0.577100
     17 C27         3.6420   -4.0750    4.9560 c3        1 ESR     -0.082100
     18 O1         -0.6500    0.9340   -0.7310 o         1 ESR     -0.531100
     19 C18         1.8510   -2.5580    5.8120 c3        1 ESR     -0.056400
     20 O26         3.8170   -3.2540    8.0440 o         1 ESR     -0.519100
     21 H2C1        1.8910    0.9460   -0.5150 hc        1 ESR      0.069700
     22 H2C2        1.7770   -0.8620   -0.5690 hc        1 ESR      0.069700
     23 H3          1.7190    0.9420    1.9530 hc        1 ESR      0.056700
     24 H4          1.5770   -2.1390    1.6770 hc        1 ESR      0.050700
     25 H5C1       -0.6640   -1.8650    2.7210 hc        1 ESR      0.049700
     26 H5C2       -0.4490   -0.0690    2.7740 hc        1 ESR      0.049700
     27 H6C1       -0.6420   -1.9030    0.2840 hc        1 ESR      0.069200
     28 H6C2       -1.8460   -0.6730    0.8500 hc        1 ESR      0.069200
     29 H101        3.7800   -1.0730    0.8230 hc        1 ESR      0.043700
     30 H102        3.9410    0.7280    0.8830 hc        1 ESR      0.043700
     31 H111        5.1650   -0.4070    2.7660 hc        1 ESR      0.044200
     32 H112        3.8660    0.7020    3.3620 hc        1 ESR      0.044200
     33 H12         3.6490   -2.3650    2.9980 hc        1 ESR      0.055700
     34 H13         1.6870   -0.2360    4.1170 hc        1 ESR      0.050700
     35 H16         3.5430   -0.6080    5.5290 hc        1 ESR      0.052700
     36 H191        0.1440   -2.0110    4.6300 hc        1 ESR      0.042700
     37 H192        1.1960   -3.2680    3.8680 hc        1 ESR      0.042700
     38 H241        5.8960   -0.5740    5.1980 hc        1 ESR      0.049700
     39 H242        5.9420   -2.2450    4.5110 hc        1 ESR      0.049700
     40 H251        5.7380   -1.3760    7.4200 hc        1 ESR      0.075200
     41 H252        6.3180   -2.9480    6.7370 hc        1 ESR      0.075200
     42 H271        4.7350   -4.1670    4.7440 hc        1 ESR      0.043700
     43 H272        3.0880   -4.1380    3.9900 hc        1 ESR      0.043700
     44 H273        3.3260   -4.9320    5.6010 hc        1 ESR      0.043700
     45 H181        1.3830   -3.4600    6.2860 hc        1 ESR      0.052200
     46 H182        1.6560   -1.6840    6.4870 hc        1 ESR      0.052200
@<TRIPOS>BOND
     1    1    2 1   
     2    1    6 1   
     3    1   18 2   
     4    2    3 1   
     5    2   21 1   
     6    2   22 1   
     7    3    4 1   
     8    3    7 1   
     9    3   23 1   
    10    4    5 1   
    11    4   10 1   
    12    4   24 1   
    13    5    6 1   
    14    5   25 1   
    15    5   26 1   
    16    6   27 1   
    17    6   28 1   
    18    7    8 1   
    19    7   29 1   
    20    7   30 1   
    21    8    9 1   
    22    8   31 1   
    23    8   32 1   
    24    9   10 1   
    25    9   11 1   
    26    9   33 1   
    27   10   13 1   
    28   10   34 1   
    29   11   12 1   
    30   11   14 1   
    31   11   35 1   
    32   12   16 1   
    33   12   17 1   
    34   12   19 1   
    35   13   19 1   
    36   13   36 1   
    37   13   37 1   
    38   14   15 1   
    39   14   38 1   
    40   14   39 1   
    41   15   16 1   
    42   15   40 1   
    43   15   41 1   
    44   16   20 2   
    45   17   42 1   
    46   17   43 1   
    47   17   44 1   
    48   19   45 1   
    49   19   46 1   
@<TRIPOS>SUBSTRUCTURE
     1 ESR         1 TEMP              0 ****  ****    0 ROOT
