@<TRIPOS>MOLECULE
ESR
   46    49     1     0     0
SMALL
bcc


@<TRIPOS>ATOM
      1 C1         -0.0190    0.1270   -0.0480 c         1 ESR      0.570100
      2 C2          1.4800    0.0610   -0.0000 c3        1 ESR     -0.180400
      3 C3          1.9940   -0.0130    1.4280 c3        1 ESR     -0.054700
      4 C4          1.3360   -1.1660    2.1920 c3        1 ESR     -0.058700
      5 C5         -0.1750   -0.9880    2.1850 c3        1 ESR     -0.071400
      6 C6         -0.7340   -0.9010    0.7810 c3        1 ESR     -0.182400
      7 C10         3.5090   -0.1530    1.4170 c3        1 ESR     -0.074400
      8 C11         4.0580   -0.2530    2.8220 c3        1 ESR     -0.074400
      9 C12         3.4150   -1.4130    3.5630 c3        1 ESR     -0.047700
     10 C13         1.8890   -1.2240    3.6190 c3        1 ESR     -0.054700
     11 C16         3.9170   -1.5170    4.9850 c3        1 ESR     -0.063700
     12 C17         3.3290   -2.7670    5.6800 c3        1 ESR     -0.153000
     13 C19         1.2030   -2.3080    4.4450 c3        1 ESR     -0.074400
     14 C24         5.4130   -1.5890    5.2720 c3        1 ESR     -0.072400
     15 C25         5.4940   -2.1770    6.6840 c3        1 ESR     -0.188400
     16 C26         4.1420   -2.8020    6.9710 c         1 ESR      0.577100
     17 C27         3.6280   -4.0760    4.9600 c3        1 ESR     -0.082100
     18 O1         -0.6220    0.9480   -0.7460 o         1 ESR     -0.531100
     19 C18         1.8320   -2.5580    5.8070 c3        1 ESR     -0.056400
     20 O26         3.7830   -3.2610    8.0510 o         1 ESR     -0.519100
     21 H2C1        1.9180    0.9570   -0.5130 hc        1 ESR      0.069700
     22 H2C2        1.8030   -0.8510   -0.5710 hc        1 ESR      0.069700
     23 H3          1.7300    0.9490    1.9530 hc        1 ESR      0.056700
     24 H4          1.5870   -2.1320    1.6710 hc        1 ESR      0.050700
     25 H5C1       -0.4440   -0.0620    2.7580 hc        1 ESR      0.049700
     26 H5C2       -0.6610   -1.8580    2.7010 hc        1 ESR      0.049700
     27 H6C1       -1.8290   -0.6610    0.8240 hc        1 ESR      0.069200
     28 H6C2       -0.6230   -1.8920    0.2630 hc        1 ESR      0.069200
     29 H101        3.7960   -1.0670    0.8330 hc        1 ESR      0.043700
     30 H102        3.9590    0.7340    0.8980 hc        1 ESR      0.043700
     31 H111        3.8670    0.7030    3.3760 hc        1 ESR      0.044200
     32 H112        5.1690   -0.4050    2.7870 hc        1 ESR      0.044200
     33 H12         3.6500   -2.3620    3.0050 hc        1 ESR      0.055700
     34 H13         1.6830   -0.2330    4.1150 hc        1 ESR      0.050700
     35 H16         3.5280   -0.6100    5.5390 hc        1 ESR      0.052700
     36 H191        1.1900   -3.2640    3.8580 hc        1 ESR      0.042700
     37 H192        0.1340   -2.0080    4.6150 hc        1 ESR      0.042700
     38 H241        5.9320   -2.2470    4.5340 hc        1 ESR      0.049700
     39 H242        5.8840   -0.5780    5.2240 hc        1 ESR      0.049700
     40 H251        6.2930   -2.9550    6.7600 hc        1 ESR      0.075200
     41 H252        5.7100   -1.3830    7.4420 hc        1 ESR      0.075200
     42 H271        4.7210   -4.1680    4.7550 hc        1 ESR      0.043700
     43 H272        3.3060   -4.9330    5.6010 hc        1 ESR      0.043700
     44 H273        3.0800   -4.1370    3.9910 hc        1 ESR      0.043700
     45 H181        1.3600   -3.4600    6.2760 hc        1 ESR      0.052200
     46 H182        1.6340   -1.6850    6.4830 hc        1 ESR      0.052200
@<TRIPOS>BOND
     1    1    2 1   
     2    1    6 1   
     3    1   18 2   
     4    2    3 1   
     5    2   21 1   
     6    2   22 1   
     7    3    4 1   
     8    3    7 1   
     9    3   23 1   
    10    4    5 1   
    11    4   10 1   
    12    4   24 1   
    13    5    6 1   
    14    5   25 1   
    15    5   26 1   
    16    6   27 1   
    17    6   28 1   
    18    7    8 1   
    19    7   29 1   
    20    7   30 1   
    21    8    9 1   
    22    8   31 1   
    23    8   32 1   
    24    9   10 1   
    25    9   11 1   
    26    9   33 1   
    27   10   13 1   
    28   10   34 1   
    29   11   12 1   
    30   11   14 1   
    31   11   35 1   
    32   12   16 1   
    33   12   17 1   
    34   12   19 1   
    35   13   19 1   
    36   13   36 1   
    37   13   37 1   
    38   14   15 1   
    39   14   38 1   
    40   14   39 1   
    41   15   16 1   
    42   15   40 1   
    43   15   41 1   
    44   16   20 2   
    45   17   42 1   
    46   17   43 1   
    47   17   44 1   
    48   19   45 1   
    49   19   46 1   
@<TRIPOS>SUBSTRUCTURE
     1 ESR         1 TEMP              0 ****  ****    0 ROOT
