@<TRIPOS>MOLECULE
EST
   44    47     1     0     0
SMALL
bcc


@<TRIPOS>ATOM
      1 C1          0.0880    0.0160    0.0300 ca        1 EST     -0.091000
      2 C2          1.4780    0.0730    0.0640 ca        1 EST     -0.215000
      3 C3          2.1250    0.1510    1.3040 ca        1 EST      0.122100
      4 O3          3.4950    0.2130    1.4270 oh        1 EST     -0.499100
      5 C4          1.3850    0.1690    2.4930 ca        1 EST     -0.162000
      6 C5         -0.0110    0.1080    2.4440 ca        1 EST     -0.037300
      7 C6         -0.7340    0.1020    3.7470 c3        1 EST     -0.037100
      8 C7         -2.2320    0.2750    3.6180 c3        1 EST     -0.073400
      9 C8         -2.7550   -0.5400    2.4500 c3        1 EST     -0.047700
     10 C9         -2.1700    0.0260    1.1430 c3        1 EST     -0.008400
     11 C10        -0.6740    0.0300    1.2040 ca        1 EST     -0.099300
     12 C11        -2.7200   -0.6980   -0.0830 c3        1 EST     -0.071400
     13 C12        -4.2370   -0.8110   -0.1050 c3        1 EST     -0.063400
     14 C13        -4.7620   -1.3930    1.1940 c3        1 EST     -0.044000
     15 C14        -4.2620   -0.4880    2.3450 c3        1 EST     -0.065700
     16 C15        -5.1200   -0.8850    3.5390 c3        1 EST     -0.068400
     17 C16        -6.4810   -1.2400    2.9340 c3        1 EST     -0.117400
     18 C17        -6.2940   -1.2930    1.4020 c3        1 EST      0.141100
     19 O17        -6.9360   -2.4120    0.8180 oh        1 EST     -0.591800
     20 C18        -4.3430   -2.8470    1.3320 c3        1 EST     -0.077100
     21 H1         -0.4070   -0.0400   -0.9520 ha        1 EST      0.134000
     22 H2          2.0590    0.0580   -0.8680 ha        1 EST      0.132000
     23 HO3         3.8740    0.1920    0.5370 ho        1 EST      0.418000
     24 H4          1.9110    0.2300    3.4560 ha        1 EST      0.148000
     25 H61        -0.5180   -0.8770    4.2580 hc        1 EST      0.052700
     26 H62        -0.3220    0.9140    4.4050 hc        1 EST      0.052700
     27 H71        -2.7320   -0.0560    4.5640 hc        1 EST      0.044200
     28 H72        -2.4820    1.3580    3.4670 hc        1 EST      0.044200
     29 H8         -2.4170   -1.6050    2.5790 hc        1 EST      0.063700
     30 H9         -2.4960    1.1070    1.0670 hc        1 EST      0.053700
     31 H111       -2.2640   -1.7210   -0.1420 hc        1 EST      0.043200
     32 H112       -2.4110   -0.1390   -1.0060 hc        1 EST      0.043200
     33 H121       -4.5460   -1.4620   -0.9640 hc        1 EST      0.045200
     34 H122       -4.6860    0.2030   -0.2700 hc        1 EST      0.045200
     35 H14        -4.5410    0.5770    2.0850 hc        1 EST      0.045700
     36 H151       -4.6800   -1.7630    4.0720 hc        1 EST      0.045200
     37 H152       -5.2060   -0.0470    4.2720 hc        1 EST      0.045200
     38 H161       -6.8320   -2.2320    3.3090 hc        1 EST      0.047200
     39 H162       -7.2480   -0.4750    3.2030 hc        1 EST      0.047200
     40 H17        -6.6860   -0.3530    0.9250 h1        1 EST      0.033700
     41 HO7        -7.8700   -2.3410    1.0510 ho        1 EST      0.398000
     42 H181       -3.2380   -2.9660    1.2460 hc        1 EST      0.041367
     43 H182       -4.8290   -3.4500    0.5250 hc        1 EST      0.041367
     44 H183       -4.6740   -3.2510    2.3180 hc        1 EST      0.041367
@<TRIPOS>BOND
     1    1    2 ar  
     2    1   11 ar  
     3    1   21 1   
     4    2    3 ar  
     5    2   22 1   
     6    3    4 1   
     7    3    5 ar  
     8    4   23 1   
     9    5    6 ar  
    10    5   24 1   
    11    6    7 1   
    12    6   11 ar  
    13    7    8 1   
    14    7   25 1   
    15    7   26 1   
    16    8    9 1   
    17    8   27 1   
    18    8   28 1   
    19    9   10 1   
    20    9   15 1   
    21    9   29 1   
    22   10   11 1   
    23   10   12 1   
    24   10   30 1   
    25   12   13 1   
    26   12   31 1   
    27   12   32 1   
    28   13   14 1   
    29   13   33 1   
    30   13   34 1   
    31   14   15 1   
    32   14   18 1   
    33   14   20 1   
    34   15   16 1   
    35   15   35 1   
    36   16   17 1   
    37   16   36 1   
    38   16   37 1   
    39   17   18 1   
    40   17   38 1   
    41   17   39 1   
    42   18   19 1   
    43   18   40 1   
    44   19   41 1   
    45   20   42 1   
    46   20   43 1   
    47   20   44 1   
@<TRIPOS>SUBSTRUCTURE
     1 EST         1 TEMP              0 ****  ****    0 ROOT
