@<TRIPOS>MOLECULE
EST
   44    47     1     0     0
SMALL
bcc


@<TRIPOS>ATOM
      1 C1          0.0890    0.0100    0.0290 ca        1 EST     -0.091000
      2 C2          1.4790    0.0660    0.0630 ca        1 EST     -0.215000
      3 C3          2.1260    0.1450    1.3020 ca        1 EST      0.122100
      4 O3          3.4960    0.2070    1.4260 oh        1 EST     -0.499100
      5 C4          1.3860    0.1660    2.4910 ca        1 EST     -0.162000
      6 C5         -0.0100    0.1070    2.4430 ca        1 EST     -0.037300
      7 C6         -0.7340    0.1040    3.7460 c3        1 EST     -0.037100
      8 C7         -2.2310    0.2790    3.6150 c3        1 EST     -0.073400
      9 C8         -2.7550   -0.5380    2.4490 c3        1 EST     -0.047700
     10 C9         -2.1690    0.0240    1.1410 c3        1 EST     -0.008400
     11 C10        -0.6730    0.0270    1.2030 ca        1 EST     -0.099300
     12 C11        -2.7200   -0.7020   -0.0830 c3        1 EST     -0.071400
     13 C12        -4.2370   -0.8140   -0.1050 c3        1 EST     -0.063400
     14 C13        -4.7630   -1.3920    1.1960 c3        1 EST     -0.044000
     15 C14        -4.2620   -0.4850    2.3440 c3        1 EST     -0.066700
     16 C15        -5.1200   -0.8780    3.5390 c3        1 EST     -0.068400
     17 C16        -6.4810   -1.2330    2.9350 c3        1 EST     -0.117400
     18 C17        -6.2950   -1.2900    1.4020 c3        1 EST      0.141100
     19 O17        -6.9380   -2.4090    0.8210 oh        1 EST     -0.591800
     20 C18        -4.3460   -2.8460    1.3360 c3        1 EST     -0.077100
     21 H1         -0.4060   -0.0480   -0.9530 ha        1 EST      0.134000
     22 H2          2.0600    0.0490   -0.8690 ha        1 EST      0.132000
     23 HO3         3.8750    0.1830    0.5360 ho        1 EST      0.418000
     24 H4          1.9120    0.2290    3.4550 ha        1 EST      0.148000
     25 H61        -0.3210    0.9170    4.4020 hc        1 EST      0.052700
     26 H62        -0.5180   -0.8750    4.2590 hc        1 EST      0.052700
     27 H71        -2.4800    1.3610    3.4630 hc        1 EST      0.044200
     28 H72        -2.7320   -0.0500    4.5630 hc        1 EST      0.044200
     29 H8         -2.4180   -1.6030    2.5800 hc        1 EST      0.063700
     30 H9         -2.4940    1.1050    1.0640 hc        1 EST      0.053700
     31 H111       -2.4100   -0.1450   -1.0070 hc        1 EST      0.043200
     32 H112       -2.2650   -1.7250   -0.1400 hc        1 EST      0.043200
     33 H121       -4.6850    0.2010   -0.2720 hc        1 EST      0.045200
     34 H122       -4.5460   -1.4660   -0.9620 hc        1 EST      0.045200
     35 H14        -4.5390    0.5790    2.0820 hc        1 EST      0.045700
     36 H151       -5.2050   -0.0390    4.2710 hc        1 EST      0.045200
     37 H152       -4.6810   -1.7560    4.0740 hc        1 EST      0.045200
     38 H161       -7.2480   -0.4670    3.2010 hc        1 EST      0.047200
     39 H162       -6.8340   -2.2240    3.3120 hc        1 EST      0.047200
     40 H17        -6.6850   -0.3500    0.9240 h1        1 EST      0.033700
     41 HO7        -7.8710   -2.3370    1.0530 ho        1 EST      0.398000
     42 H181       -4.8320   -3.4500    0.5300 hc        1 EST      0.041367
     43 H182       -3.2400   -2.9660    1.2510 hc        1 EST      0.041367
     44 H183       -4.6770   -3.2480    2.3240 hc        1 EST      0.041367
@<TRIPOS>BOND
     1    1    2 ar  
     2    1   11 ar  
     3    1   21 1   
     4    2    3 ar  
     5    2   22 1   
     6    3    4 1   
     7    3    5 ar  
     8    4   23 1   
     9    5    6 ar  
    10    5   24 1   
    11    6    7 1   
    12    6   11 ar  
    13    7    8 1   
    14    7   25 1   
    15    7   26 1   
    16    8    9 1   
    17    8   27 1   
    18    8   28 1   
    19    9   10 1   
    20    9   15 1   
    21    9   29 1   
    22   10   11 1   
    23   10   12 1   
    24   10   30 1   
    25   12   13 1   
    26   12   31 1   
    27   12   32 1   
    28   13   14 1   
    29   13   33 1   
    30   13   34 1   
    31   14   15 1   
    32   14   18 1   
    33   14   20 1   
    34   15   16 1   
    35   15   35 1   
    36   16   17 1   
    37   16   36 1   
    38   16   37 1   
    39   17   18 1   
    40   17   38 1   
    41   17   39 1   
    42   18   19 1   
    43   18   40 1   
    44   19   41 1   
    45   20   42 1   
    46   20   43 1   
    47   20   44 1   
@<TRIPOS>SUBSTRUCTURE
     1 EST         1 TEMP              0 ****  ****    0 ROOT
