@<TRIPOS>MOLECULE
EST
   44    47     1     0     0
SMALL
bcc


@<TRIPOS>ATOM
      1 C1          1.4670   -0.2640   -2.5550 ca        1 EST     -0.091000
      2 C2          1.4150    0.0120   -3.9180 ca        1 EST     -0.215000
      3 C3          0.1760    0.2850   -4.5100 ca        1 EST      0.122100
      4 O3          0.0350    0.5660   -5.8510 oh        1 EST     -0.499100
      5 C4         -0.9950    0.2840   -3.7420 ca        1 EST     -0.162000
      6 C5         -0.9280    0.0080   -2.3730 ca        1 EST     -0.037300
      7 C6         -2.2080    0.0510   -1.6100 c3        1 EST     -0.037100
      8 C7         -2.0990   -0.4860   -0.2000 c3        1 EST     -0.073400
      9 C8         -0.8100   -0.0120    0.4440 c3        1 EST     -0.047700
     10 C9          0.3820   -0.6250   -0.3120 c3        1 EST     -0.008400
     11 C10         0.3110   -0.2690   -1.7660 ca        1 EST     -0.099300
     12 C11         1.7140   -0.2530    0.3340 c3        1 EST     -0.071400
     13 C12         1.7640   -0.5030    1.8340 c3        1 EST     -0.063400
     14 C13         0.5820    0.1380    2.5360 c3        1 EST     -0.044000
     15 C14        -0.7060   -0.4310    1.8930 c3        1 EST     -0.065700
     16 C15        -1.8120   -0.0610    2.8720 c3        1 EST     -0.068400
     17 C16        -1.1490   -0.1350    4.2490 c3        1 EST     -0.117400
     18 C17         0.3700   -0.2830    4.0120 c3        1 EST      0.141100
     19 O17         1.1340    0.5470    4.8670 oh        1 EST     -0.591800
     20 C18         0.6830    1.6530    2.4690 c3        1 EST     -0.077100
     21 H1          2.4470   -0.4820   -2.1040 ha        1 EST      0.134000
     22 H2          2.3330    0.0140   -4.5210 ha        1 EST      0.132000
     23 HO3         0.9140    0.5340   -6.2540 ho        1 EST      0.418000
     24 H4         -1.9590    0.5010   -4.2240 ha        1 EST      0.148000
     25 H61        -2.9940   -0.5270   -2.1680 hc        1 EST      0.052700
     26 H62        -2.5520    1.1220   -1.5730 hc        1 EST      0.052700
     27 H71        -2.1280   -1.6070   -0.2110 hc        1 EST      0.044200
     28 H72        -2.9760   -0.1350    0.4060 hc        1 EST      0.044200
     29 H8         -0.7640    1.1090    0.3660 hc        1 EST      0.063700
     30 H9          0.2810   -1.7500   -0.2480 hc        1 EST      0.053700
     31 H111        1.9380    0.8250    0.1230 hc        1 EST      0.043200
     32 H112        2.5300   -0.8640   -0.1360 hc        1 EST      0.043200
     33 H121        2.7200   -0.0870    2.2450 hc        1 EST      0.045200
     34 H122        1.7630   -1.6080    2.0300 hc        1 EST      0.045200
     35 H14        -0.6230   -1.5580    1.9080 hc        1 EST      0.045700
     36 H151       -2.1970    0.9690    2.6690 hc        1 EST      0.045200
     37 H152       -2.6730   -0.7690    2.7950 hc        1 EST      0.045200
     38 H161       -1.3530    0.7940    4.8360 hc        1 EST      0.047200
     39 H162       -1.5350   -1.0060    4.8310 hc        1 EST      0.047200
     40 H17         0.6880   -1.3530    4.1550 h1        1 EST      0.033700
     41 HO7         0.8990    0.2970    5.7680 ho        1 EST      0.398000
     42 H181        0.7790    2.0110    1.4170 hc        1 EST      0.041367
     43 H182       -0.2220    2.1190    2.9270 hc        1 EST      0.041367
     44 H183        1.5810    1.9890    3.0430 hc        1 EST      0.041367
@<TRIPOS>BOND
     1    1    2 ar  
     2    1   11 ar  
     3    1   21 1   
     4    2    3 ar  
     5    2   22 1   
     6    3    4 1   
     7    3    5 ar  
     8    4   23 1   
     9    5    6 ar  
    10    5   24 1   
    11    6    7 1   
    12    6   11 ar  
    13    7    8 1   
    14    7   25 1   
    15    7   26 1   
    16    8    9 1   
    17    8   27 1   
    18    8   28 1   
    19    9   10 1   
    20    9   15 1   
    21    9   29 1   
    22   10   11 1   
    23   10   12 1   
    24   10   30 1   
    25   12   13 1   
    26   12   31 1   
    27   12   32 1   
    28   13   14 1   
    29   13   33 1   
    30   13   34 1   
    31   14   15 1   
    32   14   18 1   
    33   14   20 1   
    34   15   16 1   
    35   15   35 1   
    36   16   17 1   
    37   16   36 1   
    38   16   37 1   
    39   17   18 1   
    40   17   38 1   
    41   17   39 1   
    42   18   19 1   
    43   18   40 1   
    44   19   41 1   
    45   20   42 1   
    46   20   43 1   
    47   20   44 1   
@<TRIPOS>SUBSTRUCTURE
     1 EST         1 TEMP              0 ****  ****    0 ROOT
