@<TRIPOS>MOLECULE
ESX
   21    15     1     0     0
SMALL
bcc


@<TRIPOS>ATOM
      1 C0         -2.7790   -0.2020   -0.0580 c1        1 ESX      0.605400
      2 C1         -1.2660   -0.2090   -0.0730 c1        1 ESX     -0.156400
      3 N1         -3.4810    1.0270    0.0350 n3        1 ESX     -0.421400
      4 N2         -3.4390   -1.3290   -0.1300 n2        1 ESX     -0.791800
      5 S2         -0.4400   -0.2920    1.2310 ss        1 ESX      0.138800
      6 C3          1.0670   -0.0880    0.8490 c1        1 ESX     -0.156400
      7 C4          1.1400    0.1020   -0.5670 c1        1 ESX     -0.060000
      8 C5         -0.3490    0.0260   -1.1660 c1        1 ESX     -0.060000
      9 C6          2.2260   -0.0770    1.6090 c1        1 ESX     -0.030250
     10 C7          3.4660    0.1200    0.9920 c1        1 ESX     -0.030250
     11 C8          3.5380    0.3070   -0.4070 c1        1 ESX     -0.030250
     12 C9          2.3690    0.2960   -1.1760 c1        1 ESX     -0.030250
     13 HH11       -4.3040    1.0540    0.4320 hn        1 ESX      0.324200
     14 HH12       -3.0980    1.7970   -0.2760 hn        1 ESX      0.324200
     15 HH21       -2.9860   -2.1230   -0.1900 DU        1 ESX      0.225500
     16 HH22       -4.3550   -1.3250   -0.1210 hn        1 ESX      0.513400
     17 H5         -0.5930    0.1220   -2.1060 DU        1 ESX      0.225500
     18 H6          2.1770   -0.2060    2.5760 ha        1 ESX      0.102250
     19 H7          4.2820    0.1270    1.5270 ha        1 ESX      0.102250
     20 H8          4.4040    0.4440   -0.8360 ha        1 ESX      0.102250
     21 H9          2.4200    0.4260   -2.1430 ha        1 ESX      0.102250
@<TRIPOS>BOND
     1    1    3 2   
     2    1    4 2   
     3    2    5 1   
     4    2    8 3   
     5    3   13 1   
     6    3   14 1   
     7    4   16 1   
     8    5    6 1   
     9    6    7 3   
    10    9   10 3   
    11    9   18 1   
    12   10   19 1   
    13   11   12 3   
    14   11   20 1   
    15   12   21 1   
@<TRIPOS>SUBSTRUCTURE
     1 ESX         1 TEMP              0 ****  ****    0 ROOT
