@<TRIPOS>MOLECULE
ESX
   21    22     1     0     0
SMALL
bcc


@<TRIPOS>ATOM
      1 C0         -2.7150   -0.2290    0.0110 ce        1 ESX      0.565100
      2 C1         -1.2610   -0.1430   -0.0020 cc        1 ESX     -0.342000
      3 N1         -3.3150   -1.3500   -0.4620 nh        1 ESX     -0.478600
      4 N2         -3.4290    0.8200    0.4920 nh        1 ESX     -0.462700
      5 S2         -0.4210    1.3250   -0.1500 ss        1 ESX      0.121500
      6 C3          1.0870    0.5960   -0.0600 ca        1 ESX     -0.040100
      7 C4          0.9650   -0.8190    0.0840 ca        1 ESX     -0.116800
      8 C5         -0.4020   -1.2280    0.1120 cd        1 ESX     -0.003200
      9 C6          2.3560    1.1880   -0.1150 ca        1 ESX     -0.109000
     10 C7          3.4770    0.3800   -0.0220 ca        1 ESX     -0.061000
     11 C8          3.3600   -1.0190    0.1240 ca        1 ESX     -0.119000
     12 C9          2.1180   -1.6220    0.1780 ca        1 ESX     -0.062000
     13 HH11       -4.3030   -1.4770   -0.4580 hn        1 ESX      0.324950
     14 HH12       -2.7480   -2.0740   -0.8470 hn        1 ESX      0.324950
     15 HH21       -2.9420    1.6040    0.8730 hn        1 ESX      0.324950
     16 HH22       -4.4250    0.8340    0.5060 hn        1 ESX      0.324950
     17 H5         -0.6960   -2.2750    0.2370 ha        1 ESX      0.168000
     18 H6          2.4570    2.2780   -0.2290 ha        1 ESX      0.160000
     19 H7          4.4830    0.8320   -0.0620 ha        1 ESX      0.162000
     20 H8          4.2750   -1.6280    0.1960 ha        1 ESX      0.162000
     21 H9          2.0180   -2.7120    0.2920 ha        1 ESX      0.155000
@<TRIPOS>BOND
     1    1    2 1   
     2    1    3 2   
     3    1    4 1   
     4    2    5 1   
     5    2    8 2   
     6    3   13 1   
     7    3   14 1   
     8    4   15 1   
     9    4   16 1   
    10    5    6 1   
    11    6    7 ar  
    12    6    9 ar  
    13    7    8 1   
    14    7   12 ar  
    15    8   17 1   
    16    9   10 ar  
    17    9   18 1   
    18   10   11 ar  
    19   10   19 1   
    20   11   12 ar  
    21   11   20 1   
    22   12   21 1   
@<TRIPOS>SUBSTRUCTURE
     1 ESX         1 TEMP              0 ****  ****    0 ROOT
