@<TRIPOS>MOLECULE
ESX
   21    22     1     0     0
SMALL
bcc


@<TRIPOS>ATOM
      1 C0          0.0850   -0.0180    0.0140 ce        1 ESX      0.565100
      2 C1          1.5400   -0.0010   -0.0500 cc        1 ESX     -0.342000
      3 N1         -0.6270    0.5800   -0.9730 nh        1 ESX     -0.478600
      4 N2         -0.5160   -0.6300    1.0660 nh        1 ESX     -0.462700
      5 S2          2.5290   -0.0210    1.3300 ss        1 ESX      0.121500
      6 C3          3.9530   -0.0070    0.4430 ca        1 ESX     -0.040100
      7 C4          3.6840    0.0180   -0.9590 ca        1 ESX     -0.116800
      8 C5          2.2820    0.0250   -1.2240 cd        1 ESX     -0.003200
      9 C6          5.2770   -0.0110    0.9020 ca        1 ESX     -0.109000
     10 C7          6.3080    0.0060   -0.0230 ca        1 ESX     -0.061000
     11 C8          6.0450    0.0270   -1.4090 ca        1 ESX     -0.119000
     12 C9          4.7470    0.0330   -1.8830 ca        1 ESX     -0.062000
     13 HH11       -0.1380    1.0550   -1.7000 hn        1 ESX      0.324950
     14 HH12       -1.6230    0.5810   -0.9960 hn        1 ESX      0.324950
     15 HH21        0.0490   -1.0970    1.7440 hn        1 ESX      0.324950
     16 HH22       -1.5050   -0.6550    1.1820 hn        1 ESX      0.324950
     17 H5          1.8800    0.0240   -2.2420 ha        1 ESX      0.168000
     18 H6          5.4910   -0.0280    1.9820 ha        1 ESX      0.160000
     19 H7          7.3550    0.0020    0.3240 ha        1 ESX      0.162000
     20 H8          6.8920    0.0390   -2.1150 ha        1 ESX      0.162000
     21 H9          4.5340    0.0500   -2.9620 ha        1 ESX      0.155000
@<TRIPOS>BOND
     1    1    2 1   
     2    1    3 2   
     3    1    4 1   
     4    2    5 1   
     5    2    8 2   
     6    3   13 1   
     7    3   14 1   
     8    4   15 1   
     9    4   16 1   
    10    5    6 1   
    11    6    7 ar  
    12    6    9 ar  
    13    7    8 1   
    14    7   12 ar  
    15    8   17 1   
    16    9   10 ar  
    17    9   18 1   
    18   10   11 ar  
    19   10   19 1   
    20   11   12 ar  
    21   11   20 1   
    22   12   21 1   
@<TRIPOS>SUBSTRUCTURE
     1 ESX         1 TEMP              0 ****  ****    0 ROOT
