@<TRIPOS>MOLECULE
ESY
   89    90     1     0     0
SMALL
bcc


@<TRIPOS>ATOM
      1 C1          3.6190   -2.1630    1.1550 ca        1 ESY     -0.042000
      2 C2          4.7000   -1.3460    1.5000 ca        1 ESY     -0.130000
      3 C3          4.6520   -0.5760    2.6570 ca        1 ESY     -0.069000
      4 C4          3.5180   -0.6260    3.4880 ca        1 ESY     -0.191300
      5 C5          3.4930    0.1270    4.7430 c3        1 ESY      0.255700
      6 O6          2.8630    1.4640    4.3360 os        1 ESY     -0.386900
      7 C7          2.7600    2.4000    5.2440 c         1 ESY      0.654100
      8 N8          2.1000    3.6510    4.6830 ny        1 ESY     -0.670800
      9 C9          2.4270    4.8710    5.4970 c3        1 ESY      0.088500
     10 C10         1.8450    4.7220    6.9140 c         1 ESY      0.530100
     11 N11         2.7930    4.6910    8.0770 ny        1 ESY     -0.656800
     12 C12         2.9700    6.0340    8.7540 c3        1 ESY      0.069500
     13 C13         3.4820    5.8930   10.1910 c3        1 ESY     -0.115400
     14 C14         2.3980    5.4940   11.1740 c3        1 ESY     -0.086400
     15 C15         2.9000    5.6630   12.5990 c3        1 ESY     -0.104400
     16 C16         1.7870    5.3140   13.5830 c3        1 ESY      0.106800
     17 N17         2.1990    5.4610   15.0040 ny        1 ESY     -0.667800
     18 C18         1.1440    5.0110   15.9950 c         1 ESY      0.561100
     19 C19         1.4160    5.2970   17.4730 c3        1 ESY      0.109100
     20 C20         1.5930    3.9760   18.2350 c3        1 ESY     -0.230700
     21 C21         2.7150    3.1390   17.6680 c         1 ESY      0.610900
     22 O22         3.0770    3.2570   16.4910 o         1 ESY     -0.611100
     23 C23         1.7950    4.2030   19.7400 c3        1 ESY     -0.065700
     24 C24         1.5410    2.9020   20.5010 c3        1 ESY     -0.081400
     25 C25         2.2850    2.8650   21.8120 c3        1 ESY     -0.103100
     26 C26         0.8850    5.2890   20.2780 c3        1 ESY     -0.113100
     27 O27         2.5450    6.1480   17.5470 oh        1 ESY     -0.633800
     28 C29         3.9280    6.9040    7.9290 c         1 ESY      0.627100
     29 O30         4.2460    8.0530    8.5190 os        1 ESY     -0.392900
     30 C31         5.1430    8.9680    7.7780 c3        1 ESY      0.212700
     31 C32         5.4890   10.0460    8.7320 ca        1 ESY     -0.160300
     32 C33         6.6990    9.9950    9.4370 ca        1 ESY     -0.094000
     33 C34         7.0610   11.0490   10.2740 ca        1 ESY     -0.126500
     34 C35         6.2180   12.1520   10.4160 ca        1 ESY     -0.078000
     35 C36         5.0070   12.2010    9.7220 ca        1 ESY     -0.126500
     36 C37         4.6410   11.1510    8.8820 ca        1 ESY     -0.094000
     37 O28         0.1540    4.4620   15.5440 o         1 ESY     -0.414100
     38 O38         4.3430    6.5830    6.8070 o         1 ESY     -0.584000
     39 O39         0.6530    4.6160    7.1610 o         1 ESY     -0.375100
     40 C40         1.8450    6.1380    4.8760 c3        1 ESY     -0.142100
     41 O41         3.1090    2.4050    6.4260 o         1 ESY     -0.547000
     42 C42         2.4290   -1.4400    3.1310 ca        1 ESY     -0.069000
     43 C43         2.4850   -2.2070    1.9710 ca        1 ESY     -0.130000
     44 H1          3.6620   -2.7760    0.2380 ha        1 ESY      0.173000
     45 H2          5.5950   -1.3190    0.8560 ha        1 ESY      0.169000
     46 H3          5.5100    0.0580    2.9310 ha        1 ESY      0.138500
     47 H5          4.4980    0.3910    5.1530 h1        1 ESY      0.088700
     48 H5A         2.8060   -0.2840    5.5230 h1        1 ESY      0.088700
     49 HN8         2.4290    3.7990    3.7130 hn        1 ESY      0.494800
     50 H9          3.5630    4.9630    5.5270 hx        1 ESY      0.174700
     51 HN11        2.4290    4.0240    8.7770 hn        1 ESY      0.486300
     52 H12         1.9560    6.5440    8.7650 hx        1 ESY      0.145700
     53 H13         4.3440    5.1760   10.2440 hc        1 ESY      0.112700
     54 H13A        3.8870    6.9090   10.4820 hc        1 ESY      0.112700
     55 H14         1.4880    6.1360   11.0230 hc        1 ESY      0.059200
     56 H14A        2.0910    4.4270   11.0110 hc        1 ESY      0.059200
     57 H15         3.7890    4.9970   12.7650 hc        1 ESY      0.079200
     58 H15A        3.2360    6.7240   12.7530 hc        1 ESY      0.079200
     59 H16         1.4580    4.2440   13.4340 hx        1 ESY      0.112700
     60 H16A        0.8920    5.9800   13.4140 hx        1 ESY      0.112700
     61 HN17        3.0410    4.8860   15.1960 hn        1 ESY      0.483300
     62 H19         0.4960    5.8410   17.8540 h1        1 ESY      0.128700
     63 H20         0.6390    3.3810   18.1000 hc        1 ESY      0.125700
     64 H21         3.1830    2.4000   18.3550 h4        1 ESY      0.070200
     65 H23         2.8660    4.5140   19.9050 hc        1 ESY      0.061700
     66 H24         1.8510    2.0200   19.8810 hc        1 ESY      0.050700
     67 H24A        0.4390    2.7960   20.6890 hc        1 ESY      0.050700
     68 H25         2.0600    1.9100   22.3480 hc        1 ESY      0.053367
     69 H25A        1.9820    3.7140   22.4710 hc        1 ESY      0.053367
     70 H25B        3.3890    2.9240   21.6470 hc        1 ESY      0.053367
     71 H26         1.1870    6.3000   19.9110 hc        1 ESY      0.054700
     72 H26A       -0.1780    5.1000   19.9920 hc        1 ESY      0.054700
     73 H26B        0.9430    5.3050   21.3960 hc        1 ESY      0.054700
     74 HO27        2.7430    6.2960   18.4860 ho        1 ESY      0.477000
     75 H31         4.5580    9.3350    6.8960 h1        1 ESY      0.080700
     76 H31A        6.0320    8.3720    7.4440 h1        1 ESY      0.080700
     77 H33         7.3760    9.1360    9.3130 ha        1 ESY      0.134000
     78 H34         8.0230   11.0180   10.8120 ha        1 ESY      0.158500
     79 H35         6.5130   12.9910   11.0680 ha        1 ESY      0.162000
     80 H36         4.3470   13.0770    9.8270 ha        1 ESY      0.158500
     81 H37         3.6950   11.2000    8.3230 ha        1 ESY      0.134000
     82 H40         2.2560    7.0210    5.4330 hc        1 ESY      0.109367
     83 H40A        2.1670    6.2440    3.8070 hc        1 ESY      0.109367
     84 H40B        0.7280    6.1540    4.9280 hc        1 ESY      0.109367
     85 H42         1.5380   -1.4840    3.7760 ha        1 ESY      0.138500
     86 H43         1.6360   -2.8560    1.6980 ha        1 ESY      0.169000
     87 H82         1.0800    3.5010    4.6470 hn        1 ESY      0.494800
     88 H112        3.7110    4.3490    7.7470 hn        1 ESY      0.486300
     89 H172        2.4380    6.4390   15.2170 hn        1 ESY      0.483300
@<TRIPOS>BOND
     1    1    2 ar  
     2    1   43 ar  
     3    1   44 1   
     4    2    3 ar  
     5    2   45 1   
     6    3    4 ar  
     7    3   46 1   
     8    4    5 1   
     9    4   42 ar  
    10    5    6 1   
    11    5   47 1   
    12    5   48 1   
    13    6    7 1   
    14    7    8 1   
    15    7   41 2   
    16    8    9 1   
    17    8   49 1   
    18    8   87 1   
    19    9   10 1   
    20    9   40 1   
    21    9   50 1   
    22   10   11 1   
    23   10   39 2   
    24   11   12 1   
    25   11   51 1   
    26   11   88 1   
    27   12   13 1   
    28   12   28 1   
    29   12   52 1   
    30   13   14 1   
    31   13   53 1   
    32   13   54 1   
    33   14   15 1   
    34   14   55 1   
    35   14   56 1   
    36   15   16 1   
    37   15   57 1   
    38   15   58 1   
    39   16   17 1   
    40   16   59 1   
    41   16   60 1   
    42   17   18 1   
    43   17   61 1   
    44   17   89 1   
    45   18   19 1   
    46   18   37 2   
    47   19   20 1   
    48   19   27 1   
    49   19   62 1   
    50   20   21 1   
    51   20   23 1   
    52   20   63 1   
    53   21   22 2   
    54   21   64 1   
    55   23   24 1   
    56   23   26 1   
    57   23   65 1   
    58   24   25 1   
    59   24   66 1   
    60   24   67 1   
    61   25   68 1   
    62   25   69 1   
    63   25   70 1   
    64   26   71 1   
    65   26   72 1   
    66   26   73 1   
    67   27   74 1   
    68   28   29 1   
    69   28   38 2   
    70   29   30 1   
    71   30   31 1   
    72   30   75 1   
    73   30   76 1   
    74   31   32 ar  
    75   31   36 ar  
    76   32   33 ar  
    77   32   77 1   
    78   33   34 ar  
    79   33   78 1   
    80   34   35 ar  
    81   34   79 1   
    82   35   36 ar  
    83   35   80 1   
    84   36   81 1   
    85   40   82 1   
    86   40   83 1   
    87   40   84 1   
    88   42   43 ar  
    89   42   85 1   
    90   43   86 1   
@<TRIPOS>SUBSTRUCTURE
     1 ESY         1 TEMP              0 ****  ****    0 ROOT
