@<TRIPOS>MOLECULE
ESY
   89    90     1     0     0
SMALL
bcc


@<TRIPOS>ATOM
      1 C1          3.3610   -2.3440    1.2760 ca        1 ESY     -0.042000
      2 C2          4.4570   -1.5320    1.5840 ca        1 ESY     -0.130000
      3 C3          4.4390   -0.7400    2.7280 ca        1 ESY     -0.069000
      4 C4          3.3220   -0.7630    3.5810 ca        1 ESY     -0.191300
      5 C5          3.3290    0.0130    4.8220 c3        1 ESY      0.255700
      6 O6          2.7030    1.3480    4.4030 os        1 ESY     -0.386900
      7 C7          2.6270    2.3020    5.2950 c         1 ESY      0.654100
      8 N8          1.9680    3.5490    4.7240 n4        1 ESY     -0.670800
      9 C9          2.3240    4.7800    5.5090 c3        1 ESY      0.088500
     10 C10         1.7680    4.6630    6.9400 c         1 ESY      0.530100
     11 N11         2.7390    4.6440    8.0840 n4        1 ESY     -0.656800
     12 C12         2.9420    5.9980    8.7330 c3        1 ESY      0.069500
     13 C13         3.4820    5.8780   10.1620 c3        1 ESY     -0.115400
     14 C14         2.4140    5.5080   11.1730 c3        1 ESY     -0.086400
     15 C15         2.9460    5.6980   12.5840 c3        1 ESY     -0.104400
     16 C16         1.8490    5.3780   13.5970 c3        1 ESY      0.106800
     17 N17         2.2910    5.5470   15.0060 n4        1 ESY     -0.667800
     18 C18         1.2520    5.1260   16.0260 c         1 ESY      0.561100
     19 C19         1.5560    5.4360   17.4930 c3        1 ESY      0.109100
     20 C20         1.7350    4.1270   18.2750 c3        1 ESY     -0.230700
     21 C21         2.8380    3.2690   17.7020 c         1 ESY      0.610900
     22 O22         3.1770    3.3610   16.5150 o         1 ESY     -0.611100
     23 C23         1.9700    4.3800   19.7710 c3        1 ESY     -0.065700
     24 C24         1.7180    3.0950   20.5610 c3        1 ESY     -0.081400
     25 C25         2.4890    3.0750   21.8570 c3        1 ESY     -0.103100
     26 C26         1.0810    5.4840   20.3070 c3        1 ESY     -0.113100
     27 O27         2.6950    6.2760   17.5280 oh        1 ESY     -0.633800
     28 C29         3.8920    6.8430    7.8720 c         1 ESY      0.627100
     29 O30         4.2320    7.9990    8.4350 os        1 ESY     -0.392900
     30 C31         5.1230    8.8910    7.6600 c3        1 ESY      0.212700
     31 C32         5.4980    9.9840    8.5860 ca        1 ESY     -0.160300
     32 C33         6.7210    9.9350    9.2690 ca        1 ESY     -0.094000
     33 C34         7.1090   11.0000   10.0780 ca        1 ESY     -0.126500
     34 C35         6.2780   12.1140   10.2160 ca        1 ESY     -0.078000
     35 C36         5.0550   12.1620    9.5440 ca        1 ESY     -0.126500
     36 C37         4.6630   11.1000    8.7310 ca        1 ESY     -0.094000
     37 O28         0.2480    4.5780   15.6050 o         1 ESY     -0.414100
     38 O38         4.2810    6.4970    6.7480 o         1 ESY     -0.584000
     39 O39         0.5810    4.5730    7.2120 o         1 ESY     -0.375100
     40 C40         1.7410    6.0420    4.8760 c3        1 ESY     -0.142100
     41 O41         3.0000    2.3250    6.4700 o         1 ESY     -0.547000
     42 C42         2.2170   -1.5730    3.2610 ca        1 ESY     -0.069000
     43 C43         2.2430   -2.3610    2.1150 ca        1 ESY     -0.130000
     44 H1          3.3800   -2.9750    0.3700 ha        1 ESY      0.173000
     45 H2          5.3390   -1.5260    0.9230 ha        1 ESY      0.169000
     46 H3          5.3080   -0.1100    2.9720 ha        1 ESY      0.138500
     47 H5          2.6530   -0.3770    5.6230 h1        1 ESY      0.088700
     48 H5A         4.3450    0.2740    5.2080 h1        1 ESY      0.088700
     49 HN8         0.9470    3.4080    4.7110 hn        1 ESY      0.494800
     50 H9          3.4610    4.8610    5.5150 hx        1 ESY      0.174700
     51 HN11        2.3830    3.9940    8.8030 hn        1 ESY      0.486300
     52 H12         1.9340    6.5180    8.7540 hx        1 ESY      0.145700
     53 H13         3.9020    6.8950   10.4250 hc        1 ESY      0.112700
     54 H13A        4.3380    5.1530   10.2110 hc        1 ESY      0.112700
     55 H14         2.0940    4.4410   11.0360 hc        1 ESY      0.059200
     56 H14A        1.5070    6.1550   11.0280 hc        1 ESY      0.059200
     57 H15         3.2950    6.7580   12.7120 hc        1 ESY      0.079200
     58 H15A        3.8320    5.0260   12.7450 hc        1 ESY      0.079200
     59 H16         1.5070    4.3090   13.4740 hx        1 ESY      0.112700
     60 H16A        0.9570    6.0500   13.4330 hx        1 ESY      0.112700
     61 HN17        3.1310    4.9670   15.1920 hn        1 ESY      0.483300
     62 H19         0.6490    5.9950   17.8820 h1        1 ESY      0.128700
     63 H20         0.7730    3.5390   18.1700 hc        1 ESY      0.125700
     64 H21         3.3130    2.5380   18.3930 h4        1 ESY      0.070200
     65 H23         3.0470    4.6830   19.9090 hc        1 ESY      0.061700
     66 H24         0.6190    3.0030   20.7730 hc        1 ESY      0.050700
     67 H24A        2.0070    2.1990   19.9520 hc        1 ESY      0.050700
     68 H25         2.2650    2.1320   22.4150 hc        1 ESY      0.053367
     69 H25A        3.5890    3.1190   21.6690 hc        1 ESY      0.053367
     70 H25B        2.2070    3.9380   22.5070 hc        1 ESY      0.053367
     71 H26         1.3850    6.4850   19.9160 hc        1 ESY      0.054700
     72 H26A        0.0110    5.3000   20.0460 hc        1 ESY      0.054700
     73 H26B        1.1620    5.5190   21.4240 hc        1 ESY      0.054700
     74 HO27        2.9130    6.4400   18.4600 ho        1 ESY      0.477000
     75 H31         6.0000    8.2810    7.3200 h1        1 ESY      0.080700
     76 H31A        4.5250    9.2470    6.7820 h1        1 ESY      0.080700
     77 H33         7.3870    9.0670    9.1480 ha        1 ESY      0.134000
     78 H34         8.0790   10.9700   10.5980 ha        1 ESY      0.158500
     79 H35         6.5930   12.9620   10.8460 ha        1 ESY      0.162000
     80 H36         4.4050   13.0460    9.6440 ha        1 ESY      0.158500
     81 H37         3.7070   11.1470    8.1890 ha        1 ESY      0.134000
     82 H40         2.0420    6.1240    3.7990 hc        1 ESY      0.109367
     83 H40A        2.1710    6.9300    5.4080 hc        1 ESY      0.109367
     84 H40B        0.6260    6.0690    4.9500 hc        1 ESY      0.109367
     85 H42         1.3390   -1.5960    3.9240 ha        1 ESY      0.138500
     86 H43         1.3830   -3.0070    1.8710 ha        1 ESY      0.169000
     87 H82         2.2800    3.6750    3.7460 hn        1 ESY      0.494800
     88 H112        3.6470    4.2870    7.7420 hn        1 ESY      0.486300
     89 H172        2.5430    6.5260   15.1970 hn        1 ESY      0.483300
@<TRIPOS>BOND
     1    1    2 ar  
     2    1   43 ar  
     3    1   44 1   
     4    2    3 ar  
     5    2   45 1   
     6    3    4 ar  
     7    3   46 1   
     8    4    5 1   
     9    4   42 ar  
    10    5    6 1   
    11    5   47 1   
    12    5   48 1   
    13    6    7 1   
    14    7    8 1   
    15    7   41 2   
    16    8    9 1   
    17    8   49 1   
    18    8   87 1   
    19    9   10 1   
    20    9   40 1   
    21    9   50 1   
    22   10   11 1   
    23   10   39 2   
    24   11   12 1   
    25   11   51 1   
    26   11   88 1   
    27   12   13 1   
    28   12   28 1   
    29   12   52 1   
    30   13   14 1   
    31   13   53 1   
    32   13   54 1   
    33   14   15 1   
    34   14   55 1   
    35   14   56 1   
    36   15   16 1   
    37   15   57 1   
    38   15   58 1   
    39   16   17 1   
    40   16   59 1   
    41   16   60 1   
    42   17   18 1   
    43   17   61 1   
    44   17   89 1   
    45   18   19 1   
    46   18   37 2   
    47   19   20 1   
    48   19   27 1   
    49   19   62 1   
    50   20   21 1   
    51   20   23 1   
    52   20   63 1   
    53   21   22 2   
    54   21   64 1   
    55   23   24 1   
    56   23   26 1   
    57   23   65 1   
    58   24   25 1   
    59   24   66 1   
    60   24   67 1   
    61   25   68 1   
    62   25   69 1   
    63   25   70 1   
    64   26   71 1   
    65   26   72 1   
    66   26   73 1   
    67   27   74 1   
    68   28   29 1   
    69   28   38 2   
    70   29   30 1   
    71   30   31 1   
    72   30   75 1   
    73   30   76 1   
    74   31   32 ar  
    75   31   36 ar  
    76   32   33 ar  
    77   32   77 1   
    78   33   34 ar  
    79   33   78 1   
    80   34   35 ar  
    81   34   79 1   
    82   35   36 ar  
    83   35   80 1   
    84   36   81 1   
    85   40   82 1   
    86   40   83 1   
    87   40   84 1   
    88   42   43 ar  
    89   42   85 1   
    90   43   86 1   
@<TRIPOS>SUBSTRUCTURE
     1 ESY         1 TEMP              0 ****  ****    0 ROOT
