@<TRIPOS>MOLECULE
ESY
   89    90     1     0     0
SMALL
bcc


@<TRIPOS>ATOM
      1 C1          3.4820   -2.2000    1.1730 ca        1 ESY     -0.042000
      2 C2          4.5740   -1.3940    1.5060 ca        1 ESY     -0.130000
      3 C3          4.5430   -0.6190    2.6600 ca        1 ESY     -0.069000
      4 C4          3.4160   -0.6530    3.5000 ca        1 ESY     -0.191300
      5 C5          3.4090    0.1040    4.7530 c3        1 ESY      0.255700
      6 O6          2.7890    1.4460    4.3450 os        1 ESY     -0.386900
      7 C7          2.7020    2.3860    5.2510 c         1 ESY      0.654100
      8 N8          2.0510    3.6420    4.6900 n4        1 ESY     -0.670800
      9 C9          2.3950    4.8610    5.5000 c3        1 ESY      0.088500
     10 C10         1.8200    4.7210    6.9200 c         1 ESY      0.530100
     11 N11         2.7750    4.6840    8.0770 n4        1 ESY     -0.656800
     12 C12         2.9690    6.0280    8.7500 c3        1 ESY      0.069500
     13 C13         3.4890    5.8860   10.1840 c3        1 ESY     -0.115400
     14 C14         2.4070    5.4990   11.1740 c3        1 ESY     -0.086400
     15 C15         2.9180    5.6690   12.5960 c3        1 ESY     -0.104400
     16 C16         1.8090    5.3300   13.5870 c3        1 ESY      0.106800
     17 N17         2.2300    5.4810   15.0050 n4        1 ESY     -0.667800
     18 C18         1.1790    5.0380   16.0050 c         1 ESY      0.561100
     19 C19         1.4590    5.3310   17.4790 c3        1 ESY      0.109100
     20 C20         1.6370    4.0130   18.2470 c3        1 ESY     -0.230700
     21 C21         2.7550    3.1710   17.6790 c         1 ESY      0.610900
     22 O22         3.1110    3.2820   16.4990 o         1 ESY     -0.611100
     23 C23         1.8480    4.2480   19.7500 c3        1 ESY     -0.065700
     24 C24         1.5950    2.9510   20.5190 c3        1 ESY     -0.081400
     25 C25         2.3460    2.9200   21.8250 c3        1 ESY     -0.103100
     26 C26         0.9430    5.3380   20.2870 c3        1 ESY     -0.113100
     27 O27         2.5900    6.1800   17.5430 oh        1 ESY     -0.633800
     28 C29         3.9300    6.8860    7.9160 c         1 ESY      0.627100
     29 O30         4.2630    8.0330    8.5020 os        1 ESY     -0.392900
     30 C31         5.1650    8.9380    7.7530 c3        1 ESY      0.212700
     31 C32         5.5290   10.0140    8.7030 ca        1 ESY     -0.160300
     32 C33         6.7430    9.9510    9.3990 ca        1 ESY     -0.094000
     33 C34         7.1230   11.0010   10.2320 ca        1 ESY     -0.126500
     34 C35         6.2920   12.1140   10.3790 ca        1 ESY     -0.078000
     35 C36         5.0770   12.1750    9.6930 ca        1 ESY     -0.126500
     36 C37         4.6940   11.1280    8.8570 ca        1 ESY     -0.094000
     37 O28         0.1850    4.4880   15.5610 o         1 ESY     -0.414100
     38 O38         4.3350    6.5580    6.7920 o         1 ESY     -0.584000
     39 O39         0.6290    4.6270    7.1750 o         1 ESY     -0.375100
     40 C40         1.8220    6.1320    4.8780 c3        1 ESY     -0.142100
     41 O41         3.0580    2.3910    6.4310 o         1 ESY     -0.547000
     42 C42         2.3150   -1.4580    3.1550 ca        1 ESY     -0.069000
     43 C43         2.3540   -2.2300    1.9980 ca        1 ESY     -0.130000
     44 H1          3.5110   -2.8180    0.2580 ha        1 ESY      0.173000
     45 H2          5.4650   -1.3790    0.8550 ha        1 ESY      0.169000
     46 H3          5.4100    0.0070    2.9250 ha        1 ESY      0.138500
     47 H5          2.7230   -0.2970    5.5400 h1        1 ESY      0.088700
     48 H5A         4.4200    0.3590    5.1540 h1        1 ESY      0.088700
     49 HN8         2.3760    3.7840    3.7180 hn        1 ESY      0.494800
     50 H9          3.5320    4.9410    5.5220 hx        1 ESY      0.174700
     51 HN11        2.4090    4.0230    8.7810 hn        1 ESY      0.486300
     52 H12         1.9600    6.5480    8.7650 hx        1 ESY      0.145700
     53 H13         4.3450    5.1610   10.2340 hc        1 ESY      0.112700
     54 H13A        3.9040    6.8990   10.4690 hc        1 ESY      0.112700
     55 H14         1.5010    6.1460   11.0260 hc        1 ESY      0.059200
     56 H14A        2.0920    4.4330   11.0170 hc        1 ESY      0.059200
     57 H15         3.8050    4.9990   12.7590 hc        1 ESY      0.079200
     58 H15A        3.2610    6.7290   12.7440 hc        1 ESY      0.079200
     59 H16         1.4740    4.2610   13.4440 hx        1 ESY      0.112700
     60 H16A        0.9160    6.0000   13.4210 hx        1 ESY      0.112700
     61 HN17        2.4730    6.4580   15.2140 hn        1 ESY      0.483300
     62 H19         0.5430    5.8780   17.8630 h1        1 ESY      0.128700
     63 H20         0.6810    3.4190   18.1200 hc        1 ESY      0.125700
     64 H21         3.2250    2.4350   18.3670 h4        1 ESY      0.070200
     65 H23         2.9200    4.5570   19.9080 hc        1 ESY      0.061700
     66 H24         0.4930    2.8480   20.7140 hc        1 ESY      0.050700
     67 H24A        1.8990    2.0650   19.9020 hc        1 ESY      0.050700
     68 H25         3.4490    2.9750   21.6540 hc        1 ESY      0.053367
     69 H25A        2.0480    3.7720   22.4820 hc        1 ESY      0.053367
     70 H25B        2.1220    1.9680   22.3680 hc        1 ESY      0.053367
     71 H26         1.0060    5.3590   21.4050 hc        1 ESY      0.054700
     72 H26A       -0.1220    5.1490   20.0080 hc        1 ESY      0.054700
     73 H26B        1.2440    6.3460   19.9130 hc        1 ESY      0.054700
     74 HO27        2.7930    6.3330   18.4800 ho        1 ESY      0.477000
     75 H31         6.0450    8.3320    7.4140 h1        1 ESY      0.080700
     76 H31A        4.5770    9.3100    6.8740 h1        1 ESY      0.080700
     77 H33         7.4100    9.0840    9.2720 ha        1 ESY      0.134000
     78 H34         8.0870   10.9610   10.7640 ha        1 ESY      0.158500
     79 H35         6.6010   12.9500   11.0270 ha        1 ESY      0.162000
     80 H36         4.4280   13.0590    9.8000 ha        1 ESY      0.158500
     81 H37         3.7440   11.1860    8.3040 ha        1 ESY      0.134000
     82 H40         2.1370    6.2310    3.8070 hc        1 ESY      0.109367
     83 H40A        0.7050    6.1590    4.9370 hc        1 ESY      0.109367
     84 H40B        2.2450    7.0120    5.4300 hc        1 ESY      0.109367
     85 H42         1.4290   -1.4900    3.8070 ha        1 ESY      0.138500
     86 H43         1.4960   -2.8710    1.7350 ha        1 ESY      0.169000
     87 H82         1.0300    3.5020    4.6610 hn        1 ESY      0.494800
     88 H112        3.6880    4.3330    7.7420 hn        1 ESY      0.486300
     89 H172        3.0700    4.9040   15.1940 hn        1 ESY      0.483300
@<TRIPOS>BOND
     1    1    2 ar  
     2    1   43 ar  
     3    1   44 1   
     4    2    3 ar  
     5    2   45 1   
     6    3    4 ar  
     7    3   46 1   
     8    4    5 1   
     9    4   42 ar  
    10    5    6 1   
    11    5   47 1   
    12    5   48 1   
    13    6    7 1   
    14    7    8 1   
    15    7   41 2   
    16    8    9 1   
    17    8   49 1   
    18    8   87 1   
    19    9   10 1   
    20    9   40 1   
    21    9   50 1   
    22   10   11 1   
    23   10   39 2   
    24   11   12 1   
    25   11   51 1   
    26   11   88 1   
    27   12   13 1   
    28   12   28 1   
    29   12   52 1   
    30   13   14 1   
    31   13   53 1   
    32   13   54 1   
    33   14   15 1   
    34   14   55 1   
    35   14   56 1   
    36   15   16 1   
    37   15   57 1   
    38   15   58 1   
    39   16   17 1   
    40   16   59 1   
    41   16   60 1   
    42   17   18 1   
    43   17   61 1   
    44   17   89 1   
    45   18   19 1   
    46   18   37 2   
    47   19   20 1   
    48   19   27 1   
    49   19   62 1   
    50   20   21 1   
    51   20   23 1   
    52   20   63 1   
    53   21   22 2   
    54   21   64 1   
    55   23   24 1   
    56   23   26 1   
    57   23   65 1   
    58   24   25 1   
    59   24   66 1   
    60   24   67 1   
    61   25   68 1   
    62   25   69 1   
    63   25   70 1   
    64   26   71 1   
    65   26   72 1   
    66   26   73 1   
    67   27   74 1   
    68   28   29 1   
    69   28   38 2   
    70   29   30 1   
    71   30   31 1   
    72   30   75 1   
    73   30   76 1   
    74   31   32 ar  
    75   31   36 ar  
    76   32   33 ar  
    77   32   77 1   
    78   33   34 ar  
    79   33   78 1   
    80   34   35 ar  
    81   34   79 1   
    82   35   36 ar  
    83   35   80 1   
    84   36   81 1   
    85   40   82 1   
    86   40   83 1   
    87   40   84 1   
    88   42   43 ar  
    89   42   85 1   
    90   43   86 1   
@<TRIPOS>SUBSTRUCTURE
     1 ESY         1 TEMP              0 ****  ****    0 ROOT
