@<TRIPOS>MOLECULE
ESY
   86    82     1     0     0
SMALL
bcc


@<TRIPOS>ATOM
      1 C1         -0.8520   -4.3840  -11.3210 c1        1 ESY     -0.123833
      2 C2          0.3730   -4.5890  -10.7080 c1        1 ESY     -0.123833
      3 C3          0.4870   -4.4760   -9.3300 c1        1 ESY     -0.123833
      4 C4         -0.6260   -4.1570   -8.5660 c1        1 ESY     -0.090000
      5 C5         -0.5230   -4.1310   -7.0550 c3        1 ESY      0.039000
      6 O6         -0.1370   -2.8230   -6.6260 os        1 ESY     -0.272000
      7 C7          0.1280   -2.7270   -5.2280 c2        1 ESY      0.382000
      8 N8          0.5730   -1.4730   -4.6610 n         1 ESY     -0.310000
      9 C9          1.0200   -1.4200   -3.3020 c3        1 ESY      0.005000
     10 C10         0.8620   -0.0050   -2.7710 c2        1 ESY      0.273000
     11 N11         1.2340    0.2990   -1.4180 n         1 ESY     -0.360000
     12 C12         1.0690    1.6250   -0.9120 c3        1 ESY      0.034000
     13 C13         1.3140    1.6290    0.5840 c3        1 ESY     -0.163000
     14 C14         0.0110    1.2690    1.3210 c3        1 ESY     -0.156000
     15 C15         0.2340    1.3750    2.8450 c3        1 ESY     -0.186000
     16 C16        -1.0780    1.0420    3.5820 c3        1 ESY     -0.034000
     17 N17        -0.8210    0.9440    5.0060 n         1 ESY     -0.363000
     18 C18        -1.5660    0.0040    5.8090 c2        1 ESY      0.259000
     19 C19        -1.0440   -0.4080    7.1800 c3        1 ESY      0.025000
     20 C20        -2.1350   -1.1460    7.9370 c3        1 ESY     -0.204000
     21 C21        -2.5660   -2.3490    7.1490 c2        1 ESY      0.199000
     22 O22        -1.7330   -3.0570    6.6180 o         1 ESY     -0.308000
     23 C23        -1.6020   -1.5910    9.2910 c3        1 ESY     -0.091000
     24 C24        -2.3130   -2.8580    9.7230 c3        1 ESY     -0.160000
     25 C25        -1.4230   -3.6410   10.6590 c3        1 ESY     -0.212000
     26 C26        -1.8440   -0.5070   10.3080 c3        1 ESY     -0.215000
     27 O27         0.0630   -1.2470    7.0250 oh        1 ESY     -0.319000
     28 C29         2.0570    2.5500   -1.5880 c2        1 ESY      0.276000
     29 O30         1.6120    3.7750   -2.1520 os        1 ESY     -0.267000
     30 C31         2.6140    4.4650   -2.8980 c3        1 ESY      0.027000
     31 C32         2.0550    5.8020   -3.3860 c2        1 ESY     -0.091000
     32 C33         2.5070    6.9880   -2.8270 c2        1 ESY     -0.121000
     33 C34         1.9990    8.2010   -3.2690 c1        1 ESY     -0.131000
     34 C35         1.0410    8.2270   -4.2690 c1        1 ESY     -0.123833
     35 C36         0.5900    7.0430   -4.8270 c1        1 ESY     -0.123833
     36 C37         1.0980    5.8290   -4.3850 c1        1 ESY     -0.102000
     37 O28        -2.6210   -0.4370    5.4040 o         1 ESY     -0.364000
     38 O38         3.2330    2.2530   -1.6320 o         1 ESY     -0.358000
     39 O39         0.3700    0.8520   -3.4700 o         1 ESY     -0.362000
     40 C40         2.4640   -1.8230   -3.2330 c3        1 ESY     -0.221000
     41 O41        -0.0580   -3.6850   -4.5080 o         1 ESY     -0.398000
     42 C42        -1.8520   -3.9520   -9.1800 c1        1 ESY     -0.120000
     43 C43        -1.9650   -4.0660  -10.5580 c1        1 ESY     -0.123833
     44 H1         -0.9320   -4.4640  -12.2900 ha        1 ESY      0.135000
     45 H2          1.1570   -4.8140  -11.2460 ha        1 ESY      0.135000
     46 H3          1.3510   -4.6210   -8.8970 ha        1 ESY      0.135000
     47 H5          0.1480   -4.7820   -6.7610 h1        1 ESY      0.104000
     48 H5A        -1.3910   -4.3590   -6.6650 h1        1 ESY      0.104000
     49 HN8         0.5550   -0.7120   -5.1650 hn        1 ESY      0.245000
     50 H9          0.4850   -2.0330   -2.7590 h1        1 ESY      0.143000
     51 HN11        1.5580   -0.3610   -0.8740 hn        1 ESY      0.237000
     52 H12         0.1600    1.9310   -1.0940 h1        1 ESY      0.164000
     53 H13         2.0050    0.9710    0.8030 hc        1 ESY      0.100500
     54 H13A        1.6110    2.5180    0.8630 hc        1 ESY      0.100500
     55 H14        -0.2510    0.3570    1.0930 hc        1 ESY      0.093000
     56 H14A       -0.6980    1.8880    1.0520 hc        1 ESY      0.093000
     57 H15         0.5130    2.2830    3.0710 hc        1 ESY      0.088000
     58 H15A        0.9290    0.7450    3.1160 hc        1 ESY      0.088000
     59 H16        -1.7340    1.7500    3.4160 h1        1 ESY      0.104500
     60 H16A       -1.4280    0.1900    3.2550 h1        1 ESY      0.104500
     61 HN17       -0.2330    1.5190    5.4030 hn        1 ESY      0.228000
     62 H19        -0.7820    0.3890    7.6820 h1        1 ESY      0.152000
     63 H20        -2.9000   -0.5520    8.0670 hc        1 ESY      0.131000
     64 H21        -3.5150   -2.5570    7.0550 h4        1 ESY      0.106000
     65 H23        -0.6450   -1.7630    9.2230 hc        1 ESY      0.104000
     66 H24        -2.5160   -3.4000    8.9380 hc        1 ESY      0.079000
     67 H24A       -3.1450   -2.6250   10.1820 hc        1 ESY      0.079000
     68 H25        -0.4880   -3.3830   10.5130 hc        1 ESY      0.077000
     69 H25A       -1.6740   -3.4470   11.5880 hc        1 ESY      0.077000
     70 H25B       -1.5280   -4.5960   10.4860 hc        1 ESY      0.077000
     71 H26        -1.0530    0.0620   10.3710 hc        1 ESY      0.083333
     72 H26A       -2.6130    0.0320   10.0320 hc        1 ESY      0.083333
     73 H26B       -2.0260   -0.9130   11.1820 hc        1 ESY      0.083333
     74 HO27        0.8060   -0.7840    7.1660 ho        1 ESY      0.222000
     75 H31         3.3950    4.6270   -2.3260 h1        1 ESY      0.102000
     76 H31A        2.8800    3.9210   -3.6700 h1        1 ESY      0.102000
     77 H33         3.1800    6.9700   -2.1250 ha        1 ESY      0.132000
     78 H34         2.3160    9.0340   -2.8760 ha        1 ESY      0.133000
     79 H35         0.6840    9.0790   -4.5790 ha        1 ESY      0.135000
     80 H36        -0.0840    7.0620   -5.5300 ha        1 ESY      0.135000
     81 H37         0.7810    4.9980   -4.7770 ha        1 ESY      0.146000
     82 H40         3.0290   -1.0440   -3.4190 hc        1 ESY      0.097333
     83 H40A        2.6660   -2.1670   -2.3350 hc        1 ESY      0.097333
     84 H40B        2.6410   -2.5210   -3.8990 hc        1 ESY      0.097333
     85 H42        -2.6360   -3.7280   -8.6430 ha        1 ESY      0.133000
     86 H43        -2.8290   -3.9210  -10.9910 ha        1 ESY      0.135000
@<TRIPOS>BOND
     1    1   43 1   
     2    1   44 1   
     3    2    3 1   
     4    2   45 1   
     5    3   46 1   
     6    4    5 1   
     7    4   42 1   
     8    5    6 1   
     9    5   47 1   
    10    5   48 1   
    11    6    7 1   
    12    7    8 1   
    13    7   41 1   
    14    8    9 1   
    15    8   49 1   
    16    9   10 1   
    17    9   40 1   
    18    9   50 1   
    19   10   11 1   
    20   10   39 1   
    21   11   12 1   
    22   11   51 1   
    23   12   13 1   
    24   12   28 1   
    25   12   52 1   
    26   13   14 1   
    27   13   53 1   
    28   13   54 1   
    29   14   15 1   
    30   14   55 1   
    31   14   56 1   
    32   15   16 1   
    33   15   57 1   
    34   15   58 1   
    35   16   17 1   
    36   16   59 1   
    37   16   60 1   
    38   17   18 1   
    39   17   61 1   
    40   18   19 1   
    41   18   37 1   
    42   19   20 1   
    43   19   27 1   
    44   19   62 1   
    45   20   21 1   
    46   20   23 1   
    47   20   63 1   
    48   21   22 1   
    49   21   64 1   
    50   23   24 1   
    51   23   26 1   
    52   23   65 1   
    53   24   25 1   
    54   24   66 1   
    55   24   67 1   
    56   25   68 1   
    57   25   69 1   
    58   25   70 1   
    59   26   71 1   
    60   26   72 1   
    61   26   73 1   
    62   27   74 1   
    63   28   29 1   
    64   28   38 1   
    65   29   30 1   
    66   30   31 1   
    67   30   75 1   
    68   30   76 1   
    69   31   32 1   
    70   31   36 1   
    71   32   33 1   
    72   32   77 1   
    73   33   78 1   
    74   34   35 1   
    75   34   79 1   
    76   35   80 1   
    77   36   81 1   
    78   40   82 1   
    79   40   83 1   
    80   40   84 1   
    81   42   85 1   
    82   43   86 1   
@<TRIPOS>SUBSTRUCTURE
     1 ESY         1 TEMP              0 ****  ****    0 ROOT
