@<TRIPOS>MOLECULE
ESY
   86    87     1     0     0
SMALL
bcc


@<TRIPOS>ATOM
      1 C1         -8.1520    4.8820   -2.2660 ca        1 ESY     -0.123000
      2 C2         -8.4860    3.6750   -1.6520 ca        1 ESY     -0.131500
      3 C3         -7.6600    3.1420   -0.6630 ca        1 ESY     -0.111000
      4 C4         -6.4930    3.8130   -0.2880 ca        1 ESY     -0.097300
      5 C5         -5.6100    3.2880    0.7930 c3        1 ESY      0.196700
      6 O6         -5.6350    1.8470    0.7120 os        1 ESY     -0.432900
      7 C7         -4.8630    1.2050    1.6550 c         1 ESY      0.728100
      8 N8         -5.0340   -0.1740    1.6420 n         1 ESY     -0.499900
      9 C9         -4.0470   -0.9960    2.3070 c3        1 ESY      0.031700
     10 C10        -2.9810   -1.5380    1.3190 c         1 ESY      0.628100
     11 N11        -1.7160   -1.7490    1.8290 n         1 ESY     -0.552900
     12 C12        -0.6740   -2.3840    1.0640 c3        1 ESY      0.060700
     13 C13         0.6710   -1.6390    1.1210 c3        1 ESY     -0.085400
     14 C14         0.6030   -0.3120    0.4000 c3        1 ESY     -0.076400
     15 C15         1.9500    0.3790    0.4260 c3        1 ESY     -0.108400
     16 C16         1.8670    1.7030   -0.3360 c3        1 ESY      0.082000
     17 N17         3.0750    2.4840   -0.3120 n         1 ESY     -0.544900
     18 C18         3.9300    2.5520   -1.3870 c         1 ESY      0.616100
     19 C19         5.2520    3.3170   -1.2090 c3        1 ESY      0.082100
     20 C20         6.2280    2.5140   -0.3380 c3        1 ESY     -0.209700
     21 C21         6.4030    1.1240   -0.9020 c         1 ESY      0.568900
     22 O22         6.1970    0.1080   -0.2390 o         1 ESY     -0.519100
     23 C23         7.5940    3.2030   -0.2490 c3        1 ESY     -0.050700
     24 C24         8.5160    2.4290    0.6850 c3        1 ESY     -0.086400
     25 C25         9.9710    2.7180    0.4170 c3        1 ESY     -0.092100
     26 C26         7.4480    4.6370    0.2190 c3        1 ESY     -0.094100
     27 O27         5.8050    3.6310   -2.4690 oh        1 ESY     -0.584800
     28 C29        -0.4150   -3.8080    1.5610 c         1 ESY      0.606100
     29 O30         0.1060   -4.6060    0.5880 os        1 ESY     -0.427900
     30 C31         0.4050   -5.9660    0.9690 c3        1 ESY      0.184700
     31 C32         1.0400   -6.6360   -0.2010 ca        1 ESY     -0.098300
     32 C33         2.0240   -7.6060    0.0250 ca        1 ESY     -0.111000
     33 C34         2.6020   -8.2770   -1.0510 ca        1 ESY     -0.131000
     34 C35         2.2090   -7.9780   -2.3560 ca        1 ESY     -0.123000
     35 C36         1.2340   -7.0070   -2.5830 ca        1 ESY     -0.131000
     36 C37         0.6480   -6.3380   -1.5090 ca        1 ESY     -0.111000
     37 O28         3.6550    2.0670   -2.5040 o         1 ESY     -0.608100
     38 O38        -0.6100   -4.2760    2.6840 o         1 ESY     -0.547000
     39 O39        -3.2560   -1.7550    0.1230 o         1 ESY     -0.601100
     40 C40        -4.6780   -2.2140    2.9850 c3        1 ESY     -0.103100
     41 O41        -4.1740    1.8830    2.4370 o         1 ESY     -0.588000
     42 C42        -6.1550    5.0200   -0.9120 ca        1 ESY     -0.111000
     43 C43        -6.9870    5.5530   -1.8940 ca        1 ESY     -0.131500
     44 H1         -8.8050    5.3030   -3.0450 ha        1 ESY      0.132000
     45 H2         -9.4020    3.1420   -1.9460 ha        1 ESY      0.133000
     46 H3         -7.9160    2.1870   -0.1790 ha        1 ESY      0.138500
     47 H5         -4.5490    3.6340    0.6740 h1        1 ESY      0.064200
     48 H5A        -5.9870    3.5940    1.8060 h1        1 ESY      0.064200
     49 HN8        -5.4330   -0.5630    0.8120 hn        1 ESY      0.331500
     50 H9         -3.5460   -0.3550    3.0970 h1        1 ESY      0.103700
     51 HN11       -1.5710   -1.6860    2.8110 hn        1 ESY      0.323500
     52 H12        -1.0090   -2.4490   -0.0180 h1        1 ESY      0.124700
     53 H13         0.9830   -1.4820    2.1870 hc        1 ESY      0.062700
     54 H13A        1.4400   -2.2960    0.6330 hc        1 ESY      0.062700
     55 H14         0.2840   -0.4770   -0.6640 hc        1 ESY      0.053700
     56 H14A       -0.1670    0.3490    0.8790 hc        1 ESY      0.053700
     57 H15         2.2590    0.5610    1.4880 hc        1 ESY      0.051200
     58 H15A        2.7270   -0.2820   -0.0400 hc        1 ESY      0.051200
     59 H16         1.5950    1.4930   -1.4110 h1        1 ESY      0.068200
     60 H16A        1.0470    2.3330    0.1170 h1        1 ESY      0.068200
     61 HN17        3.4190    2.7510    0.5810 hn        1 ESY      0.308500
     62 H19         5.0560    4.3190   -0.7270 h1        1 ESY      0.096700
     63 H20         5.7950    2.4440    0.6990 hc        1 ESY      0.073700
     64 H21         6.7340    1.0850   -1.9630 h4        1 ESY      0.010200
     65 H23         8.0390    3.2120   -1.2850 hc        1 ESY      0.067700
     66 H24         8.2680    2.6900    1.7480 hc        1 ESY      0.045700
     67 H24A        8.3380    1.3260    0.5690 hc        1 ESY      0.045700
     68 H25        10.6130    2.1290    1.1160 hc        1 ESY      0.035700
     69 H25A       10.2430    2.4390   -0.6300 hc        1 ESY      0.035700
     70 H25B       10.1990    3.8020    0.5600 hc        1 ESY      0.035700
     71 H26         8.4520    5.0670    0.4560 hc        1 ESY      0.040367
     72 H26A        6.9820    5.2620   -0.5820 hc        1 ESY      0.040367
     73 H26B        6.8160    4.6940    1.1370 hc        1 ESY      0.040367
     74 HO27        5.5980    2.9090   -3.0840 ho        1 ESY      0.429000
     75 H31         1.0840   -5.9480    1.8620 h1        1 ESY      0.062200
     76 H31A       -0.5600   -6.4700    1.2480 h1        1 ESY      0.062200
     77 H33         2.3410   -7.8390    1.0530 ha        1 ESY      0.139000
     78 H34         3.3730   -9.0400   -0.8700 ha        1 ESY      0.134000
     79 H35         2.6690   -8.5060   -3.2030 ha        1 ESY      0.133000
     80 H36         0.9260   -6.7660   -3.6110 ha        1 ESY      0.134000
     81 H37        -0.1180   -5.5670   -1.6840 ha        1 ESY      0.139000
     82 H40        -5.1620   -2.8850    2.2360 hc        1 ESY      0.058033
     83 H40A       -3.8800   -2.7840    3.5190 hc        1 ESY      0.058033
     84 H40B       -5.4470   -1.8890    3.7260 hc        1 ESY      0.058033
     85 H42        -5.2330    5.5480   -0.6250 ha        1 ESY      0.138500
     86 H43        -6.7210    6.5030   -2.3800 ha        1 ESY      0.133000
@<TRIPOS>BOND
     1    1    2 ar  
     2    1   43 ar  
     3    1   44 1   
     4    2    3 ar  
     5    2   45 1   
     6    3    4 ar  
     7    3   46 1   
     8    4    5 1   
     9    4   42 ar  
    10    5    6 1   
    11    5   47 1   
    12    5   48 1   
    13    6    7 1   
    14    7    8 1   
    15    7   41 2   
    16    8    9 1   
    17    8   49 1   
    18    9   10 1   
    19    9   40 1   
    20    9   50 1   
    21   10   11 1   
    22   10   39 2   
    23   11   12 1   
    24   11   51 1   
    25   12   13 1   
    26   12   28 1   
    27   12   52 1   
    28   13   14 1   
    29   13   53 1   
    30   13   54 1   
    31   14   15 1   
    32   14   55 1   
    33   14   56 1   
    34   15   16 1   
    35   15   57 1   
    36   15   58 1   
    37   16   17 1   
    38   16   59 1   
    39   16   60 1   
    40   17   18 1   
    41   17   61 1   
    42   18   19 1   
    43   18   37 2   
    44   19   20 1   
    45   19   27 1   
    46   19   62 1   
    47   20   21 1   
    48   20   23 1   
    49   20   63 1   
    50   21   22 2   
    51   21   64 1   
    52   23   24 1   
    53   23   26 1   
    54   23   65 1   
    55   24   25 1   
    56   24   66 1   
    57   24   67 1   
    58   25   68 1   
    59   25   69 1   
    60   25   70 1   
    61   26   71 1   
    62   26   72 1   
    63   26   73 1   
    64   27   74 1   
    65   28   29 1   
    66   28   38 2   
    67   29   30 1   
    68   30   31 1   
    69   30   75 1   
    70   30   76 1   
    71   31   32 ar  
    72   31   36 ar  
    73   32   33 ar  
    74   32   77 1   
    75   33   34 ar  
    76   33   78 1   
    77   34   35 ar  
    78   34   79 1   
    79   35   36 ar  
    80   35   80 1   
    81   36   81 1   
    82   40   82 1   
    83   40   83 1   
    84   40   84 1   
    85   42   43 ar  
    86   42   85 1   
    87   43   86 1   
@<TRIPOS>SUBSTRUCTURE
     1 ESY         1 TEMP              0 ****  ****    0 ROOT
