@<TRIPOS>MOLECULE
ESZ
   44    47     1     0     0
SMALL
bcc


@<TRIPOS>ATOM
      1 Br2         0.1970    0.4410   -0.3630 br        1 ESZ     -0.180400
      2 C8          2.0610    0.0090   -0.0560 c3        1 ESZ     -0.030300
      3 C7          2.4120   -0.0430    1.4540 c3        1 ESZ      0.148100
      4 O1          2.9840    1.1710    1.8940 oh        1 ESZ     -0.585800
      5 C5          3.4520   -1.1880    1.5600 c3        1 ESZ     -0.044000
      6 C6          4.8200   -0.6480    1.1820 c3        1 ESZ     -0.080100
      7 C4          3.5110   -1.8890    2.9060 c3        1 ESZ     -0.063400
      8 C3          4.3350   -3.1650    2.8220 c3        1 ESZ     -0.072400
      9 C2          3.9130   -4.1040    1.6950 c3        1 ESZ     -0.008400
     10 C12         3.8040   -3.3650    0.3490 c3        1 ESZ     -0.047700
     11 C10         2.8680   -2.1920    0.5390 c3        1 ESZ     -0.068700
     12 C9          2.4820   -1.3350   -0.6590 c3        1 ESZ     -0.065400
     13 C21         4.8040   -5.2990    1.5580 ca        1 ESZ     -0.100300
     14 C20         5.4550   -5.8360    2.6780 ca        1 ESZ     -0.096000
     15 C19         6.2460   -6.9740    2.5850 ca        1 ESZ     -0.158000
     16 C18         6.3890   -7.6010    1.3370 ca        1 ESZ      0.124100
     17 O3          7.1800   -8.7260    1.2980 oh        1 ESZ     -0.498100
     18 C17         5.7470   -7.0860    0.2070 ca        1 ESZ     -0.217000
     19 C16         4.9550   -5.9360    0.3140 ca        1 ESZ     -0.033300
     20 C15         4.3240   -5.4270   -0.9370 c3        1 ESZ     -0.037100
     21 C14         3.3040   -4.3340   -0.7060 c3        1 ESZ     -0.074400
     22 H1          2.6250    0.8460   -0.5360 h1        1 ESZ      0.090700
     23 H2          1.5070   -0.2900    2.0740 h1        1 ESZ      0.054700
     24 H3          2.2780    1.8300    1.8750 ho        1 ESZ      0.406000
     25 H4          4.7910   -0.2010    0.1590 hc        1 ESZ      0.043033
     26 H5          5.5960   -1.4500    1.2010 hc        1 ESZ      0.043033
     27 H6          5.1160    0.1500    1.9060 hc        1 ESZ      0.043033
     28 H7          3.9660   -1.2040    3.6680 hc        1 ESZ      0.046700
     29 H8          2.4710   -2.1350    3.2470 hc        1 ESZ      0.046700
     30 H9          4.2230   -3.7000    3.8040 hc        1 ESZ      0.045700
     31 H10         5.4190   -2.9080    2.7020 hc        1 ESZ      0.045700
     32 H11         2.8820   -4.4930    1.9520 hc        1 ESZ      0.055700
     33 H12         4.8210   -2.9960    0.0430 hc        1 ESZ      0.063700
     34 H13         1.9070   -2.6000    0.9720 hc        1 ESZ      0.053700
     35 H14         1.6650   -1.8160   -1.2510 hc        1 ESZ      0.060700
     36 H15         3.3560   -1.1870   -1.3430 hc        1 ESZ      0.060700
     37 H16         5.3460   -5.3570    3.6630 ha        1 ESZ      0.135000
     38 H17         6.7550   -7.3900    3.4650 ha        1 ESZ      0.150000
     39 H18         7.1890   -9.0520    0.3860 ho        1 ESZ      0.418000
     40 H19         5.8630   -7.5810   -0.7680 ha        1 ESZ      0.132000
     41 H20         5.1420   -5.0370   -1.6040 hc        1 ESZ      0.051700
     42 H21         3.8350   -6.2800   -1.4800 hc        1 ESZ      0.051700
     43 H22         2.3280   -4.7790   -0.3800 hc        1 ESZ      0.045700
     44 H23         3.1170   -3.7850   -1.6670 hc        1 ESZ      0.045700
@<TRIPOS>BOND
     1    1    2 1   
     2    2    3 1   
     3    2   12 1   
     4    2   22 1   
     5    3    4 1   
     6    3    5 1   
     7    3   23 1   
     8    4   24 1   
     9    5    6 1   
    10    5    7 1   
    11    5   11 1   
    12    6   25 1   
    13    6   26 1   
    14    6   27 1   
    15    7    8 1   
    16    7   28 1   
    17    7   29 1   
    18    8    9 1   
    19    8   30 1   
    20    8   31 1   
    21    9   10 1   
    22    9   13 1   
    23    9   32 1   
    24   10   11 1   
    25   10   21 1   
    26   10   33 1   
    27   11   12 1   
    28   11   34 1   
    29   12   35 1   
    30   12   36 1   
    31   13   14 ar  
    32   13   19 ar  
    33   14   15 ar  
    34   14   37 1   
    35   15   16 ar  
    36   15   38 1   
    37   16   17 1   
    38   16   18 ar  
    39   17   39 1   
    40   18   19 ar  
    41   18   40 1   
    42   19   20 1   
    43   20   21 1   
    44   20   41 1   
    45   20   42 1   
    46   21   43 1   
    47   21   44 1   
@<TRIPOS>SUBSTRUCTURE
     1 ESZ         1 TEMP              0 ****  ****    0 ROOT
