@<TRIPOS>MOLECULE
ESZ
   44    47     1     0     0
SMALL
bcc


@<TRIPOS>ATOM
      1 BR2         0.2010    0.4450   -0.3660 br        1 ESZ     -0.180400
      2 C8          2.0650    0.0110   -0.0570 c3        1 ESZ     -0.030300
      3 C7          2.4140   -0.0420    1.4540 c3        1 ESZ      0.148100
      4 O1          2.9860    1.1720    1.8950 oh        1 ESZ     -0.585800
      5 C5          3.4530   -1.1880    1.5600 c3        1 ESZ     -0.044000
      6 C6          4.8220   -0.6490    1.1830 c3        1 ESZ     -0.080100
      7 C4          3.5100   -1.8890    2.9050 c3        1 ESZ     -0.063400
      8 C3          4.3330   -3.1660    2.8230 c3        1 ESZ     -0.072400
      9 C2          3.9110   -4.1040    1.6950 c3        1 ESZ     -0.008400
     10 C12         3.8040   -3.3640    0.3490 c3        1 ESZ     -0.047700
     11 C10         2.8690   -2.1910    0.5380 c3        1 ESZ     -0.068700
     12 C9          2.4850   -1.3330   -0.6600 c3        1 ESZ     -0.065400
     13 C21         4.8020   -5.3000    1.5580 ca        1 ESZ     -0.100300
     14 C20         5.4520   -5.8380    2.6780 ca        1 ESZ     -0.096000
     15 C19         6.2420   -6.9760    2.5860 ca        1 ESZ     -0.158000
     16 C18         6.3850   -7.6020    1.3380 ca        1 ESZ      0.124100
     17 O3          7.1760   -8.7280    1.2980 oh        1 ESZ     -0.498100
     18 C17         5.7450   -7.0860    0.2070 ca        1 ESZ     -0.217000
     19 C16         4.9540   -5.9360    0.3140 ca        1 ESZ     -0.033300
     20 C15         4.3240   -5.4270   -0.9370 c3        1 ESZ     -0.037100
     21 C14         3.3040   -4.3320   -0.7070 c3        1 ESZ     -0.074400
     22 H1          2.6290    0.8480   -0.5370 h1        1 ESZ      0.090700
     23 H2          1.5080   -0.2880    2.0730 h1        1 ESZ      0.054700
     24 H3          2.2810    1.8310    1.8750 ho        1 ESZ      0.406000
     25 H4          4.7940   -0.2020    0.1610 hc        1 ESZ      0.043033
     26 H5          5.1180    0.1490    1.9080 hc        1 ESZ      0.043033
     27 H6          5.5970   -1.4510    1.2030 hc        1 ESZ      0.043033
     28 H7          3.9650   -1.2050    3.6690 hc        1 ESZ      0.046700
     29 H8          2.4700   -2.1340    3.2460 hc        1 ESZ      0.046700
     30 H9          5.4180   -2.9100    2.7040 hc        1 ESZ      0.045700
     31 H10         4.2200   -3.7010    3.8040 hc        1 ESZ      0.045700
     32 H11         2.8800   -4.4930    1.9500 hc        1 ESZ      0.055700
     33 H12         4.8220   -2.9970    0.0430 hc        1 ESZ      0.063700
     34 H13         1.9070   -2.5980    0.9700 hc        1 ESZ      0.053700
     35 H14         3.3590   -1.1860   -1.3430 hc        1 ESZ      0.060700
     36 H15         1.6680   -1.8130   -1.2530 hc        1 ESZ      0.060700
     37 H16         5.3420   -5.3580    3.6630 ha        1 ESZ      0.135000
     38 H17         6.7500   -7.3930    3.4660 ha        1 ESZ      0.150000
     39 H18         7.1860   -9.0530    0.3860 ho        1 ESZ      0.418000
     40 H19         5.8610   -7.5810   -0.7680 ha        1 ESZ      0.132000
     41 H20         5.1420   -5.0370   -1.6030 hc        1 ESZ      0.051700
     42 H21         3.8350   -6.2790   -1.4820 hc        1 ESZ      0.051700
     43 H22         2.3280   -4.7780   -0.3820 hc        1 ESZ      0.045700
     44 H23         3.1190   -3.7830   -1.6670 hc        1 ESZ      0.045700
@<TRIPOS>BOND
     1    1    2 1   
     2    2    3 1   
     3    2   12 1   
     4    2   22 1   
     5    3    4 1   
     6    3    5 1   
     7    3   23 1   
     8    4   24 1   
     9    5    6 1   
    10    5    7 1   
    11    5   11 1   
    12    6   25 1   
    13    6   26 1   
    14    6   27 1   
    15    7    8 1   
    16    7   28 1   
    17    7   29 1   
    18    8    9 1   
    19    8   30 1   
    20    8   31 1   
    21    9   10 1   
    22    9   13 1   
    23    9   32 1   
    24   10   11 1   
    25   10   21 1   
    26   10   33 1   
    27   11   12 1   
    28   11   34 1   
    29   12   35 1   
    30   12   36 1   
    31   13   14 ar  
    32   13   19 ar  
    33   14   15 ar  
    34   14   37 1   
    35   15   16 ar  
    36   15   38 1   
    37   16   17 1   
    38   16   18 ar  
    39   17   39 1   
    40   18   19 ar  
    41   18   40 1   
    42   19   20 1   
    43   20   21 1   
    44   20   41 1   
    45   20   42 1   
    46   21   43 1   
    47   21   44 1   
@<TRIPOS>SUBSTRUCTURE
     1 ESZ         1 TEMP              0 ****  ****    0 ROOT
