@<TRIPOS>MOLECULE
ET
   46    49     1     0     0
SMALL
bcc


@<TRIPOS>ATOM
      1 C1          0.0270    0.0880   -0.0170 ca        1 ET      -0.052000
      2 C2          1.4070    0.0010   -0.0700 ca        1 ET      -0.081000
      3 C3          2.1310   -0.1350    1.1340 ca        1 ET       0.004600
      4 C4          1.4760   -0.1760    2.3650 ca        1 ET      -0.090000
      5 N5         -0.6200   -0.0820    3.6660 na        1 ET       0.024900
      6 C6         -1.9640   -0.0280    3.7230 cp        1 ET       0.251700
      7 C7         -4.1720    0.1270    2.6010 ca        1 ET      -0.016000
      8 C8         -4.9330    0.2300    1.4370 ca        1 ET      -0.039400
      9 C9         -4.3020    0.2880    0.1700 ca        1 ET      -0.040000
     10 C10        -2.9210    0.2370    0.0900 ca        1 ET      -0.090000
     11 C11        -2.7620    0.0790    2.5100 ca        1 ET      -0.103000
     12 C12        -2.1230    0.1270    1.2490 ca        1 ET       0.057000
     13 C13        -0.6760    0.0510    1.2040 ca        1 ET      -0.013000
     14 C14         0.0590   -0.0710    2.4190 ca        1 ET       0.012700
     15 C15        -2.6670   -0.0630    5.0180 cp        1 ET      -0.216000
     16 C16        -2.8340   -1.2810    5.6950 ca        1 ET      -0.099500
     17 C17        -3.5000   -1.3010    6.9190 ca        1 ET      -0.110500
     18 C18        -3.9820   -0.1150    7.4790 ca        1 ET      -0.050000
     19 C19        -3.8090    1.0980    6.8040 ca        1 ET      -0.110500
     20 C20        -3.1580    1.1310    5.5740 ca        1 ET      -0.099500
     21 C21         0.1750   -0.1300    4.9140 c3        1 ET      -0.019700
     22 C22         0.6830   -1.5100    5.2830 c3        1 ET      -0.129100
     23 N23         3.5930   -0.2340    1.0690 n4        1 ET      -0.716000
     24 N24        -6.3950    0.2790    1.5030 n4        1 ET      -0.711000
     25 H1         -0.5200    0.1900   -0.9740 ha        1 ET       0.195000
     26 H2          1.9170    0.0390   -1.0530 ha        1 ET       0.202000
     27 H4          2.0610   -0.2980    3.2970 ha        1 ET       0.187000
     28 H7         -4.6390    0.0840    3.6060 ha        1 ET       0.198000
     29 H9         -4.8940    0.3730   -0.7620 ha        1 ET       0.199000
     30 H10        -2.4590    0.2830   -0.9140 ha        1 ET       0.194000
     31 H16        -2.4520   -2.2200    5.2660 ha        1 ET       0.152000
     32 H17        -3.6380   -2.2590    7.4520 ha        1 ET       0.186500
     33 H18        -4.4940   -0.1340    8.4590 ha        1 ET       0.191000
     34 H19        -4.1810    2.0360    7.2540 ha        1 ET       0.186500
     35 H20        -3.0120    2.0920    5.0580 ha        1 ET       0.152000
     36 H211        1.0270    0.6020    4.7960 h1        1 ET       0.112700
     37 H212       -0.4730    0.2590    5.7580 h1        1 ET       0.112700
     38 H221       -0.1610   -2.2030    5.5230 hc        1 ET       0.080367
     39 H222        1.3010   -1.9690    4.4760 hc        1 ET       0.080367
     40 H223        1.3160   -1.4060    6.2040 hc        1 ET       0.080367
     41 H231        3.9790    0.6190    0.6340 hn        1 ET       0.488467
     42 H232        4.0000   -0.3420    2.0080 hn        1 ET       0.488467
     43 H241       -6.7940   -0.5080    0.9680 hn        1 ET       0.486467
     44 H242       -6.7210    0.2160    2.4770 hn        1 ET       0.486467
     45 H233        3.8600   -1.0490    0.4940 hn        1 ET       0.488467
     46 H243       -6.7340    1.1640    1.0940 hn        1 ET       0.486467
@<TRIPOS>BOND
     1    1    2 ar  
     2    1   13 ar  
     3    1   25 1   
     4    2    3 ar  
     5    2   26 1   
     6    3    4 ar  
     7    3   23 1   
     8    4   14 ar  
     9    4   27 1   
    10    5    6 2   
    11    5   14 1   
    12    5   21 1   
    13    6   11 ar  
    14    6   15 1   
    15    7    8 ar  
    16    7   11 ar  
    17    7   28 1   
    18    8    9 ar  
    19    8   24 1   
    20    9   10 ar  
    21    9   29 1   
    22   10   12 ar  
    23   10   30 1   
    24   11   12 ar  
    25   12   13 ar  
    26   13   14 ar  
    27   15   16 ar  
    28   15   20 ar  
    29   16   17 ar  
    30   16   31 1   
    31   17   18 ar  
    32   17   32 1   
    33   18   19 ar  
    34   18   33 1   
    35   19   20 ar  
    36   19   34 1   
    37   20   35 1   
    38   21   22 1   
    39   21   36 1   
    40   21   37 1   
    41   22   38 1   
    42   22   39 1   
    43   22   40 1   
    44   23   41 1   
    45   23   42 1   
    46   23   45 1   
    47   24   43 1   
    48   24   44 1   
    49   24   46 1   
@<TRIPOS>SUBSTRUCTURE
     1 ET          1 TEMP              0 ****  ****    0 ROOT
