@<TRIPOS>MOLECULE
ET
   44    47     1     0     0
SMALL
bcc


@<TRIPOS>ATOM
      1 C1         -3.2330   -1.3700    0.0690 ca        1 ET      -0.051000
      2 C2         -4.3440   -0.5760   -0.0070 ca        1 ET      -0.175000
      3 C3         -4.2130    0.8500   -0.0940 ca        1 ET       0.257600
      4 C4         -2.9180    1.4040   -0.0890 ca        1 ET      -0.270000
      5 N5         -0.4800    1.1460    0.0460 na        1 ET       0.018900
      6 C6          0.6220    0.3620    0.0730 cp        1 ET       0.171700
      7 C7          1.6940   -1.8610    0.1520 ca        1 ET      -0.190000
      8 C8          1.6150   -3.2590    0.1930 ca        1 ET       0.195600
      9 C9          0.3110   -3.8600    0.2220 ca        1 ET      -0.115000
     10 C10        -0.8240   -3.0890    0.1910 ca        1 ET      -0.105000
     11 C11         0.5240   -1.0710    0.1180 ca        1 ET      -0.065000
     12 C12        -0.7590   -1.6740    0.1310 ca        1 ET       0.017000
     13 C13        -1.9190   -0.8380    0.0740 ca        1 ET      -0.082000
     14 C14        -1.7740    0.5790    0.0100 ca        1 ET       0.046700
     15 C15         1.9690    0.9760    0.0670 cp        1 ET      -0.136000
     16 C16         2.5830    1.2910   -1.1520 ca        1 ET      -0.099500
     17 C17         3.8660    1.8370   -1.1550 ca        1 ET      -0.122500
     18 C18         4.5310    2.0740    0.0490 ca        1 ET      -0.090000
     19 C19         3.9140    1.7620    1.2620 ca        1 ET      -0.122500
     20 C20         2.6340    1.2120    1.2770 ca        1 ET      -0.099500
     21 C21        -0.3410    2.6100    0.0560 c3        1 ET      -0.008700
     22 C22        -0.4470    3.2560   -1.3140 c3        1 ET      -0.119100
     23 N23        -5.3230    1.6420   -0.1810 nh        1 ET      -0.860200
     24 N24         2.7420   -4.0480    0.1450 nh        1 ET      -0.848200
     25 H1         -3.3690   -2.4630    0.1280 ha        1 ET       0.155000
     26 H2         -5.3480   -1.0310   -0.0050 ha        1 ET       0.160000
     27 H4         -2.8190    2.4970   -0.1780 ha        1 ET       0.151000
     28 H7          2.6750   -1.3590    0.1380 ha        1 ET       0.159000
     29 H9          0.2230   -4.9590    0.2640 ha        1 ET       0.158000
     30 H10        -1.8040   -3.5920    0.2130 ha        1 ET       0.154000
     31 H16         2.0630    1.1010   -2.1030 ha        1 ET       0.149000
     32 H17         4.3540    2.0810   -2.1120 ha        1 ET       0.157500
     33 H18         5.5440    2.5080    0.0430 ha        1 ET       0.158000
     34 H19         4.4390    1.9490    2.2130 ha        1 ET       0.157500
     35 H20         2.1520    0.9600    2.2340 ha        1 ET       0.149000
     36 H211        0.6620    2.8680    0.5080 h1        1 ET       0.092700
     37 H212       -1.1280    3.0240    0.7500 h1        1 ET       0.092700
     38 H221       -0.3860    4.3650   -1.1800 hc        1 ET       0.065367
     39 H222        0.3940    2.9310   -1.9750 hc        1 ET       0.065367
     40 H223       -1.4120    3.0090   -1.8180 hc        1 ET       0.065367
     41 H231       -5.2350    2.6240   -0.2490 hn        1 ET       0.448300
     42 H232       -6.2240    1.2340   -0.1950 hn        1 ET       0.448300
     43 H241        2.6550   -5.0090    0.3690 hn        1 ET       0.433800
     44 H242        3.6230   -3.6210    0.2970 hn        1 ET       0.433800
@<TRIPOS>BOND
     1    1    2 ar  
     2    1   13 ar  
     3    1   25 1   
     4    2    3 ar  
     5    2   26 1   
     6    3    4 ar  
     7    3   23 1   
     8    4   14 ar  
     9    4   27 1   
    10    5    6 2   
    11    5   14 1   
    12    5   21 1   
    13    6   11 ar  
    14    6   15 1   
    15    7    8 ar  
    16    7   11 ar  
    17    7   28 1   
    18    8    9 ar  
    19    8   24 1   
    20    9   10 ar  
    21    9   29 1   
    22   10   12 ar  
    23   10   30 1   
    24   11   12 ar  
    25   12   13 ar  
    26   13   14 ar  
    27   15   16 ar  
    28   15   20 ar  
    29   16   17 ar  
    30   16   31 1   
    31   17   18 ar  
    32   17   32 1   
    33   18   19 ar  
    34   18   33 1   
    35   19   20 ar  
    36   19   34 1   
    37   20   35 1   
    38   21   22 1   
    39   21   36 1   
    40   21   37 1   
    41   22   38 1   
    42   22   39 1   
    43   22   40 1   
    44   23   41 1   
    45   23   42 1   
    46   24   43 1   
    47   24   44 1   
@<TRIPOS>SUBSTRUCTURE
     1 ET          1 TEMP              0 ****  ****    0 ROOT
