@<TRIPOS>MOLECULE
ET
   44    47     1     0     0
SMALL
bcc


@<TRIPOS>ATOM
      1 C1          0.0260    0.0610   -0.0160 ca        1 ET      -0.051000
      2 C2          1.3900   -0.0270   -0.0730 ca        1 ET      -0.175000
      3 C3          2.1610   -0.1540    1.1300 ca        1 ET       0.257600
      4 C4          1.4790   -0.1750    2.3620 ca        1 ET      -0.270000
      5 N5         -0.6030   -0.0530    3.6590 na        1 ET       0.018900
      6 C6         -1.9540   -0.0130    3.7170 cp        1 ET       0.171700
      7 C7         -4.1630    0.1170    2.6230 ca        1 ET      -0.190000
      8 C8         -4.9590    0.1960    1.4730 ca        1 ET       0.195600
      9 C9         -4.2980    0.2530    0.1990 ca        1 ET      -0.115000
     10 C10        -2.9300    0.2100    0.1100 ca        1 ET      -0.105000
     11 C11        -2.7550    0.0710    2.5280 ca        1 ET      -0.065000
     12 C12        -2.1130    0.1110    1.2640 ca        1 ET       0.017000
     13 C13        -0.6840    0.0410    1.2120 ca        1 ET      -0.082000
     14 C14         0.0700   -0.0620    2.4160 ca        1 ET       0.046700
     15 C15        -2.6400   -0.0480    5.0280 cp        1 ET      -0.136000
     16 C16        -2.9450   -1.2800    5.6210 ca        1 ET      -0.099500
     17 C17        -3.6220   -1.3080    6.8400 ca        1 ET      -0.122500
     18 C18        -3.9890   -0.1160    7.4670 ca        1 ET      -0.090000
     19 C19        -3.6810    1.1100    6.8740 ca        1 ET      -0.122500
     20 C20        -3.0080    1.1500    5.6550 ca        1 ET      -0.099500
     21 C21         0.1860   -0.0840    4.8990 c3        1 ET      -0.008700
     22 C22         0.6520   -1.4700    5.3080 c3        1 ET      -0.119100
     23 N23         3.5220   -0.2540    1.0710 nv        1 ET      -0.860200
     24 N24        -6.3330    0.1610    1.5410 nv        1 ET      -0.848200
     25 H1         -0.5370    0.1510   -0.9600 ha        1 ET       0.155000
     26 H2          1.9030   -0.0050   -1.0490 ha        1 ET       0.160000
     27 H4          2.0700   -0.2940    3.2830 ha        1 ET       0.151000
     28 H7         -4.6300    0.0810    3.6210 ha        1 ET       0.159000
     29 H9         -4.9020    0.3250   -0.7210 ha        1 ET       0.158000
     30 H10        -2.4640    0.2540   -0.8880 ha        1 ET       0.154000
     31 H16        -2.6600   -2.2210    5.1270 ha        1 ET       0.149000
     32 H17        -3.8670   -2.2760    7.3060 ha        1 ET       0.157500
     33 H18        -4.5220   -0.1430    8.4310 ha        1 ET       0.158000
     34 H19        -3.9710    2.0500    7.3700 ha        1 ET       0.157500
     35 H20        -2.7730    2.1180    5.1860 ha        1 ET       0.149000
     36 H211        1.0680    0.6050    4.7610 h1        1 ET       0.092700
     37 H212       -0.4430    0.3530    5.7310 h1        1 ET       0.092700
     38 H221       -0.2180   -2.1290    5.5500 hc        1 ET       0.065367
     39 H222        1.2570   -1.9590    4.5080 hc        1 ET       0.065367
     40 H223        1.2860   -1.3670    6.2240 hc        1 ET       0.065367
     41 H231        4.0550   -0.3480    1.8980 hn        1 ET       0.448300
     42 H232        3.9830   -0.2490    0.1960 hn        1 ET       0.448300
     43 H241       -6.7660    0.2940    2.4220 hn        1 ET       0.433800
     44 H242       -6.8520    0.4110    0.7350 hn        1 ET       0.433800
@<TRIPOS>BOND
     1    1    2 ar  
     2    1   13 ar  
     3    1   25 1   
     4    2    3 ar  
     5    2   26 1   
     6    3    4 ar  
     7    3   23 1   
     8    4   14 ar  
     9    4   27 1   
    10    5    6 2   
    11    5   14 1   
    12    5   21 1   
    13    6   11 ar  
    14    6   15 1   
    15    7    8 ar  
    16    7   11 ar  
    17    7   28 1   
    18    8    9 ar  
    19    8   24 1   
    20    9   10 ar  
    21    9   29 1   
    22   10   12 ar  
    23   10   30 1   
    24   11   12 ar  
    25   12   13 ar  
    26   13   14 ar  
    27   15   16 ar  
    28   15   20 ar  
    29   16   17 ar  
    30   16   31 1   
    31   17   18 ar  
    32   17   32 1   
    33   18   19 ar  
    34   18   33 1   
    35   19   20 ar  
    36   19   34 1   
    37   20   35 1   
    38   21   22 1   
    39   21   36 1   
    40   21   37 1   
    41   22   38 1   
    42   22   39 1   
    43   22   40 1   
    44   23   41 1   
    45   23   42 1   
    46   24   43 1   
    47   24   44 1   
@<TRIPOS>SUBSTRUCTURE
     1 ET          1 TEMP              0 ****  ****    0 ROOT
