@<TRIPOS>MOLECULE
ET
   44    47     1     0     0
SMALL
bcc


@<TRIPOS>ATOM
      1 C1          0.0410    0.0710   -0.0070 ca        1 ET      -0.051000
      2 C2          1.4060   -0.0190   -0.0590 ca        1 ET      -0.175000
      3 C3          2.1710   -0.1510    1.1480 ca        1 ET       0.257600
      4 C4          1.4830   -0.1760    2.3760 ca        1 ET      -0.270000
      5 N5         -0.6050   -0.0570    3.6640 na        1 ET       0.018900
      6 C6         -1.9560   -0.0160    3.7160 cp        1 ET       0.171700
      7 C7         -4.1600    0.1210    2.6120 ca        1 ET      -0.190000
      8 C8         -4.9500    0.2050    1.4580 ca        1 ET       0.195600
      9 C9         -4.2830    0.2660    0.1880 ca        1 ET      -0.115000
     10 C10        -2.9150    0.2220    0.1050 ca        1 ET      -0.105000
     11 C11        -2.7520    0.0740    2.5230 ca        1 ET      -0.065000
     12 C12        -2.1030    0.1180    1.2630 ca        1 ET       0.017000
     13 C13        -0.6750    0.0470    1.2170 ca        1 ET      -0.082000
     14 C14         0.0740   -0.0620    2.4240 ca        1 ET       0.046700
     15 C15        -2.6490   -0.0540    5.0230 cp        1 ET      -0.136000
     16 C16        -2.9590   -1.2880    5.6100 ca        1 ET      -0.099500
     17 C17        -3.6420   -1.3200    6.8250 ca        1 ET      -0.122500
     18 C18        -4.0080   -0.1300    7.4560 ca        1 ET      -0.090000
     19 C19        -3.6950    1.0980    6.8700 ca        1 ET      -0.122500
     20 C20        -3.0160    1.1420    5.6540 ca        1 ET      -0.099500
     21 C21         0.1780   -0.0940    4.9080 c3        1 ET      -0.008700
     22 C22         0.6400   -1.4820    5.3130 c3        1 ET      -0.119100
     23 N23         3.5320   -0.2510    1.0950 nh        1 ET      -0.860200
     24 N24        -6.3250    0.1720    1.5200 nh        1 ET      -0.848200
     25 H1         -0.5170    0.1640   -0.9540 ha        1 ET       0.155000
     26 H2          1.9230    0.0070   -1.0320 ha        1 ET       0.160000
     27 H4          2.0700   -0.2990    3.3000 ha        1 ET       0.151000
     28 H7         -4.6320    0.0820    3.6080 ha        1 ET       0.159000
     29 H9         -4.8840    0.3420   -0.7350 ha        1 ET       0.158000
     30 H10        -2.4450    0.2680   -0.8900 ha        1 ET       0.154000
     31 H16        -2.6740   -2.2280    5.1120 ha        1 ET       0.149000
     32 H17        -3.8910   -2.2890    7.2860 ha        1 ET       0.157500
     33 H18        -4.5460   -0.1600    8.4170 ha        1 ET       0.158000
     34 H19        -3.9850    2.0370    7.3680 ha        1 ET       0.157500
     35 H20        -2.7760    2.1110    5.1910 ha        1 ET       0.149000
     36 H211        1.0620    0.5950    4.7770 h1        1 ET       0.092700
     37 H212       -0.4540    0.3400    5.7380 h1        1 ET       0.092700
     38 H221       -0.2320   -2.1410    5.5480 hc        1 ET       0.065367
     39 H222        1.2480   -1.9690    4.5130 hc        1 ET       0.065367
     40 H223        1.2700   -1.3840    6.2320 hc        1 ET       0.065367
     41 H231        4.0610   -0.3490    1.9240 hn        1 ET       0.448300
     42 H232        3.9970   -0.2430    0.2220 hn        1 ET       0.448300
     43 H241       -6.7610    0.3020    2.4000 hn        1 ET       0.433800
     44 H242       -6.8400    0.4250    0.7130 hn        1 ET       0.433800
@<TRIPOS>BOND
     1    1    2 ar  
     2    1   13 ar  
     3    1   25 1   
     4    2    3 ar  
     5    2   26 1   
     6    3    4 ar  
     7    3   23 1   
     8    4   14 ar  
     9    4   27 1   
    10    5    6 2   
    11    5   14 1   
    12    5   21 1   
    13    6   11 ar  
    14    6   15 1   
    15    7    8 ar  
    16    7   11 ar  
    17    7   28 1   
    18    8    9 ar  
    19    8   24 1   
    20    9   10 ar  
    21    9   29 1   
    22   10   12 ar  
    23   10   30 1   
    24   11   12 ar  
    25   12   13 ar  
    26   13   14 ar  
    27   15   16 ar  
    28   15   20 ar  
    29   16   17 ar  
    30   16   31 1   
    31   17   18 ar  
    32   17   32 1   
    33   18   19 ar  
    34   18   33 1   
    35   19   20 ar  
    36   19   34 1   
    37   20   35 1   
    38   21   22 1   
    39   21   36 1   
    40   21   37 1   
    41   22   38 1   
    42   22   39 1   
    43   22   40 1   
    44   23   41 1   
    45   23   42 1   
    46   24   43 1   
    47   24   44 1   
@<TRIPOS>SUBSTRUCTURE
     1 ET          1 TEMP              0 ****  ****    0 ROOT
