@<TRIPOS>MOLECULE
ET0
   28    29     1     0     0
SMALL
bcc


@<TRIPOS>ATOM
      1 N1          0.6370    2.6910    0.2770 na        1 ET0     -0.193400
      2 C4          1.4940    1.5810    0.1790 ca        1 ET0     -0.081200
      3 C5         -4.3030   -0.3910   -0.0010 c         1 ET0      0.907600
      4 C6          1.3210   -0.8020   -0.3900 ca        1 ET0     -0.096000
      5 C8          2.8830    1.4920    0.3000 ca        1 ET0     -0.130000
      6 C10         2.7150   -0.8640   -0.2660 ca        1 ET0      0.071100
      7 O2         -4.6060   -0.1420   -1.2040 o         1 ET0     -0.849300
      8 O1         -5.0510   -1.0220    0.8000 o         1 ET0     -0.849300
      9 C9         -2.9570    0.1260    0.5420 c3        1 ET0     -0.191400
     10 C2         -0.6890    0.8580   -0.1890 cc        1 ET0     -0.079400
     11 C3         -0.6830    2.2120    0.1230 cd        1 ET0     -0.136100
     12 C1          0.6990    0.4190   -0.1650 ca        1 ET0     -0.060800
     13 C11         3.4880    0.2610    0.0760 ca        1 ET0     -0.185000
     14 O3          3.2710   -2.1080   -0.5470 os        1 ET0     -0.333900
     15 C12         4.5730   -2.3290   -0.0300 c3        1 ET0      0.119700
     16 H6          0.7420   -1.6970   -0.6610 ha        1 ET0      0.159000
     17 H7         -1.5480   -1.0440   -0.6090 hc        1 ET0      0.061700
     18 H7A        -2.2990    0.3460   -1.4920 hc        1 ET0      0.061700
     19 H8          3.4880    2.3700    0.5610 ha        1 ET0      0.121000
     20 H9         -3.1070    1.1940    0.8430 hc        1 ET0      0.021700
     21 H9A        -2.6800   -0.4530    1.4560 hc        1 ET0      0.021700
     22 H3         -1.5300    2.8970    0.2050 h4        1 ET0      0.172000
     23 H11         4.5790    0.1750    0.1660 ha        1 ET0      0.122000
     24 H12         5.3280   -1.7470   -0.6140 h1        1 ET0      0.032367
     25 H12A        4.6330   -2.0610    1.0520 h1        1 ET0      0.032367
     26 H12B        4.7350   -3.4280   -0.1730 h1        1 ET0      0.032367
     27 HN1         0.8500    3.4610    0.8560 hn        1 ET0      0.268700
     28 C7         -1.8640    0.0280   -0.5000 c3        1 ET0     -0.019200
@<TRIPOS>BOND
     1    1    2 1   
     2    1   11 1   
     3    1   27 1   
     4    2    5 ar  
     5    2   12 ar  
     6    3    7 1   
     7    3    8 1   
     8    3    9 1   
     9    4    6 ar  
    10    4   12 ar  
    11    4   16 1   
    12    5   13 ar  
    13    5   19 1   
    14    6   13 ar  
    15    6   14 1   
    16    9   20 1   
    17    9   21 1   
    18    9   28 1   
    19   10   11 2   
    20   10   12 1   
    21   10   28 1   
    22   11   22 1   
    23   13   23 1   
    24   14   15 1   
    25   15   24 1   
    26   15   25 1   
    27   15   26 1   
    28   17   28 1   
    29   18   28 1   
@<TRIPOS>SUBSTRUCTURE
     1 ET0         1 TEMP              0 ****  ****    0 ROOT
