@<TRIPOS>MOLECULE
ET0
   28    28     1     0     0
SMALL
bcc


@<TRIPOS>ATOM
      1 N1         -0.3840   -0.0610    0.0450 n3        1 ET0     -0.254000
      2 C4          1.0710    0.1230    0.1310 c3        1 ET0     -0.104000
      3 C5          1.7380   -1.8150   -4.4180 c2        1 ET0      0.317000
      4 C6          2.8530   -0.3300   -1.6430 c2        1 ET0     -0.223000
      5 C8          3.8080    1.0650    1.5930 c1        1 ET0      0.035000
      6 C10         3.9630    0.1170   -0.8330 c2        1 ET0      0.407000
      7 O2          1.7200   -2.9890   -3.9480 o         1 ET0     -0.584000
      8 O1          2.8000   -1.2180   -4.7670 o         1 ET0     -0.584000
      9 C9          0.4040   -1.0600   -4.5240 c3        1 ET0     -0.230000
     10 C2          0.3830   -0.7980   -2.0210 c3        1 ET0     -0.174000
     11 C3         -0.8130   -0.5530   -1.1100 c1        1 ET0     -0.065000
     12 C1          1.5780   -0.3280   -1.2170 c2        1 ET0      0.014000
     13 C11         3.8950    0.6120    0.4310 c1        1 ET0     -0.693000
     14 O3          5.1510   -0.0040   -1.4830 os        1 ET0     -0.170000
     15 C12         6.3150    0.4070   -0.7610 c3        1 ET0     -0.075000
     16 H6          3.0930   -0.7010   -2.6730 ha        1 ET0      0.244000
     17 H7          1.0090    0.7080   -3.4510 hc        1 ET0      0.073000
     18 H7A        -0.7750    0.3830   -3.4200 hc        1 ET0      0.073000
     19 H8          1.5140   -0.4960    0.9600 h1        1 ET0      0.121000
     20 H9         -0.4350   -1.7990   -4.5340 hc        1 ET0      0.070500
     21 H9A         0.3840   -0.4840   -5.4830 hc        1 ET0      0.070500
     22 H3          0.4830   -1.9150   -2.2020 hc        1 ET0      0.197000
     23 H11         1.3360    1.1990    0.3290 h1        1 ET0      0.121000
     24 H12         6.4260   -0.2050    0.1660 h1        1 ET0      0.093000
     25 H12A        6.2410    1.4910   -0.5020 h1        1 ET0      0.093000
     26 H12B        7.1480    0.2140   -1.4820 h1        1 ET0      0.093000
     27 HN1        -0.9560    0.1700    0.8150 hn        1 ET0      0.235000
     28 C7          0.2350   -0.1010   -3.3650 c3        1 ET0     -0.102000
@<TRIPOS>BOND
     1    1    2 1   
     2    1   11 1   
     3    1   27 1   
     4    2   12 1   
     5    2   19 1   
     6    2   23 1   
     7    3    7 1   
     8    3    8 1   
     9    3    9 1   
    10    4    6 1   
    11    4   12 1   
    12    4   16 1   
    13    5   13 1   
    14    6   13 1   
    15    6   14 1   
    16    9   20 1   
    17    9   21 1   
    18    9   28 1   
    19   10   11 1   
    20   10   12 1   
    21   10   22 1   
    22   10   28 1   
    23   14   15 1   
    24   15   24 1   
    25   15   25 1   
    26   15   26 1   
    27   17   28 1   
    28   18   28 1   
@<TRIPOS>SUBSTRUCTURE
     1 ET0         1 TEMP              0 ****  ****    0 ROOT
