@<TRIPOS>MOLECULE
ET0
   28    28     1     0     0
SMALL
bcc


@<TRIPOS>ATOM
      1 N1         -0.2480    0.1170   -0.2310 nu        1 ET0     -0.358100
      2 C4          1.1900    0.0910    0.0780 c3        1 ET0     -0.021500
      3 C5          0.1790   -1.4170   -5.7920 c         1 ET0      0.908600
      4 C6          3.2380    0.0280   -1.4630 ce        1 ET0     -0.271000
      5 C8          3.6660    0.2360    2.1480 c1        1 ET0      0.039000
      6 C10         4.1950    0.1240   -0.4050 cf        1 ET0      0.476400
      7 O2         -0.3220   -0.3360   -6.2150 o         1 ET0     -0.845300
      8 O1          0.4260   -2.4190   -6.5200 o         1 ET0     -0.845300
      9 C9          0.4820   -1.5410   -4.2850 c3        1 ET0     -0.194400
     10 C2          0.8460   -0.1270   -2.2700 cf        1 ET0     -0.252800
     11 C3         -0.3720   -0.0990   -1.6170 cf        1 ET0      0.241500
     12 C1          1.8960   -0.0120   -1.2650 ce        1 ET0      0.086800
     13 C11         3.9310    0.1840    0.9280 ch        1 ET0     -0.726300
     14 O3          5.4800    0.1490   -0.8740 os        1 ET0     -0.320900
     15 C12         6.5080    0.2340    0.1160 c3        1 ET0      0.119700
     16 H6          3.6390   -0.0220   -2.4920 ha        1 ET0      0.168000
     17 H7          2.1200   -0.1600   -3.9860 hc        1 ET0      0.064700
     18 H7A         0.5010    0.6070   -4.2430 hc        1 ET0      0.064700
     19 H8          1.4790   -0.7650    0.7480 h1        1 ET0      0.095700
     20 H9          1.2030   -2.3780   -4.1180 hc        1 ET0      0.022200
     21 H9A        -0.4780   -1.8050   -3.7730 hc        1 ET0      0.022200
     22 H3         -1.3650   -0.1720   -2.0760 h4        1 ET0      0.049800
     23 H11         1.4750    1.0470    0.6010 h1        1 ET0      0.095700
     24 H12         6.4610   -0.6520    0.7930 h1        1 ET0      0.053033
     25 H12A        6.3940    1.1750    0.7050 h1        1 ET0      0.053033
     26 H12B        7.4500    0.2390   -0.4870 h1        1 ET0      0.053033
     27 HN1        -0.8220   -0.4470    0.3550 hn        1 ET0      0.243700
     28 C7          1.0320   -0.2450   -3.7270 c3        1 ET0     -0.022200
@<TRIPOS>BOND
     1    1    2 1   
     2    1   11 2   
     3    1   27 1   
     4    2   12 1   
     5    2   19 1   
     6    2   23 1   
     7    3    7 1   
     8    3    8 1   
     9    3    9 1   
    10    4    6 2   
    11    4   12 1   
    12    4   16 1   
    13    5   13 3   
    14    6   13 1   
    15    6   14 1   
    16    9   20 1   
    17    9   21 1   
    18    9   28 1   
    19   10   11 1   
    20   10   12 2   
    21   10   28 1   
    22   11   22 1   
    23   14   15 1   
    24   15   24 1   
    25   15   25 1   
    26   15   26 1   
    27   17   28 1   
    28   18   28 1   
@<TRIPOS>SUBSTRUCTURE
     1 ET0         1 TEMP              0 ****  ****    0 ROOT
