@<TRIPOS>MOLECULE
ET0
   28    23     1     0     0
SMALL
bcc


@<TRIPOS>ATOM
      1 N1         -2.0110    0.1520    1.7540 n2        1 ET0     -0.216000
      2 C4         -0.6150    0.1840    1.7770 c1        1 ET0     -0.036000
      3 C5         -2.5380   -0.7270   -3.8710 c1        1 ET0      0.327000
      4 C6          1.2070    0.2520    0.1910 c1        1 ET0     -0.096000
      5 C7         -1.6230    0.3990   -1.8520 c3        1 ET0     -0.102000
      6 C8          0.3160    0.1900    2.8370 c1        1 ET0     -0.130000
      7 C10         2.1370    0.2570    1.2410 c1        1 ET0      0.026000
      8 O2         -3.7350   -0.4600   -4.1500 o         1 ET0     -0.584000
      9 O1         -1.7090   -0.8670   -4.7770 o         1 ET0     -0.584000
     10 C9         -2.1320   -0.9370   -2.4420 c2        1 ET0     -0.220000
     11 C2         -1.2710    0.2030   -0.3530 c2        1 ET0     -0.087000
     12 C3         -2.4120    0.1640    0.4510 c1        1 ET0     -0.109000
     13 C1         -0.1710    0.2150    0.4700 c1        1 ET0     -0.049000
     14 C11         1.6950    0.2270    2.5590 c1        1 ET0     -0.185000
     15 O3          3.3360    0.3470    0.4790 os        1 ET0     -0.217000
     16 C12         4.5170    0.1700    1.2410 c3        1 ET0     -0.070000
     17 H6          1.5160    0.2720   -0.7390 ha        1 ET0      0.159000
     18 H7         -0.7810    0.7030   -2.3670 hc        1 ET0      0.101000
     19 H7A        -2.3070    1.0680   -1.9350 hc        1 ET0      0.101000
     20 H8          0.0140    0.2450    3.7270 ha        1 ET0      0.121000
     21 H9         -2.8900   -1.2450   -1.9370 ha        1 ET0      0.061000
     22 H9A        -1.4030   -1.6190   -2.3960 ha        1 ET0      0.061000
     23 H3         -3.3480    0.0810    0.1290 DU        1 ET0      0.195500
     24 H11         2.3570    0.2310    3.3090 ha        1 ET0      0.122000
     25 H12         4.4970   -0.6990    1.6690 h1        1 ET0      0.071667
     26 H12A        5.3270    0.2290    0.6330 h1        1 ET0      0.071667
     27 H12B        4.5690    0.8390    1.8960 h1        1 ET0      0.071667
     28 HN1        -2.5400    0.1270    2.4560 DU        1 ET0      0.195500
@<TRIPOS>BOND
     1    1    2 1   
     2    1   12 1   
     3    2    6 1   
     4    3    8 1   
     5    3    9 1   
     6    4   13 1   
     7    4   17 1   
     8    5   10 1   
     9    5   11 1   
    10    5   18 1   
    11    5   19 1   
    12    6   20 1   
    13    7   14 1   
    14    7   15 1   
    15   10   21 1   
    16   10   22 1   
    17   11   12 1   
    18   11   13 1   
    19   14   24 1   
    20   15   16 1   
    21   16   25 1   
    22   16   26 1   
    23   16   27 1   
@<TRIPOS>SUBSTRUCTURE
     1 ET0         1 TEMP              0 ****  ****    0 ROOT
