@<TRIPOS>MOLECULE
ET1
   45    48     1     0     0
SMALL
bcc


@<TRIPOS>ATOM
      1 C13         0.9350    1.2840    0.0060 c3        1 ET1     -0.196400
      2 C17         1.9620   -1.0020   -6.3740 ce        1 ET1     -0.031300
      3 C20         0.4020   -2.7570   -7.9290 cf        1 ET1     -0.257000
      4 C21         0.6510   -3.0450   -6.5450 cf        1 ET1      0.106000
      5 N01         2.4360   -1.2750   -3.5220 na        1 ET1     -0.534100
      6 C02         2.5130   -1.0060   -2.1230 cc        1 ET1     -0.011000
      7 C03         2.2880    0.3220   -1.8500 cd        1 ET1     -0.047200
      8 C04         2.0510    1.0240   -3.1350 cd        1 ET1     -0.077000
      9 C05         2.1810   -0.0330   -4.1640 cd        1 ET1      0.211900
     10 C06         1.6240    3.4760   -2.6180 cx        1 ET1      0.127000
     11 C07         0.2330    3.8510   -2.1430 cx        1 ET1     -0.148900
     12 C08         2.1990   -0.0070   -5.5210 c1        1 ET1     -0.207800
     13 C09         1.7890    2.2970   -3.4820 c2        1 ET1      0.005800
     14 O10         2.7280    3.7440   -1.8130 oh        1 ET1     -0.597800
     15 C11         0.9020    4.6910   -3.1870 cx        1 ET1     -0.148900
     16 C12         2.3140    0.9230   -0.5050 c3        1 ET1     -0.023200
     17 C14         1.0190    2.3720    1.0890 c         1 ET1      0.911600
     18 C16         1.4520   -2.2510   -5.7900 ce        1 ET1     -0.421100
     19 C18         2.1210   -0.9260   -7.8460 c3        1 ET1     -0.022000
     20 C19         1.1140   -1.7730   -8.5500 c2        1 ET1      0.153900
     21 O22         3.2220   -3.4680   -4.4680 o         1 ET1     -0.649300
     22 O23         1.0450   -3.3950   -3.5690 o         1 ET1     -0.649300
     23 O24         0.7320    2.0670    2.2770 o         1 ET1     -0.847800
     24 O25         1.3520    3.5460    0.7290 o         1 ET1     -0.847800
     25 O26         0.8930   -1.6180   -9.9000 os        1 ET1     -0.326900
     26 C27         1.6360   -0.5960  -10.5590 c3        1 ET1      0.110700
     27 H13         0.4300    0.3790    0.4250 hc        1 ET1      0.032700
     28 H13A        0.3070    1.6820   -0.8320 hc        1 ET1      0.032700
     29 H21         0.2000   -3.9640   -6.1280 ha        1 ET1      0.146000
     30 H02         2.7320   -1.8250   -1.4330 h4        1 ET1      0.175000
     31 H07        -0.6180    3.2120   -2.4330 hc        1 ET1      0.082950
     32 H08         0.1520    4.2190   -1.0970 hc        1 ET1      0.082950
     33 H09         1.6550    2.5120   -4.5620 ha        1 ET1      0.135000
     34 H11         2.4140    3.7710   -0.8820 ho        1 ET1      0.480000
     35 H11A        1.2810    5.6890   -2.9060 hc        1 ET1      0.082950
     36 H11B        0.5350    4.6550   -4.2260 hc        1 ET1      0.082950
     37 H12         2.9580    1.8470   -0.5300 hc        1 ET1      0.062200
     38 H12A        2.7960    0.2060    0.2130 hc        1 ET1      0.062200
     39 H18         2.0250    0.1460   -8.1690 hc        1 ET1      0.083700
     40 H27         1.3150    0.4120  -10.2010 h1        1 ET1      0.048700
     41 H27A        2.7330   -0.7380  -10.4060 h1        1 ET1      0.048700
     42 H27B        1.3660   -0.7360  -11.6360 h1        1 ET1      0.048700
     43 H17         3.1530   -1.2760   -8.1380 hc        1 ET1      0.083700
     44 S15         2.0540   -2.7110   -4.2710 sy        1 ET1      1.496800
     45 H20        -0.3330   -3.3610   -8.4770 ha        1 ET1      0.150000
@<TRIPOS>BOND
     1    1   16 1   
     2    1   17 1   
     3    1   27 1   
     4    1   28 1   
     5    2   12 2   
     6    2   18 1   
     7    2   19 1   
     8    3    4 1   
     9    3   20 2   
    10    3   45 1   
    11    4   18 2   
    12    4   29 1   
    13    5    6 1   
    14    5    9 1   
    15    5   44 1   
    16    6    7 2   
    17    6   30 1   
    18    7    8 1   
    19    7   16 1   
    20    8    9 1   
    21    8   13 2   
    22    9   12 2   
    23   10   11 1   
    24   10   13 1   
    25   10   14 1   
    26   10   15 1   
    27   11   15 1   
    28   11   31 1   
    29   11   32 1   
    30   13   33 1   
    31   14   34 1   
    32   15   35 1   
    33   15   36 1   
    34   16   37 1   
    35   16   38 1   
    36   17   23 1   
    37   17   24 1   
    38   18   44 1   
    39   19   20 1   
    40   19   39 1   
    41   19   43 1   
    42   20   25 1   
    43   21   44 2   
    44   22   44 2   
    45   25   26 1   
    46   26   40 1   
    47   26   41 1   
    48   26   42 1   
@<TRIPOS>SUBSTRUCTURE
     1 ET1         1 TEMP              0 ****  ****    0 ROOT
