@<TRIPOS>MOLECULE
ET1
   45    47     1     0     0
SMALL
bcc


@<TRIPOS>ATOM
      1 C13         2.9670    1.0540   -1.7340 c3        1 ET1     -0.194400
      2 C17        -2.9070   -0.1860    0.0890 ca        1 ET1      0.024000
      3 C20        -3.7390    2.4010   -0.5550 ca        1 ET1     -0.208500
      4 C21        -2.9350    2.1770    0.5510 ca        1 ET1      0.024000
      5 N01        -0.0980    0.2150    1.6050 na        1 ET1     -0.274900
      6 C02         0.8710    1.1380    1.1050 cc        1 ET1     -0.129100
      7 C03         1.8890    0.4940    0.4330 cd        1 ET1     -0.040400
      8 C04         1.5930   -0.9380    0.4930 ca        1 ET1     -0.042800
      9 C05         0.3590   -1.0740    1.2300 ca        1 ET1     -0.049200
     10 C06         1.6750   -3.3160    0.2730 ca        1 ET1      0.090100
     11 C07         0.4810   -3.4520    0.9970 ca        1 ET1     -0.191000
     12 C08        -0.1890   -2.3310    1.4850 ca        1 ET1     -0.133000
     13 C09         2.2510   -2.0580    0.0130 ca        1 ET1     -0.094000
     14 O10         2.3850   -4.3860   -0.2510 os        1 ET1     -0.323900
     15 C11         1.9050   -5.6790    0.0840 c3        1 ET1      0.117700
     16 C12         3.0570    1.1020   -0.2230 c3        1 ET1     -0.025200
     17 C14         4.3170    1.4340   -2.3740 c         1 ET1      0.908600
     18 C16        -2.5070    0.8860    0.8950 ca        1 ET1     -0.420500
     19 C18        -3.7090    0.0050   -1.0300 ca        1 ET1     -0.208500
     20 C19        -4.1230    1.3050   -1.3540 ca        1 ET1      0.186100
     21 O22        -2.0770   -0.4500    2.9820 o         1 ET1     -0.654300
     22 O23        -1.4290    1.8530    2.9520 o         1 ET1     -0.654300
     23 O24         5.3770    0.9850   -1.8490 o         1 ET1     -0.845800
     24 O25         4.2890    2.1620   -3.4060 o         1 ET1     -0.845800
     25 O26        -4.9220    1.6200   -2.4290 os        1 ET1     -0.323900
     26 C27        -5.2020    0.5610   -3.3410 c3        1 ET1      0.111700
     27 H13         2.7100    0.0180   -2.0690 hc        1 ET1      0.025700
     28 H13A        2.1720    1.7470   -2.1030 hc        1 ET1      0.025700
     29 H21        -2.6220    3.0310    1.1800 ha        1 ET1      0.155000
     30 H02         0.7370    2.2040    1.3060 h4        1 ET1      0.178000
     31 H07         0.0570   -4.4460    1.1940 ha        1 ET1      0.128000
     32 H08        -1.1150   -2.4440    2.0710 ha        1 ET1      0.155000
     33 H09         3.1890   -1.9700   -0.5570 ha        1 ET1      0.183000
     34 H11         2.6500   -6.3670   -0.3910 h1        1 ET1      0.036033
     35 H11A        1.8850   -5.8250    1.1910 h1        1 ET1      0.036033
     36 H11B        0.8880   -5.8480   -0.3480 h1        1 ET1      0.036033
     37 H12         3.9950    0.5590    0.0860 hc        1 ET1      0.064700
     38 H12A        3.1650    2.1700    0.1080 hc        1 ET1      0.064700
     39 H18        -4.0000   -0.8550   -1.6490 ha        1 ET1      0.148500
     40 H27        -5.7810    1.0670   -4.1550 h1        1 ET1      0.048033
     41 H27A       -4.2560    0.1240   -3.7420 h1        1 ET1      0.048033
     42 H27B       -5.8210   -0.2250   -2.8460 h1        1 ET1      0.048033
     43 H17        -2.5760   -1.2080    0.3500 ha        1 ET1      0.155000
     44 S15        -1.5420    0.6330    2.2500 sy        1 ET1      1.514300
     45 H20        -4.0720    3.4130   -0.8270 ha        1 ET1      0.148500
@<TRIPOS>BOND
     1    1   16 1   
     2    1   17 1   
     3    1   27 1   
     4    1   28 1   
     5    2   18 ar  
     6    2   19 ar  
     7    2   43 1   
     8    3    4 ar  
     9    3   20 ar  
    10    3   45 1   
    11    4   18 ar  
    12    4   29 1   
    13    5    6 1   
    14    5    9 1   
    15    5   44 1   
    16    6    7 2   
    17    6   30 1   
    18    7    8 1   
    19    7   16 1   
    20    8    9 ar  
    21    8   13 ar  
    22    9   12 ar  
    23   10   11 ar  
    24   10   13 ar  
    25   10   14 1   
    26   11   12 ar  
    27   11   31 1   
    28   12   32 1   
    29   13   33 1   
    30   14   15 1   
    31   15   34 1   
    32   15   35 1   
    33   15   36 1   
    34   16   37 1   
    35   16   38 1   
    36   17   23 1   
    37   17   24 1   
    38   18   44 1   
    39   19   20 ar  
    40   19   39 1   
    41   20   25 1   
    42   21   44 2   
    43   22   44 2   
    44   25   26 1   
    45   26   40 1   
    46   26   41 1   
    47   26   42 1   
@<TRIPOS>SUBSTRUCTURE
     1 ET1         1 TEMP              0 ****  ****    0 ROOT
