@<TRIPOS>MOLECULE
ET1
   45    37     1     0     0
SMALL
bcc


@<TRIPOS>ATOM
      1 C13        -1.5340   -1.0650    3.2260 c3        1 ET1     -0.226000
      2 C17         0.7290   -0.8530   -3.2710 c1        1 ET1     -0.099500
      3 C20         0.4070   -3.5260   -2.6120 c1        1 ET1     -0.189000
      4 C21         1.1600   -2.6970   -1.7950 c1        1 ET1      0.012000
      5 N01         1.4980    0.1730    0.2170 n2        1 ET1     -0.689000
      6 C02         0.9390   -0.6460    1.1570 c1        1 ET1     -0.065500
      7 C03         0.2930    0.1470    2.0850 c1        1 ET1     -0.040000
      8 C04         0.4580    1.4620    1.7080 c1        1 ET1     -0.040000
      9 C05         1.2010    1.4810    0.5560 c1        1 ET1     -0.065500
     10 C06         0.3330    3.8770    1.6790 c1        1 ET1      0.057000
     11 C07         1.0860    3.8970    0.5120 c2        1 ET1     -0.150000
     12 C08         1.5210    2.7070   -0.0530 c1        1 ET1     -0.148000
     13 C09         0.0170    2.6680    2.2800 c1        1 ET1     -0.145000
     14 O10         0.1060    5.0850    2.3590 o         1 ET1     -0.235000
     15 C11        -0.9770    5.8320    1.8510 c3        1 ET1     -0.085000
     16 C12        -0.0970   -0.6010    3.3400 c2        1 ET1     -0.095000
     17 C14        -1.8770   -1.9410    4.4110 c2        1 ET1      0.326000
     18 S15         2.3330   -0.3130   -1.1120 ss        1 ET1      2.856000
     19 C16         1.3210   -1.3600   -2.1240 c1        1 ET1     -0.858000
     20 C18        -0.0240   -1.6820   -4.0870 c1        1 ET1     -0.099500
     21 C19        -0.1840   -3.0190   -3.7580 c1        1 ET1      0.136000
     22 O22         3.5590   -0.9670   -0.7470 o         1 ET1     -0.935000
     23 O23         2.8290    0.8120   -1.8570 o         1 ET1     -0.935000
     24 O24        -1.1510   -2.9300    4.6930 o         1 ET1     -0.584500
     25 O25        -2.9020   -1.6950    5.1000 o         1 ET1     -0.584500
     26 O26        -0.7760   -4.0720   -4.4750 os        1 ET1     -0.210000
     27 C27        -2.1330   -3.8570   -4.7910 c3        1 ET1     -0.078000
     28 H13        -1.6470   -1.5750    2.3990 hc        1 ET1      0.071000
     29 H13A       -2.1270   -0.2870    3.2120 hc        1 ET1      0.071000
     30 H17         0.8420    0.0890   -3.5030 ha        1 ET1      0.149000
     31 H20         0.2950   -4.4680   -2.3800 ha        1 ET1      0.151000
     32 H21         1.5950   -3.0590   -1.0000 ha        1 ET1      0.160000
     33 H02         1.0020   -1.6190    1.1800 DU        1 ET1      0.172000
     34 H07         1.3080    4.7470    0.0890 ha        1 ET1      0.135000
     35 H08         2.0740    2.7220   -0.8570 ha        1 ET1      0.147000
     36 H09        -0.5120    2.6540    3.0990 ha        1 ET1      0.232000
     37 H11        -1.4230    6.3030    2.5880 h1        1 ET1      0.096667
     38 H11A       -0.6460    6.4860    1.1980 h1        1 ET1      0.096667
     39 H11B       -1.6150    5.2280    1.4150 h1        1 ET1      0.096667
     40 H12        -0.0060   -0.0100    4.1140 ha        1 ET1      0.090500
     41 H12A        0.4880   -1.3780    3.4520 ha        1 ET1      0.090500
     42 H18        -0.4190   -1.3310   -4.9080 ha        1 ET1      0.149000
     43 H27        -2.6620   -3.8370   -3.9640 h1        1 ET1      0.086667
     44 H27A       -2.4540   -4.5840   -5.3670 h1        1 ET1      0.086667
     45 H27B       -2.2280   -3.0000   -5.2610 h1        1 ET1      0.086667
@<TRIPOS>BOND
     1    1   16 1   
     2    1   17 1   
     3    1   28 1   
     4    1   29 1   
     5    2   20 1   
     6    2   30 1   
     7    3   21 1   
     8    3   31 1   
     9    4   19 1   
    10    4   32 1   
    11    5    6 1   
    12    5    9 1   
    13    6    7 1   
    14    7    8 1   
    15    8    9 1   
    16   10   11 1   
    17   10   13 1   
    18   11   12 1   
    19   11   34 1   
    20   12   35 1   
    21   13   36 1   
    22   14   15 1   
    23   15   37 1   
    24   15   38 1   
    25   15   39 1   
    26   16   40 1   
    27   16   41 1   
    28   17   24 1   
    29   17   25 1   
    30   18   22 1   
    31   18   23 1   
    32   20   42 1   
    33   21   26 1   
    34   26   27 1   
    35   27   43 1   
    36   27   44 1   
    37   27   45 1   
@<TRIPOS>SUBSTRUCTURE
     1 ET1         1 TEMP              0 ****  ****    0 ROOT
