@<TRIPOS>MOLECULE
ET1
   45    48     1     0     0
SMALL
bcc


@<TRIPOS>ATOM
      1 C13         0.9090    1.3550   -0.0120 c3        1 ET1     -0.196400
      2 C17         1.9250   -1.0440   -6.3530 ce        1 ET1     -0.031300
      3 C20         0.3050   -2.7350   -7.9180 cf        1 ET1     -0.257000
      4 C21         0.5160   -3.0210   -6.5280 cf        1 ET1      0.106000
      5 N01         2.3380   -1.3110   -3.4910 na        1 ET1     -0.534100
      6 C02         2.4050   -1.0320   -2.0930 cc        1 ET1     -0.011000
      7 C03         2.2430    0.3070   -1.8370 cd        1 ET1     -0.047200
      8 C04         2.0610    1.0080   -3.1310 cd        1 ET1     -0.077000
      9 C05         2.1560   -0.0640   -4.1480 cd        1 ET1      0.211900
     10 C06         1.7490    3.4830   -2.6440 cx        1 ET1      0.127000
     11 C07         0.3710    3.9310   -2.1970 cx        1 ET1     -0.148900
     12 C08         2.1970   -0.0530   -5.5050 c1        1 ET1     -0.207800
     13 C09         1.8690    2.2890   -3.4940 c2        1 ET1      0.005800
     14 O10         2.8520    3.7050   -1.8240 oh        1 ET1     -0.597800
     15 C11         1.0980    4.7260   -3.2360 cx        1 ET1     -0.148900
     16 C12         2.2770    0.9210   -0.4970 c3        1 ET1     -0.023200
     17 C14         1.0300    2.4470    1.0620 c         1 ET1      0.911600
     18 C16         1.3430   -2.2600   -5.7660 ce        1 ET1     -0.421100
     19 C18         2.1120   -0.9910   -7.8230 c3        1 ET1     -0.022000
     20 C19         1.0750   -1.7940   -8.5360 c2        1 ET1      0.153900
     21 O22         3.0290   -3.5500   -4.4040 o         1 ET1     -0.649300
     22 O23         0.8430   -3.3600   -3.5420 o         1 ET1     -0.649300
     23 O24         0.7090    2.1700    2.2480 o         1 ET1     -0.847800
     24 O25         1.4270    3.6000    0.6970 o         1 ET1     -0.847800
     25 O26         0.8840   -1.6410   -9.8910 os        1 ET1     -0.326900
     26 C27         1.6880   -0.6640  -10.5460 c3        1 ET1      0.110700
     27 H13         0.3530    0.4800    0.4060 hc        1 ET1      0.032700
     28 H13A        0.3160    1.7750   -0.8640 hc        1 ET1      0.032700
     29 H21         0.0140   -3.9120   -6.1100 ha        1 ET1      0.146000
     30 H02         2.5720   -1.8540   -1.3920 h4        1 ET1      0.175000
     31 H07        -0.5060    3.3320   -2.4940 hc        1 ET1      0.082950
     32 H08         0.2920    4.3130   -1.1550 hc        1 ET1      0.082950
     33 H09         1.7640    2.4990   -4.5790 ha        1 ET1      0.135000
     34 H11         2.5240    3.7560   -0.8990 ho        1 ET1      0.480000
     35 H11A        1.5200    5.7070   -2.9580 hc        1 ET1      0.082950
     36 H11B        0.7460    4.6980   -4.2810 hc        1 ET1      0.082950
     37 H12         2.9660    1.8100   -0.5200 hc        1 ET1      0.062200
     38 H12A        2.7110    0.1880    0.2360 hc        1 ET1      0.062200
     39 H18         2.0740    0.0820   -8.1580 hc        1 ET1      0.083700
     40 H27         1.4110    0.3620  -10.2040 h1        1 ET1      0.048700
     41 H27A        2.7740   -0.8580  -10.3740 h1        1 ET1      0.048700
     42 H27B        1.4290   -0.8010  -11.6270 h1        1 ET1      0.048700
     43 H17         3.1290   -1.3940   -8.0940 hc        1 ET1      0.083700
     44 S15         1.8970   -2.7340   -4.2330 sy        1 ET1      1.496800
     45 H20        -0.4500   -3.3070   -8.4730 ha        1 ET1      0.150000
@<TRIPOS>BOND
     1    1   16 1   
     2    1   17 1   
     3    1   27 1   
     4    1   28 1   
     5    2   12 2   
     6    2   18 1   
     7    2   19 1   
     8    3    4 1   
     9    3   20 2   
    10    3   45 1   
    11    4   18 2   
    12    4   29 1   
    13    5    6 1   
    14    5    9 1   
    15    5   44 1   
    16    6    7 2   
    17    6   30 1   
    18    7    8 1   
    19    7   16 1   
    20    8    9 1   
    21    8   13 2   
    22    9   12 2   
    23   10   11 1   
    24   10   13 1   
    25   10   14 1   
    26   10   15 1   
    27   11   15 1   
    28   11   31 1   
    29   11   32 1   
    30   13   33 1   
    31   14   34 1   
    32   15   35 1   
    33   15   36 1   
    34   16   37 1   
    35   16   38 1   
    36   17   23 1   
    37   17   24 1   
    38   18   44 1   
    39   19   20 1   
    40   19   39 1   
    41   19   43 1   
    42   20   25 1   
    43   21   44 2   
    44   22   44 2   
    45   25   26 1   
    46   26   40 1   
    47   26   41 1   
    48   26   42 1   
@<TRIPOS>SUBSTRUCTURE
     1 ET1         1 TEMP              0 ****  ****    0 ROOT
