@<TRIPOS>MOLECULE
ET2
   17    18     1     0     0
SMALL
bcc


@<TRIPOS>ATOM
      1 NAA        -0.1350   -0.1960    0.3240 nh        1 ET2     -0.280000
      2 CAC         5.8610    0.1450    0.6300 c3        1 ET2     -0.208000
      3 CAD         4.7600    0.1310   -0.3320 c1        1 ET2     -0.023000
      4 CAE         4.2690   -0.0550    2.5760 c2        1 ET2     -0.218000
      5 NAF         1.8540   -0.1570    1.7840 na        1 ET2     -0.179000
      6 NAG         2.2350   -0.0110   -0.4940 n2        1 ET2     -0.062000
      7 CAH         5.5450    0.0470    2.0950 c2        1 ET2      0.103000
      8 CAI         1.2780   -0.1200    0.4630 c2        1 ET2     -0.001000
      9 CAJ         3.2110   -0.0670    1.6140 c2        1 ET2      0.040000
     10 CAK         3.4610    0.0250    0.1860 c2        1 ET2     -0.193000
     11 HNAA       -0.3810   -1.0110   -0.2070 hn        1 ET2      0.183000
     12 HNAB       -0.4760    0.6290   -0.1340 hn        1 ET2      0.183000
     13 HAC         6.4450    1.0960    0.4480 hc        1 ET2      0.167000
     14 HAD         6.5530   -0.7050    0.3510 hc        1 ET2      0.167000
     15 HAE         4.0510   -0.1270    3.6500 ha        1 ET2      0.154000
     16 HNAF        1.3510   -0.2320    2.6300 hn        1 ET2      0.266000
     17 FAB         6.5990    0.0640    2.9390 f         1 ET2     -0.099000
@<TRIPOS>BOND
     1    1    8 1   
     2    1   11 1   
     3    1   12 1   
     4    2    3 1   
     5    2    7 1   
     6    2   13 1   
     7    2   14 1   
     8    3   10 1   
     9    4    7 1   
    10    4    9 1   
    11    4   15 1   
    12    5    8 1   
    13    5    9 1   
    14    5   16 1   
    15    6    8 1   
    16    6   10 1   
    17    7   17 1   
    18    9   10 1   
@<TRIPOS>SUBSTRUCTURE
     1 ET2         1 TEMP              0 ****  ****    0 ROOT
