@<TRIPOS>MOLECULE
ET2
   17    17     1     0     0
SMALL
bcc


@<TRIPOS>ATOM
      1 NAA        -0.1370   -0.1390    0.3300 nv        1 ET2     -0.298000
      2 CAC         6.1720    0.6270    1.0750 c2        1 ET2     -0.281000
      3 CAD         4.6130    0.1450   -0.6050 c1        1 ET2      0.258000
      4 CAE         4.2790   -0.2390    2.4250 c2        1 ET2     -0.247000
      5 NAF         1.8850   -0.2630    1.7670 na        1 ET2     -0.257000
      6 NAG         2.1430   -0.1140   -0.5690 n2        1 ET2     -0.155000
      7 CAH         5.6710   -0.2440    1.9850 c2        1 ET2      0.131000
      8 CAI         1.2630   -0.1800    0.4460 c2        1 ET2      0.113000
      9 CAJ         3.2800   -0.1370    1.5210 c2        1 ET2      0.085000
     10 CAK         3.4420   -0.0270    0.0340 c2        1 ET2     -0.351000
     11 HNAA       -0.6070   -0.7320    0.9820 hn        1 ET2      0.206000
     12 HNAB       -0.4550   -0.2670   -0.6100 hn        1 ET2      0.206000
     13 HAC         5.6220    1.5330    0.7760 ha        1 ET2      0.151500
     14 HAD         7.1970    0.5430    0.6950 ha        1 ET2      0.151500
     15 HAE         4.0950   -0.3990    3.4970 ha        1 ET2      0.164000
     16 HNAF        1.4870    0.2700    2.5070 hn        1 ET2      0.226000
     17 FAB         6.4470   -1.2200    2.5210 f         1 ET2     -0.102000
@<TRIPOS>BOND
     1    1    8 1   
     2    1   11 1   
     3    1   12 1   
     4    2    7 1   
     5    2   13 1   
     6    2   14 1   
     7    3   10 1   
     8    4    7 1   
     9    4    9 1   
    10    4   15 1   
    11    5    8 1   
    12    5    9 1   
    13    5   16 1   
    14    6    8 1   
    15    6   10 1   
    16    7   17 1   
    17    9   10 1   
@<TRIPOS>SUBSTRUCTURE
     1 ET2         1 TEMP              0 ****  ****    0 ROOT
