@<TRIPOS>MOLECULE
ET2
   17    18     1     0     0
SMALL
bcc


@<TRIPOS>ATOM
      1 NAA         3.7600    0.3690   -0.1690 nh        1 ET2     -0.852800
      2 CAC        -1.9790   -1.1690    0.0180 ca        1 ET2     -0.178000
      3 CAD        -0.7020   -1.7080    0.0080 ca        1 ET2     -0.058000
      4 CAE        -1.1140    1.1390    0.0050 ca        1 ET2     -0.169000
      5 NAF         1.4340    1.2000    0.0330 na        1 ET2     -0.288300
      6 NAG         1.7780   -1.1060   -0.0160 nc        1 ET2     -0.601100
      7 CAH        -2.1840    0.2320    0.0160 ca        1 ET2      0.130900
      8 CAI         2.3790    0.1180   -0.0400 cd        1 ET2      0.579700
      9 CAJ         0.1690    0.5960   -0.0080 ca        1 ET2     -0.060200
     10 CAK         0.3950   -0.8390   -0.0080 ca        1 ET2      0.076400
     11 HNAA        4.0860    1.0730    0.4620 hn        1 ET2      0.402800
     12 HNAB        4.3010   -0.4710   -0.1060 hn        1 ET2      0.402800
     13 HAC        -2.8590   -1.8300    0.0280 ha        1 ET2      0.150000
     14 HAD        -0.5490   -2.7970    0.0130 ha        1 ET2      0.154000
     15 HAE        -1.2940    2.2210    0.0090 ha        1 ET2      0.152000
     16 HNAF        1.6200    2.1210   -0.2680 hn        1 ET2      0.302700
     17 FAB        -3.4530    0.7090    0.0230 f         1 ET2     -0.142900
@<TRIPOS>BOND
     1    1    8 1   
     2    1   11 1   
     3    1   12 1   
     4    2    3 ar  
     5    2    7 ar  
     6    2   13 1   
     7    3   10 ar  
     8    3   14 1   
     9    4    7 ar  
    10    4    9 ar  
    11    4   15 1   
    12    5    8 1   
    13    5    9 1   
    14    5   16 1   
    15    6    8 2   
    16    6   10 1   
    17    7   17 1   
    18    9   10 ar  
@<TRIPOS>SUBSTRUCTURE
     1 ET2         1 TEMP              0 ****  ****    0 ROOT
