@<TRIPOS>MOLECULE
ET2
   17    14     1     0     0
SMALL
bcc


@<TRIPOS>ATOM
      1 NAA        -3.2570   -0.0000   -1.1130 nh        1 ET2     -0.439100
      2 FAB         3.2330    0.0010    2.1140 f         1 ET2     -0.108100
      3 CAC         2.5940   -0.0000   -0.1500 c1        1 ET2     -0.058000
      4 CAD         1.5970   -0.0000   -1.1130 c1        1 ET2     -0.058000
      5 CAE         0.9270   -0.0000    1.5770 c1        1 ET2     -0.118500
      6 NAF        -1.4390   -0.0000    0.6930 ne        1 ET2     -0.626700
      7 NAG        -0.9070   -0.0000   -1.4420 ne        1 ET2     -0.626700
      8 CAH         2.2600   -0.0000    1.1940 c1        1 ET2      0.109100
      9 CAI        -1.9480   -0.0000   -0.5670 ce        1 ET2      0.557300
     10 CAJ        -0.0860   -0.0000    0.5990 c1        1 ET2      0.176400
     11 CAK         0.2440   -0.0000   -0.7250 c1        1 ET2      0.176400
     12 HNAA       -3.6770    0.7900   -1.2890 hn        1 ET2      0.232700
     13 HNAB       -3.6770   -0.7900   -1.2890 hn        1 ET2      0.232700
     14 HAC         3.5330   -0.0000   -0.4200 ha        1 ET2      0.094500
     15 HAD         1.8330   -0.0000   -2.0600 ha        1 ET2      0.094500
     16 HAE         0.6920   -0.0000    2.5240 ha        1 ET2      0.095500
     17 HNAF       -1.9220   -0.0000    1.4660 DU        1 ET2      0.266000
@<TRIPOS>BOND
     1    1    9 2   
     2    1   12 1   
     3    1   13 1   
     4    2    8 1   
     5    3    4 3   
     6    3   14 1   
     7    4   15 1   
     8    5    8 3   
     9    5   16 1   
    10    6    9 1   
    11    6   10 2   
    12    7    9 1   
    13    7   11 2   
    14   10   11 2   
@<TRIPOS>SUBSTRUCTURE
     1 ET2         1 TEMP              0 ****  ****    0 ROOT
