@<TRIPOS>MOLECULE
ET2
   18    19     1     0     0
SMALL
bcc


@<TRIPOS>ATOM
      1 NAA         0.0530   -0.7040    0.3600 n3        1 ET2     -0.365000
      2 CAC         5.7780    0.2200    0.5640 c3        1 ET2     -0.287000
      3 CAD         4.6600    0.4220   -0.3350 c1        1 ET2      0.144000
      4 CAE         4.2570   -0.2290    2.5470 c2        1 ET2     -0.301000
      5 NAF         1.8280   -0.0830    1.9470 n3        1 ET2     -0.208000
      6 NAG         2.1750    0.4390   -0.3840 n2        1 ET2      0.043000
      7 CAH         5.5180   -0.1030    2.0080 c2        1 ET2      0.243000
      8 CAI         1.0730    0.2490    0.6320 c3        1 ET2      0.105000
      9 CAJ         3.1310   -0.0480    1.7050 c2        1 ET2      0.160000
     10 CAK         3.3240    0.2930    0.2200 c2        1 ET2     -0.118000
     11 HNAA        0.6170    1.2840    0.8040 h3        1 ET2      0.196000
     12 HNAB        0.3270   -1.5200   -0.1430 hn        1 ET2      0.230000
     13 HAC         6.4310    1.1520    0.4930 hc        1 ET2      0.226000
     14 HAD         6.4270   -0.5970    0.1020 hc        1 ET2      0.226000
     15 HAE         4.1220   -0.4690    3.6170 ha        1 ET2      0.200000
     16 HNAF        1.3540   -0.3340    2.7870 hn        1 ET2      0.306000
     17 HAA3       -0.7980   -0.2960    0.0360 hn        1 ET2      0.230000
     18 FAB         6.5980   -0.2700    2.7770 f         1 ET2     -0.029000
@<TRIPOS>BOND
     1    1    8 1   
     2    1   12 1   
     3    1   17 1   
     4    2    3 1   
     5    2    7 1   
     6    2   13 1   
     7    2   14 1   
     8    3   10 1   
     9    4    7 1   
    10    4    9 1   
    11    4   15 1   
    12    5    8 1   
    13    5    9 1   
    14    5   16 1   
    15    6    8 1   
    16    6   10 1   
    17    7   18 1   
    18    8   11 1   
    19    9   10 1   
@<TRIPOS>SUBSTRUCTURE
     1 ET2         1 TEMP              0 ****  ****    0 ROOT
