@<TRIPOS>MOLECULE
ETA
   11    10     1     0     0
SMALL
bcc


@<TRIPOS>ATOM
      1 CA         -0.6400    0.5500   -0.2720 c3        1 ETA      0.113800
      2 N          -1.3000   -0.6570    0.1610 n3        1 ETA     -0.925800
      3 CB          0.7380    0.7430    0.3750 c3        1 ETA      0.135400
      4 O           1.6970   -0.1620   -0.1280 oh        1 ETA     -0.601800
      5 HA1        -0.4960    0.4820   -1.3880 h1        1 ETA      0.036700
      6 HA2        -1.2460    1.4810   -0.0630 h1        1 ETA      0.036700
      7 HN1        -1.4970   -0.6290    1.1410 hn        1 ETA      0.352300
      8 HN2        -2.1510   -0.7960   -0.3450 hn        1 ETA      0.352300
      9 HB1         1.1360    1.7580    0.1070 h1        1 ETA      0.042200
     10 HB2         0.6730    0.6520    1.4930 h1        1 ETA      0.042200
     11 HO          1.3440   -1.0530   -0.0170 ho        1 ETA      0.414000
@<TRIPOS>BOND
     1    1    2 1   
     2    1    3 1   
     3    1    5 1   
     4    1    6 1   
     5    2    7 1   
     6    2    8 1   
     7    3    4 1   
     8    3    9 1   
     9    3   10 1   
    10    4   11 1   
@<TRIPOS>SUBSTRUCTURE
     1 ETA         1 TEMP              0 ****  ****    0 ROOT
