@<TRIPOS>MOLECULE
ETC
   48    51     1     0     0
SMALL
bcc


@<TRIPOS>ATOM
      1 C22        -0.0420   -0.4950    0.2010 c3        1 ETC     -0.094100
      2 C21         1.4100   -0.0980    0.1310 c3        1 ETC     -0.082400
      3 C11         2.0180    0.1080    1.5170 c3        1 ETC     -0.019500
      4 C12         1.6840    1.4900    2.0690 c3        1 ETC     -0.037100
      5 C9          3.5000   -0.1130    1.4800 ce        1 ETC     -0.044400
      6 C8          4.3600    0.9220    1.2930 cf        1 ETC     -0.044400
      7 C14         3.8610    2.2820    1.1180 ca        1 ETC     -0.077800
      8 C15         4.6540    3.3100    0.5870 ca        1 ETC     -0.087000
      9 C16         4.1570    4.5990    0.4390 ca        1 ETC     -0.162000
     10 C17         2.8360    4.8700    0.8300 ca        1 ETC      0.128100
     11 O25         2.3980    6.1640    0.6660 oh        1 ETC     -0.497100
     12 C18         2.0210    3.8580    1.3550 ca        1 ETC     -0.215000
     13 C13         2.5320    2.5670    1.4930 ca        1 ETC     -0.026300
     14 C10         4.0000   -1.4720    1.6630 ca        1 ETC     -0.077800
     15 C5          5.3580   -1.6530    1.9960 ca        1 ETC     -0.026300
     16 C6          6.2370   -0.4660    2.1690 c3        1 ETC     -0.037100
     17 C7          5.8430    0.7030    1.2730 c3        1 ETC     -0.019500
     18 C20         6.3350    0.4960   -0.1590 c3        1 ETC     -0.082400
     19 C19         7.7840    0.8790   -0.3220 c3        1 ETC     -0.094100
     20 C4          5.8710   -2.9350    2.1940 ca        1 ETC     -0.215000
     21 C3          5.0300   -4.0450    2.0490 ca        1 ETC      0.128100
     22 O23         5.4680   -5.3370    2.2270 oh        1 ETC     -0.497100
     23 C2          3.6780   -3.8820    1.7030 ca        1 ETC     -0.162000
     24 C1          3.1800   -2.5990    1.5140 ca        1 ETC     -0.087000
     25 H221       -0.4590   -0.6080   -0.8280 hc        1 ETC      0.032700
     26 H222       -0.6430    0.2770    0.7410 hc        1 ETC      0.032700
     27 H223       -0.1590   -1.4680    0.7380 hc        1 ETC      0.032700
     28 H211        1.5200    0.8480   -0.4630 hc        1 ETC      0.051200
     29 H212        1.9850   -0.8960   -0.4100 hc        1 ETC      0.051200
     30 H11         1.5610   -0.6450    2.2230 hc        1 ETC      0.059700
     31 H121        1.8370    1.4840    3.1840 hc        1 ETC      0.056200
     32 H122        0.5990    1.7070    1.8810 hc        1 ETC      0.056200
     33 H15         5.6880    3.0990    0.2700 ha        1 ETC      0.139000
     34 H16         4.7760    5.4050    0.0230 ha        1 ETC      0.150000
     35 H25         1.4800    6.2100    0.9710 ho        1 ETC      0.419000
     36 H18         0.9870    4.0790    1.6540 ha        1 ETC      0.134000
     37 HC61        7.3060   -0.7400    1.9640 hc        1 ETC      0.056200
     38 HC62        6.1740   -0.1390    3.2440 hc        1 ETC      0.056200
     39 HC7         6.3460    1.6220    1.6940 hc        1 ETC      0.059700
     40 H201        5.7100    1.1130   -0.8570 hc        1 ETC      0.051200
     41 H202        6.1900   -0.5790   -0.4460 hc        1 ETC      0.051200
     42 H191        8.1160    0.6880   -1.3710 hc        1 ETC      0.032700
     43 H192        8.4350    0.2880    0.3660 hc        1 ETC      0.032700
     44 H193        7.9320    1.9640   -0.0980 hc        1 ETC      0.032700
     45 HC4         6.9290   -3.0730    2.4600 ha        1 ETC      0.134000
     46 H23         6.4070   -5.3040    2.4580 ho        1 ETC      0.419000
     47 HC2         3.0370   -4.7670    1.5870 ha        1 ETC      0.150000
     48 HC1         2.1210   -2.4760    1.2340 ha        1 ETC      0.139000
@<TRIPOS>BOND
     1    1    2 1   
     2    1   25 1   
     3    1   26 1   
     4    1   27 1   
     5    2    3 1   
     6    2   28 1   
     7    2   29 1   
     8    3    4 1   
     9    3    5 1   
    10    3   30 1   
    11    4   13 1   
    12    4   31 1   
    13    4   32 1   
    14    5    6 2   
    15    5   14 1   
    16    6    7 1   
    17    6   17 1   
    18    7    8 ar  
    19    7   13 ar  
    20    8    9 ar  
    21    8   33 1   
    22    9   10 ar  
    23    9   34 1   
    24   10   11 1   
    25   10   12 ar  
    26   11   35 1   
    27   12   13 ar  
    28   12   36 1   
    29   14   15 ar  
    30   14   24 ar  
    31   15   16 1   
    32   15   20 ar  
    33   16   17 1   
    34   16   37 1   
    35   16   38 1   
    36   17   18 1   
    37   17   39 1   
    38   18   19 1   
    39   18   40 1   
    40   18   41 1   
    41   19   42 1   
    42   19   43 1   
    43   19   44 1   
    44   20   21 ar  
    45   20   45 1   
    46   21   22 1   
    47   21   23 ar  
    48   22   46 1   
    49   23   24 ar  
    50   23   47 1   
    51   24   48 1   
@<TRIPOS>SUBSTRUCTURE
     1 ETC         1 TEMP              0 ****  ****    0 ROOT
