@<TRIPOS>MOLECULE
ETC
   48    51     1     0     0
SMALL
bcc


@<TRIPOS>ATOM
      1 C22        -0.0430   -0.4920    0.1980 c3        1 ETC     -0.094100
      2 C21         1.4090   -0.0960    0.1260 c3        1 ETC     -0.082400
      3 C11         2.0170    0.1100    1.5120 c3        1 ETC     -0.019500
      4 C12         1.6850    1.4920    2.0640 c3        1 ETC     -0.037100
      5 C9          3.4990   -0.1140    1.4750 ce        1 ETC     -0.044400
      6 C8          4.3600    0.9210    1.2870 cf        1 ETC     -0.044400
      7 C14         3.8620    2.2810    1.1120 ca        1 ETC     -0.077800
      8 C15         4.6560    3.3080    0.5800 ca        1 ETC     -0.087000
      9 C16         4.1600    4.5980    0.4330 ca        1 ETC     -0.162000
     10 C17         2.8390    4.8700    0.8240 ca        1 ETC      0.128100
     11 O25         2.4030    6.1650    0.6590 oh        1 ETC     -0.497100
     12 C18         2.0240    3.8600    1.3500 ca        1 ETC     -0.215000
     13 C13         2.5340    2.5680    1.4880 ca        1 ETC     -0.026300
     14 C10         3.9980   -1.4720    1.6580 ca        1 ETC     -0.077800
     15 C5          5.3560   -1.6550    1.9910 ca        1 ETC     -0.026300
     16 C6          6.2360   -0.4690    2.1630 c3        1 ETC     -0.037100
     17 C7          5.8430    0.7010    1.2670 c3        1 ETC     -0.019500
     18 C20         6.3350    0.4920   -0.1650 c3        1 ETC     -0.082400
     19 C19         7.7830    0.8750   -0.3280 c3        1 ETC     -0.094100
     20 C4          5.8680   -2.9380    2.1890 ca        1 ETC     -0.215000
     21 C3          5.0250   -4.0470    2.0430 ca        1 ETC      0.128100
     22 O23         5.4620   -5.3400    2.2220 oh        1 ETC     -0.497100
     23 C2          3.6740   -3.8830    1.6990 ca        1 ETC     -0.162000
     24 C1          3.1760   -2.5990    1.5100 ca        1 ETC     -0.087000
     25 H221       -0.4620   -0.6050   -0.8320 hc        1 ETC      0.032700
     26 H222       -0.6430    0.2800    0.7370 hc        1 ETC      0.032700
     27 H223       -0.1620   -1.4650    0.7350 hc        1 ETC      0.032700
     28 H211        1.9830   -0.8960   -0.4140 hc        1 ETC      0.051200
     29 H212        1.5190    0.8490   -0.4680 hc        1 ETC      0.051200
     30 H11         1.5600   -0.6430    2.2190 hc        1 ETC      0.059700
     31 H121        1.8380    1.4860    3.1790 hc        1 ETC      0.056200
     32 H122        0.6000    1.7100    1.8760 hc        1 ETC      0.056200
     33 H15         5.6900    3.0960    0.2630 ha        1 ETC      0.139000
     34 H16         4.7800    5.4030    0.0160 ha        1 ETC      0.150000
     35 H25         1.4850    6.2110    0.9650 ho        1 ETC      0.419000
     36 H18         0.9900    4.0810    1.6490 ha        1 ETC      0.134000
     37 HC61        6.1740   -0.1410    3.2380 hc        1 ETC      0.056200
     38 HC62        7.3050   -0.7440    1.9580 hc        1 ETC      0.056200
     39 HC7         6.3470    1.6190    1.6870 hc        1 ETC      0.059700
     40 H201        6.1880   -0.5820   -0.4520 hc        1 ETC      0.051200
     41 H202        5.7090    1.1100   -0.8640 hc        1 ETC      0.051200
     42 H191        7.9330    1.9590   -0.1050 hc        1 ETC      0.032700
     43 H192        8.1150    0.6820   -1.3770 hc        1 ETC      0.032700
     44 H193        8.4340    0.2830    0.3590 hc        1 ETC      0.032700
     45 HC4         6.9260   -3.0760    2.4540 ha        1 ETC      0.134000
     46 H23         6.4020   -5.3070    2.4530 ho        1 ETC      0.419000
     47 HC2         3.0320   -4.7660    1.5830 ha        1 ETC      0.150000
     48 HC1         2.1180   -2.4750    1.2300 ha        1 ETC      0.139000
@<TRIPOS>BOND
     1    1    2 1   
     2    1   25 1   
     3    1   26 1   
     4    1   27 1   
     5    2    3 1   
     6    2   28 1   
     7    2   29 1   
     8    3    4 1   
     9    3    5 1   
    10    3   30 1   
    11    4   13 1   
    12    4   31 1   
    13    4   32 1   
    14    5    6 2   
    15    5   14 1   
    16    6    7 1   
    17    6   17 1   
    18    7    8 ar  
    19    7   13 ar  
    20    8    9 ar  
    21    8   33 1   
    22    9   10 ar  
    23    9   34 1   
    24   10   11 1   
    25   10   12 ar  
    26   11   35 1   
    27   12   13 ar  
    28   12   36 1   
    29   14   15 ar  
    30   14   24 ar  
    31   15   16 1   
    32   15   20 ar  
    33   16   17 1   
    34   16   37 1   
    35   16   38 1   
    36   17   18 1   
    37   17   39 1   
    38   18   19 1   
    39   18   40 1   
    40   18   41 1   
    41   19   42 1   
    42   19   43 1   
    43   19   44 1   
    44   20   21 ar  
    45   20   45 1   
    46   21   22 1   
    47   21   23 ar  
    48   22   46 1   
    49   23   24 ar  
    50   23   47 1   
    51   24   48 1   
@<TRIPOS>SUBSTRUCTURE
     1 ETC         1 TEMP              0 ****  ****    0 ROOT
