@<TRIPOS>MOLECULE
ETC
   48    46     1     0     0
SMALL
bcc


@<TRIPOS>ATOM
      1 C22        -4.0300   -1.0180   -1.4460 c3        1 ETC     -0.212000
      2 C21        -2.6010   -0.4500   -1.4840 c3        1 ETC     -0.161000
      3 C11        -2.0050   -0.4290   -0.0260 c3        1 ETC     -0.063000
      4 C12        -2.4890    0.8000    0.7190 c3        1 ETC     -0.123000
      5 C9         -0.4440   -0.5850   -0.0730 c2        1 ETC     -0.052000
      6 C8          0.4200    0.5790    0.1910 c1        1 ETC     -0.052000
      7 C14        -0.2150    1.9690    0.4850 c1        1 ETC     -0.066000
      8 C15         0.6050    3.1100    0.5610 c1        1 ETC     -0.087000
      9 C16         0.0470    4.3560    0.8800 c1        1 ETC     -0.162000
     10 C17        -1.3270    4.4660    1.1230 c1        1 ETC      0.083000
     11 O25        -1.8340    5.7610    1.1690 o         1 ETC     -0.251000
     12 C18        -2.1530    3.3170    1.0460 c2        1 ETC     -0.215000
     13 C13        -1.5960    2.0760    0.7280 c2        1 ETC     -0.019000
     14 C10         0.1690   -2.0130   -0.1360 c2        1 ETC     -0.066000
     15 C5          1.4640   -2.2510    0.3680 c2        1 ETC     -0.019000
     16 C6          2.3470   -1.0630    0.8390 c3        1 ETC     -0.123000
     17 C7          1.9500    0.3780    0.4260 c3        1 ETC     -0.063000
     18 C20         2.7830    0.8570   -0.8250 c3        1 ETC     -0.161000
     19 C19         4.1920    1.2470   -0.3820 c3        1 ETC     -0.212000
     20 C4          2.0020   -3.5410    0.3250 c1        1 ETC     -0.215000
     21 C3          1.2520   -4.5970   -0.2210 c1        1 ETC      0.083000
     22 O23         1.9730   -5.8120   -0.3820 oh        1 ETC     -0.251000
     23 C2         -0.0330   -4.3590   -0.7220 c1        1 ETC     -0.162000
     24 C1         -0.5750   -3.0670   -0.6800 c1        1 ETC     -0.087000
     25 H221       -4.1450   -1.5670   -0.6250 hc        1 ETC      0.072000
     26 H222       -4.6880   -0.2670   -1.4390 hc        1 ETC      0.072000
     27 H223       -4.1820   -1.5810   -2.2430 hc        1 ETC      0.072000
     28 H211       -2.0390   -1.0160   -2.0620 hc        1 ETC      0.090500
     29 H212       -2.6220    0.4760   -1.8470 hc        1 ETC      0.090500
     30 H11        -2.4140   -1.2370    0.3500 hc        1 ETC      0.099000
     31 H121       -2.6380    0.5400    1.6480 hc        1 ETC      0.095500
     32 H122       -3.3550    1.0510    0.3380 hc        1 ETC      0.095500
     33 H15         1.5670    3.0330    0.3910 ha        1 ETC      0.139000
     34 H16         0.6390    5.1370    1.0330 ha        1 ETC      0.150000
     35 H25        -2.1580    5.9240    1.9820 ho        1 ETC      0.218000
     36 H18        -3.1090    3.3930    1.2140 ha        1 ETC      0.134000
     37 HC61        3.2550   -1.2230    0.5070 hc        1 ETC      0.095500
     38 HC62        2.3800   -1.0910    1.8230 hc        1 ETC      0.095500
     39 HC7         2.2610    1.0080    1.1000 hc        1 ETC      0.099000
     40 H201        2.3460    1.6260   -1.2310 hc        1 ETC      0.090500
     41 H202        2.8380    0.1160   -1.4910 hc        1 ETC      0.090500
     42 H191        4.2020    1.3890    0.5920 hc        1 ETC      0.072000
     43 H192        4.8120    0.5370   -0.6110 hc        1 ETC      0.072000
     44 H193        4.4570    2.0680   -0.8310 hc        1 ETC      0.072000
     45 HC4         2.8900   -3.7210    0.7260 ha        1 ETC      0.134000
     46 H23         1.8290   -6.3390    0.3240 ho        1 ETC      0.218000
     47 HC2        -0.5480   -5.0870   -1.0980 ha        1 ETC      0.150000
     48 HC1        -1.4790   -2.9000   -1.0320 ha        1 ETC      0.139000
@<TRIPOS>BOND
     1    1    2 1   
     2    1   25 1   
     3    1   26 1   
     4    1   27 1   
     5    2    3 1   
     6    2   28 1   
     7    2   29 1   
     8    3    4 1   
     9    3    5 1   
    10    3   30 1   
    11    4   13 1   
    12    4   31 1   
    13    4   32 1   
    14    5    6 1   
    15    5   14 1   
    16    6   17 1   
    17    7    8 1   
    18    7   13 1   
    19    8   33 1   
    20    9   10 1   
    21    9   34 1   
    22   10   12 1   
    23   11   35 1   
    24   12   13 1   
    25   12   36 1   
    26   14   15 1   
    27   14   24 1   
    28   15   16 1   
    29   15   20 1   
    30   16   17 1   
    31   16   37 1   
    32   16   38 1   
    33   17   18 1   
    34   17   39 1   
    35   18   19 1   
    36   18   40 1   
    37   18   41 1   
    38   19   42 1   
    39   19   43 1   
    40   19   44 1   
    41   20   45 1   
    42   21   22 1   
    43   21   23 1   
    44   22   46 1   
    45   23   47 1   
    46   24   48 1   
@<TRIPOS>SUBSTRUCTURE
     1 ETC         1 TEMP              0 ****  ****    0 ROOT
