@<TRIPOS>MOLECULE
ETC
   48    51     1     0     0
SMALL
bcc


@<TRIPOS>ATOM
      1 C22         0.7730    3.8700   -1.2930 c3        1 ETC     -0.093600
      2 C21         0.6210    2.3710   -1.2480 c3        1 ETC     -0.081900
      3 C11         0.4000    1.8580    0.1740 c3        1 ETC     -0.020000
      4 C12         1.7190    1.7300    0.9280 c3        1 ETC     -0.037100
      5 C9         -0.3380    0.5530    0.1540 ce        1 ETC     -0.044400
      6 C8          0.3290   -0.6310    0.1650 cf        1 ETC     -0.044400
      7 C14         1.7880   -0.6620    0.1910 ca        1 ETC     -0.077800
      8 C15         2.5190   -1.8120   -0.1420 ca        1 ETC     -0.083500
      9 C16         3.9080   -1.8190   -0.1000 ca        1 ETC     -0.190500
     10 C17         4.5840   -0.6490    0.2830 ca        1 ETC      0.128100
     11 O25         5.9590   -0.7150    0.3110 oh        1 ETC     -0.497100
     12 C18         3.8770    0.5130    0.6120 ca        1 ETC     -0.187500
     13 C13         2.4820    0.5070    0.5600 ca        1 ETC     -0.028800
     14 C10        -1.7970    0.5850    0.1350 ca        1 ETC     -0.077800
     15 C5         -2.5040   -0.5870    0.4840 ca        1 ETC     -0.028800
     16 C6         -1.7500   -1.8070    0.8770 c3        1 ETC     -0.037100
     17 C7         -0.4090   -1.9360    0.1630 c3        1 ETC     -0.020000
     18 C20        -0.5860   -2.4510   -1.2640 c3        1 ETC     -0.081900
     19 C19        -0.7370   -3.9490   -1.3120 c3        1 ETC     -0.093600
     20 C4         -3.8970   -0.5980    0.4920 ca        1 ETC     -0.187500
     21 C3         -4.5950    0.5670    0.1380 ca        1 ETC      0.128100
     22 O23        -5.9690    0.4910    0.1650 oh        1 ETC     -0.497100
     23 C2         -3.9080    1.7340   -0.2230 ca        1 ETC     -0.190500
     24 C1         -2.5160    1.7320   -0.2220 ca        1 ETC     -0.083500
     25 H221        1.6290    4.2050   -0.6580 hc        1 ETC      0.032533
     26 H222        0.9610    4.2050   -2.3410 hc        1 ETC      0.032533
     27 H223       -0.1540    4.3720   -0.9230 hc        1 ETC      0.032533
     28 H211       -0.2510    2.0700   -1.8890 hc        1 ETC      0.050950
     29 H212        1.5330    1.8810   -1.6790 hc        1 ETC      0.050950
     30 H11        -0.2250    2.6140    0.7340 hc        1 ETC      0.059200
     31 H121        2.3390    2.6460    0.7390 hc        1 ETC      0.056950
     32 H122        1.5060    1.6890    2.0320 hc        1 ETC      0.056950
     33 H15         1.9910   -2.7290   -0.4530 ha        1 ETC      0.139000
     34 H16         4.4820   -2.7180   -0.3610 ha        1 ETC      0.141500
     35 H25         6.2930    0.1500    0.5890 ho        1 ETC      0.418500
     36 H18         4.4150    1.4250    0.9060 ha        1 ETC      0.141500
     37 HC61       -1.5710   -1.7640    1.9870 hc        1 ETC      0.056950
     38 HC62       -2.3640   -2.7250    0.6720 hc        1 ETC      0.056950
     39 HC7         0.1980   -2.6910    0.7420 hc        1 ETC      0.059200
     40 H201       -1.4860   -1.9610   -1.7230 hc        1 ETC      0.050950
     41 H202        0.3040   -2.1500   -1.8790 hc        1 ETC      0.050950
     42 H191       -1.6120   -4.2840   -0.7030 hc        1 ETC      0.032533
     43 H192       -0.8930   -4.2860   -2.3650 hc        1 ETC      0.032533
     44 H193        0.1780   -4.4510   -0.9130 hc        1 ETC      0.032533
     45 HC4        -4.4570   -1.5030    0.7670 ha        1 ETC      0.141500
     46 H23        -6.3200    1.3530   -0.1020 ho        1 ETC      0.418500
     47 HC2        -4.4620    2.6390   -0.5060 ha        1 ETC      0.141500
     48 HC1        -1.9820    2.6500   -0.5160 ha        1 ETC      0.139000
@<TRIPOS>BOND
     1    1    2 1   
     2    1   25 1   
     3    1   26 1   
     4    1   27 1   
     5    2    3 1   
     6    2   28 1   
     7    2   29 1   
     8    3    4 1   
     9    3    5 1   
    10    3   30 1   
    11    4   13 1   
    12    4   31 1   
    13    4   32 1   
    14    5    6 2   
    15    5   14 1   
    16    6    7 1   
    17    6   17 1   
    18    7    8 ar  
    19    7   13 ar  
    20    8    9 ar  
    21    8   33 1   
    22    9   10 ar  
    23    9   34 1   
    24   10   11 1   
    25   10   12 ar  
    26   11   35 1   
    27   12   13 ar  
    28   12   36 1   
    29   14   15 ar  
    30   14   24 ar  
    31   15   16 1   
    32   15   20 ar  
    33   16   17 1   
    34   16   37 1   
    35   16   38 1   
    36   17   18 1   
    37   17   39 1   
    38   18   19 1   
    39   18   40 1   
    40   18   41 1   
    41   19   42 1   
    42   19   43 1   
    43   19   44 1   
    44   20   21 ar  
    45   20   45 1   
    46   21   22 1   
    47   21   23 ar  
    48   22   46 1   
    49   23   24 ar  
    50   23   47 1   
    51   24   48 1   
@<TRIPOS>SUBSTRUCTURE
     1 ETC         1 TEMP              0 ****  ****    0 ROOT
