@<TRIPOS>MOLECULE
ETD
    4     3     1     0     0
SMALL
bcc


@<TRIPOS>ATOM
      1 C10        -0.0110    0.0020    0.0070 c1        1 ETD     -0.160500
      2 C11         1.1850    0.0080    0.0010 c1        1 ETD     -0.160500
      3 H10        -1.0710   -0.0040    0.0140 ha        1 ETD      0.160500
      4 H11         2.2450    0.0130   -0.0060 ha        1 ETD      0.160500
@<TRIPOS>BOND
     1    1    2 3   
     2    1    3 1   
     3    2    4 1   
@<TRIPOS>SUBSTRUCTURE
     1 ETD         1 TEMP              0 ****  ****    0 ROOT
