@<TRIPOS>MOLECULE
ETD
    4     3     1     0     0
SMALL
bcc


@<TRIPOS>ATOM
      1 C10         0.0010   -0.0010   -0.5980 c1        1 ETD     -0.160500
      2 C11        -0.0010    0.0010    0.5980 c1        1 ETD     -0.160500
      3 H10         0.0020   -0.0020   -1.6580 ha        1 ETD      0.160500
      4 H11        -0.0020    0.0020    1.6580 ha        1 ETD      0.160500
@<TRIPOS>BOND
     1    1    2 3   
     2    1    3 1   
     3    2    4 1   
@<TRIPOS>SUBSTRUCTURE
     1 ETD         1 TEMP              0 ****  ****    0 ROOT
