@<TRIPOS>MOLECULE
ETD
    4     1     1     0     0
SMALL
bcc


@<TRIPOS>ATOM
      1 C10        -0.5960   -0.0040   -0.0050 c1        1 ETD     -0.218000
      2 C11         0.5960   -0.0040   -0.0050 c1        1 ETD     -0.218000
      3 H10        -1.5720   -0.0040    0.0120 DU        1 ETD      0.218000
      4 H11         1.5720    0.0130   -0.0030 DU        1 ETD      0.218000
@<TRIPOS>BOND
     1    1    2 1   
@<TRIPOS>SUBSTRUCTURE
     1 ETD         1 TEMP              0 ****  ****    0 ROOT
