@<TRIPOS>MOLECULE
ETE
   34    33     1     0     0
SMALL
bcc


@<TRIPOS>ATOM
      1 OH2        -0.5030    0.0370    6.6160 oh        1 ETE     -0.599800
      2 C12         0.3600    0.9230    5.9360 c3        1 ETE      0.131400
      3 C22         1.0870    0.2310    4.7880 c3        1 ETE      0.087400
      4 OH3         0.0850   -0.1090    3.8320 os        1 ETE     -0.438600
      5 C13        -0.5110   -0.9400    1.6980 c3        1 ETE      0.127400
      6 C23         0.6190   -0.8190    2.7150 c3        1 ETE      0.128400
      7 OH4        -0.2030   -0.0340    0.6420 os        1 ETE     -0.427600
      8 C14        -0.7270    0.9100   -1.4630 c3        1 ETE      0.129400
      9 C24        -1.2620    0.0690   -0.3090 c3        1 ETE      0.127400
     10 OH5        -0.5240    0.0140   -2.5540 os        1 ETE     -0.430600
     11 C15         0.2380   -0.4160   -4.7400 c3        1 ETE      0.125400
     12 C25         0.1050    0.6550   -3.6620 c3        1 ETE      0.128400
     13 OH6         0.7960    0.2420   -5.8750 os        1 ETE     -0.424600
     14 C26         0.9890   -0.6390   -6.9680 c3        1 ETE      0.118700
     15 HO2        -1.1140   -0.3200    5.9580 ho        1 ETE      0.412000
     16 H121        1.1020    1.2600    6.7080 h1        1 ETE      0.053700
     17 H122       -0.2180    1.8040    5.5480 h1        1 ETE      0.053700
     18 H221        1.6000   -0.7010    5.1450 h1        1 ETE      0.039700
     19 H222        1.8390    0.9210    4.3230 h1        1 ETE      0.039700
     20 H131       -1.4970   -0.6740    2.1630 h1        1 ETE      0.043700
     21 H132       -0.5570   -1.9830    1.2870 h1        1 ETE      0.043700
     22 H231        0.9530   -1.8350    3.0530 h1        1 ETE      0.045200
     23 H232        1.4880   -0.2590    2.2790 h1        1 ETE      0.045200
     24 H141        0.2400    1.4050   -1.1820 h1        1 ETE      0.045200
     25 H142       -1.4770    1.6890   -1.7600 h1        1 ETE      0.045200
     26 H241       -2.1390    0.5760    0.1720 h1        1 ETE      0.044200
     27 H242       -1.5640   -0.9520   -0.6660 h1        1 ETE      0.044200
     28 H151       -0.7640   -0.8470   -4.9980 h1        1 ETE      0.039700
     29 H152        0.9190   -1.2400   -4.3990 h1        1 ETE      0.039700
     30 H251        1.1130    1.0430   -3.3610 h1        1 ETE      0.040700
     31 H252       -0.5280    1.5060   -4.0250 h1        1 ETE      0.040700
     32 H261        1.4230    0.0060   -7.7720 h1        1 ETE      0.033700
     33 H262        1.7010   -1.4570   -6.6940 h1        1 ETE      0.033700
     34 H263        0.0150   -1.0770   -7.2990 h1        1 ETE      0.033700
@<TRIPOS>BOND
     1    1    2 1   
     2    1   15 1   
     3    2    3 1   
     4    2   16 1   
     5    2   17 1   
     6    3    4 1   
     7    3   18 1   
     8    3   19 1   
     9    4    6 1   
    10    5    6 1   
    11    5    7 1   
    12    5   20 1   
    13    5   21 1   
    14    6   22 1   
    15    6   23 1   
    16    7    9 1   
    17    8    9 1   
    18    8   10 1   
    19    8   24 1   
    20    8   25 1   
    21    9   26 1   
    22    9   27 1   
    23   10   12 1   
    24   11   12 1   
    25   11   13 1   
    26   11   28 1   
    27   11   29 1   
    28   12   30 1   
    29   12   31 1   
    30   13   14 1   
    31   14   32 1   
    32   14   33 1   
    33   14   34 1   
@<TRIPOS>SUBSTRUCTURE
     1 ETE         1 TEMP              0 ****  ****    0 ROOT
