@<TRIPOS>MOLECULE
ETE
   34    33     1     0     0
SMALL
bcc


@<TRIPOS>ATOM
      1 OH2        -1.1530    1.2060    1.2850 oh        1 ETE     -0.600800
      2 C12        -0.5380    0.4310    0.2770 c3        1 ETE      0.131400
      3 C22         0.9210    0.1330    0.6080 c3        1 ETE      0.087400
      4 OH3         0.9010   -0.7120    1.7570 os        1 ETE     -0.438600
      5 C13         2.0440   -2.0820    3.3120 c3        1 ETE      0.127400
      6 C23         2.2120   -1.0320    2.2180 c3        1 ETE      0.128400
      7 OH4         2.4770   -3.3200    2.7540 os        1 ETE     -0.428600
      8 C14         2.9040   -5.6350    2.9940 c3        1 ETE      0.127400
      9 C24         2.2300   -4.4210    3.6260 c3        1 ETE      0.127400
     10 OH5         4.0710   -5.9000    3.7690 os        1 ETE     -0.429600
     11 C15         5.9760   -7.2310    4.2070 c3        1 ETE      0.123400
     12 C25         4.8810   -6.9220    3.1910 c3        1 ETE      0.127400
     13 OH6         5.7010   -8.5360    4.7150 os        1 ETE     -0.424600
     14 C26         6.5630   -8.8990    5.7780 c3        1 ETE      0.117700
     15 HO2        -1.0590    0.7150    2.1110 ho        1 ETE      0.412000
     16 H121       -0.5960    1.0600   -0.6510 h1        1 ETE      0.053200
     17 H122       -1.1010   -0.5280    0.1280 h1        1 ETE      0.053200
     18 H221        1.4190   -0.3960   -0.2450 h1        1 ETE      0.039200
     19 H222        1.4770    1.0780    0.8440 h1        1 ETE      0.039200
     20 H131        2.6860   -1.8300    4.1970 h1        1 ETE      0.043200
     21 H132        0.9710   -2.1550    3.6330 h1        1 ETE      0.043200
     22 H231        2.6900   -0.1060    2.6330 h1        1 ETE      0.045200
     23 H232        2.8330   -1.4330    1.3740 h1        1 ETE      0.045200
     24 H141        3.1850   -5.4240    1.9280 h1        1 ETE      0.043700
     25 H142        2.2220   -6.5250    3.0360 h1        1 ETE      0.043700
     26 H241        1.1230   -4.5860    3.7060 h1        1 ETE      0.044200
     27 H242        2.6560   -4.2150    4.6440 h1        1 ETE      0.044200
     28 H151        5.9690   -6.4810    5.0410 h1        1 ETE      0.042700
     29 H152        6.9820   -7.2340    3.7110 h1        1 ETE      0.042700
     30 H251        5.3270   -6.5410    2.2350 h1        1 ETE      0.043700
     31 H252        4.2640   -7.8360    2.9810 h1        1 ETE      0.043700
     32 H261        7.6290   -8.9020    5.4390 h1        1 ETE      0.032700
     33 H262        6.2390   -9.9310    6.0620 h1        1 ETE      0.032700
     34 H263        6.4420   -8.1990    6.6420 h1        1 ETE      0.032700
@<TRIPOS>BOND
     1    1    2 1   
     2    1   15 1   
     3    2    3 1   
     4    2   16 1   
     5    2   17 1   
     6    3    4 1   
     7    3   18 1   
     8    3   19 1   
     9    4    6 1   
    10    5    6 1   
    11    5    7 1   
    12    5   20 1   
    13    5   21 1   
    14    6   22 1   
    15    6   23 1   
    16    7    9 1   
    17    8    9 1   
    18    8   10 1   
    19    8   24 1   
    20    8   25 1   
    21    9   26 1   
    22    9   27 1   
    23   10   12 1   
    24   11   12 1   
    25   11   13 1   
    26   11   28 1   
    27   11   29 1   
    28   12   30 1   
    29   12   31 1   
    30   13   14 1   
    31   14   32 1   
    32   14   33 1   
    33   14   34 1   
@<TRIPOS>SUBSTRUCTURE
     1 ETE         1 TEMP              0 ****  ****    0 ROOT
