@<TRIPOS>MOLECULE
ETE
   34    33     1     0     0
SMALL
bcc


@<TRIPOS>ATOM
      1 OH2        -0.8690    1.4080    1.1260 oh        1 ETE     -0.599800
      2 C12        -0.3240    0.5220    0.1700 c3        1 ETE      0.131400
      3 C22         1.1040    0.1200    0.5250 c3        1 ETE      0.087400
      4 OH3         1.0130   -0.6460    1.7250 os        1 ETE     -0.438600
      5 C13         2.0350   -2.0100    3.3660 c3        1 ETE      0.127400
      6 C23         2.2920   -1.0490    2.2100 c3        1 ETE      0.128400
      7 OH4         2.3550   -3.3140    2.8850 os        1 ETE     -0.427600
      8 C14         2.5740   -5.6380    3.2660 c3        1 ETE      0.129400
      9 C24         2.0100   -4.3340    3.8210 c3        1 ETE      0.127400
     10 OH5         3.6900   -5.9770    4.0880 os        1 ETE     -0.430600
     11 C15         5.5350   -7.3550    4.5740 c3        1 ETE      0.125400
     12 C25         4.3940   -7.1120    3.5920 c3        1 ETE      0.128400
     13 OH6         6.1930   -8.5370    4.1220 os        1 ETE     -0.424600
     14 C26         7.2960   -8.8870    4.9410 c3        1 ETE      0.118700
     15 HO2        -0.8160    0.9640    1.9820 ho        1 ETE      0.412000
     16 H121       -0.3290    1.0940   -0.7950 h1        1 ETE      0.053700
     17 H122       -0.9680   -0.3920    0.0800 h1        1 ETE      0.053700
     18 H221        1.5530   -0.5030   -0.2910 h1        1 ETE      0.039700
     19 H222        1.7400    1.0270    0.7040 h1        1 ETE      0.039700
     20 H131        2.7010   -1.7640    4.2340 h1        1 ETE      0.043700
     21 H132        0.9620   -1.9680    3.6890 h1        1 ETE      0.043700
     22 H231        2.8490   -0.1430    2.5700 h1        1 ETE      0.045200
     23 H232        2.8760   -1.5530    1.3950 h1        1 ETE      0.045200
     24 H141        2.9020   -5.5100    2.2000 h1        1 ETE      0.045200
     25 H142        1.8080   -6.4550    3.3290 h1        1 ETE      0.045200
     26 H241        0.8930   -4.3940    3.9040 h1        1 ETE      0.044200
     27 H242        2.4520   -4.1050    4.8260 h1        1 ETE      0.044200
     28 H151        5.1400   -7.5080    5.6120 h1        1 ETE      0.039700
     29 H152        6.2510   -6.4920    4.5730 h1        1 ETE      0.039700
     30 H251        4.7920   -6.9020    2.5650 h1        1 ETE      0.040700
     31 H252        3.7120   -8.0020    3.5500 h1        1 ETE      0.040700
     32 H261        8.0630   -8.0740    4.9370 h1        1 ETE      0.033700
     33 H262        7.7050   -9.8160    4.4730 h1        1 ETE      0.033700
     34 H263        6.9610   -9.0880    5.9890 h1        1 ETE      0.033700
@<TRIPOS>BOND
     1    1    2 1   
     2    1   15 1   
     3    2    3 1   
     4    2   16 1   
     5    2   17 1   
     6    3    4 1   
     7    3   18 1   
     8    3   19 1   
     9    4    6 1   
    10    5    6 1   
    11    5    7 1   
    12    5   20 1   
    13    5   21 1   
    14    6   22 1   
    15    6   23 1   
    16    7    9 1   
    17    8    9 1   
    18    8   10 1   
    19    8   24 1   
    20    8   25 1   
    21    9   26 1   
    22    9   27 1   
    23   10   12 1   
    24   11   12 1   
    25   11   13 1   
    26   11   28 1   
    27   11   29 1   
    28   12   30 1   
    29   12   31 1   
    30   13   14 1   
    31   14   32 1   
    32   14   33 1   
    33   14   34 1   
@<TRIPOS>SUBSTRUCTURE
     1 ETE         1 TEMP              0 ****  ****    0 ROOT
