@<TRIPOS>MOLECULE
ETE
   34    33     1     0     0
SMALL
bcc


@<TRIPOS>ATOM
      1 OH2         2.1200    7.3070   -1.9090 oh        1 ETE     -0.602800
      2 C12         2.3550    5.9010   -2.1520 c3        1 ETE      0.127400
      3 C22         1.1210    5.1030   -1.7430 c3        1 ETE      0.129400
      4 OH3         1.4170    3.7350   -1.7790 os        1 ETE     -0.431600
      5 C13         0.7940    1.4510   -1.3200 c3        1 ETE      0.129400
      6 C23         0.3210    2.8840   -1.3760 c3        1 ETE      0.130400
      7 OH4        -0.2470    0.6230   -0.7820 os        1 ETE     -0.429600
      8 C14        -1.0540   -1.5000    0.0280 c3        1 ETE      0.130400
      9 C24         0.1640   -0.6710   -0.4840 c3        1 ETE      0.129400
     10 OH5        -0.5810   -2.6470    0.7660 os        1 ETE     -0.430600
     11 C15        -1.0540   -4.5960    2.1390 c3        1 ETE      0.124400
     12 C25        -1.6400   -3.5210    1.2310 c3        1 ETE      0.130400
     13 OH6        -2.1080   -5.3390    2.7330 os        1 ETE     -0.424600
     14 C26        -1.6690   -6.4140    3.5420 c3        1 ETE      0.118700
     15 HO2         2.8440    7.7720   -2.1370 ho        1 ETE      0.405000
     16 H121        2.5370    5.7570   -3.1160 h1        1 ETE      0.035700
     17 H122        3.1260    5.6020   -1.6240 h1        1 ETE      0.035700
     18 H221        0.8610    5.3490   -0.8570 h1        1 ETE      0.042700
     19 H222        0.4000    5.2910   -2.3530 h1        1 ETE      0.042700
     20 H131        1.0160    1.1500   -2.2130 h1        1 ETE      0.041700
     21 H132        1.5900    1.3900   -0.7460 h1        1 ETE      0.041700
     22 H231       -0.4150    2.9620   -2.0310 h1        1 ETE      0.042700
     23 H232       -0.0020    3.1620   -0.4800 h1        1 ETE      0.042700
     24 H141       -1.5890   -1.8010   -0.7380 h1        1 ETE      0.042700
     25 H142       -1.6130   -0.9350    0.6200 h1        1 ETE      0.042700
     26 H241        0.5260   -1.0890   -1.2850 h1        1 ETE      0.041700
     27 H242        0.8590   -0.6420    0.2140 h1        1 ETE      0.041700
     28 H151       -0.5160   -4.1730    2.8420 h1        1 ETE      0.039700
     29 H152       -0.4890   -5.1950    1.6130 h1        1 ETE      0.039700
     30 H251       -2.0690   -3.9390    0.4730 h1        1 ETE      0.042700
     31 H252       -2.3020   -2.9950    1.7320 h1        1 ETE      0.042700
     32 H261       -1.1200   -7.0250    3.0040 h1        1 ETE      0.034367
     33 H262       -1.1330   -6.0630    4.2930 h1        1 ETE      0.034367
     34 H263       -2.4490   -6.8980    3.8950 h1        1 ETE      0.034367
@<TRIPOS>BOND
     1    1    2 1   
     2    1   15 1   
     3    2    3 1   
     4    2   16 1   
     5    2   17 1   
     6    3    4 1   
     7    3   18 1   
     8    3   19 1   
     9    4    6 1   
    10    5    6 1   
    11    5    7 1   
    12    5   20 1   
    13    5   21 1   
    14    6   22 1   
    15    6   23 1   
    16    7    9 1   
    17    8    9 1   
    18    8   10 1   
    19    8   24 1   
    20    8   25 1   
    21    9   26 1   
    22    9   27 1   
    23   10   12 1   
    24   11   12 1   
    25   11   13 1   
    26   11   28 1   
    27   11   29 1   
    28   12   30 1   
    29   12   31 1   
    30   13   14 1   
    31   14   32 1   
    32   14   33 1   
    33   14   34 1   
@<TRIPOS>SUBSTRUCTURE
     1 ETE         1 TEMP              0 ****  ****    0 ROOT
