@<TRIPOS>MOLECULE
ETF
    9     8     1     0     0
SMALL
bcc


@<TRIPOS>ATOM
      1 C1          0.0250    0.0000    0.0190 c3        1 ETF      0.631900
      2 C2          1.5870    0.0000    0.0020 c3        1 ETF      0.095400
      3 O           1.9960    0.0000    1.3510 oh        1 ETF     -0.577800
      4 F1         -0.5040    0.0000   -1.2480 f         1 ETF     -0.231967
      5 F2         -0.5310   -1.0890    0.6330 f         1 ETF     -0.231967
      6 F3         -0.5310    1.0890    0.6330 f         1 ETF     -0.231967
      7 H21         1.9330    0.9230   -0.5310 h1        1 ETF      0.062700
      8 H22         1.9330   -0.9230   -0.5310 h1        1 ETF      0.062700
      9 HO          2.9620   -0.0000    1.3470 ho        1 ETF      0.421000
@<TRIPOS>BOND
     1    1    2 1   
     2    1    4 1   
     3    1    5 1   
     4    1    6 1   
     5    2    3 1   
     6    2    7 1   
     7    2    8 1   
     8    3    9 1   
@<TRIPOS>SUBSTRUCTURE
     1 ETF         1 TEMP              0 ****  ****    0 ROOT
