@<TRIPOS>MOLECULE
ETF
    9     8     1     0     0
SMALL
bcc


@<TRIPOS>ATOM
      1 C1          0.0170    0.0000   -0.3430 c3        1 ETF      0.631900
      2 C2          0.8810    0.0090    0.9580 c3        1 ETF      0.095400
      3 O          -0.0280   -0.0000    2.0350 oh        1 ETF     -0.577800
      4 F1          0.7920    0.0080   -1.4760 f         1 ETF     -0.231967
      5 F2         -0.7890   -1.0980   -0.4760 f         1 ETF     -0.231967
      6 F3         -0.8120    1.0810   -0.4760 f         1 ETF     -0.231967
      7 H21         1.5060    0.9390    0.9590 h1        1 ETF      0.062700
      8 H22         1.5260   -0.9070    0.9590 h1        1 ETF      0.062700
      9 HO          0.5000    0.0050    2.8430 ho        1 ETF      0.421000
@<TRIPOS>BOND
     1    1    2 1   
     2    1    4 1   
     3    1    5 1   
     4    1    6 1   
     5    2    3 1   
     6    2    7 1   
     7    2    8 1   
     8    3    9 1   
@<TRIPOS>SUBSTRUCTURE
     1 ETF         1 TEMP              0 ****  ****    0 ROOT
