@<TRIPOS>MOLECULE
ETF
    9     8     1     0     0
SMALL
bcc


@<TRIPOS>ATOM
      1 C1         -0.9670    0.0000   -0.1930 c3        1 ETF      0.631900
      2 C2          0.5460    0.0000   -0.1930 c3        1 ETF      0.095400
      3 O           1.0160    0.0000    1.1370 oh        1 ETF     -0.577800
      4 F1         -1.4130   -1.0930    0.4380 f         1 ETF     -0.231967
      5 F2         -1.4130    0.0000   -1.4560 f         1 ETF     -0.231967
      6 F3         -1.4130    1.0930    0.4380 f         1 ETF     -0.231967
      7 H21         0.8710    0.7970   -0.6530 h1        1 ETF      0.062700
      8 H22         0.8710   -0.7970   -0.6530 h1        1 ETF      0.062700
      9 HO          1.9040    0.0000    1.1370 ho        1 ETF      0.421000
@<TRIPOS>BOND
     1    1    2 1   
     2    1    4 1   
     3    1    5 1   
     4    1    6 1   
     5    2    3 1   
     6    2    7 1   
     7    2    8 1   
     8    3    9 1   
@<TRIPOS>SUBSTRUCTURE
     1 ETF         1 TEMP              0 ****  ****    0 ROOT
