@<TRIPOS>MOLECULE
ETG
   79    83     1     0     0
SMALL
bcc


@<TRIPOS>ATOM
      1 C1        -10.1430    0.7170    1.0690 c3        1 ETG     -0.071400
      2 C2         -9.8670    0.5760   -0.4240 c3        1 ETG     -0.062367
      3 C3         -9.4070    1.9160   -0.9870 c3        1 ETG     -0.071400
      4 C4         -8.7780   -0.4670   -0.6420 c3        1 ETG     -0.061733
      5 C5         -8.8680    1.1550    1.7810 c3        1 ETG     -0.062367
      6 C6         -8.4060    2.4960    1.2180 c3        1 ETG     -0.071400
      7 C7         -7.7750    0.1110    1.5680 c3        1 ETG     -0.061733
      8 C8         -8.1320    2.3540   -0.2750 c3        1 ETG     -0.062367
      9 C9         -7.4890   -0.0360    0.0700 c3        1 ETG     -0.113000
     10 C10        -7.0370    1.3140   -0.4950 c3        1 ETG     -0.061733
     11 C11         6.2380   -2.2200   -2.5230 ca        1 ETG     -0.188000
     12 C12         5.5190   -1.0230   -2.7150 ca        1 ETG     -0.079000
     13 C13         5.3930   -0.1060   -1.7040 ca        1 ETG     -0.176000
     14 C14         6.8700   -2.4820   -1.3140 ca        1 ETG      0.143600
     15 C15         6.7850   -1.5050   -0.2520 ca        1 ETG     -0.063000
     16 C16         6.0070   -0.3300   -0.4400 ca        1 ETG      0.074000
     17 C17         5.8700    0.6080    0.6280 ca        1 ETG     -0.375500
     18 C18         6.5640    0.3890    1.8050 ca        1 ETG      0.006000
     19 C19         7.3870   -0.7390    1.9760 ca        1 ETG     -0.179000
     20 C20         7.4890   -1.6730    0.9710 ca        1 ETG     -0.034000
     21 C22         7.0220   -4.6430   -0.2420 c3        1 ETG      0.166100
     22 C23         8.2350   -4.2370   -2.2900 c3        1 ETG      0.166100
     23 C24        -6.4170   -1.1020   -0.1750 c         1 ETG      0.656100
     24 N25        -5.1910   -0.9370    0.4450 n         1 ETG     -0.556900
     25 C26        -4.0750   -1.7970    0.1770 c3        1 ETG      0.086000
     26 C27        -3.0150   -1.2090   -0.7650 c3        1 ETG      0.099400
     27 O28        -2.4550   -0.0760   -0.1060 os        1 ETG     -0.436600
     28 C29        -1.4350    0.5510   -0.8790 c3        1 ETG      0.127400
     29 C30        -0.7980    1.6090    0.0170 c3        1 ETG      0.127400
     30 O31         0.4860    1.1090    0.3840 os        1 ETG     -0.431600
     31 C32         1.1250    1.9280    1.3590 c3        1 ETG      0.112400
     32 C33         2.5050    1.3070    1.6250 c3        1 ETG      0.227800
     33 N34         3.3980    1.3710    0.5080 n3        1 ETG     -0.918100
     34 S36         4.8880    1.9890    0.5460 sy        1 ETG      1.513200
     35 O37         5.1310    2.6880   -0.6550 o         1 ETG     -0.659300
     36 O38        -6.6470   -2.1120   -0.8710 o         1 ETG     -0.613100
     37 H1        -10.9510    1.4740    1.2380 hc        1 ETG      0.042867
     38 H1A       -10.4930   -0.2620    1.4850 hc        1 ETG      0.042867
     39 H2        -10.8030    0.2490   -0.9490 hc        1 ETG      0.052033
     40 H3         -9.2160    1.8210   -2.0860 hc        1 ETG      0.042867
     41 H3A       -10.2070    2.6860   -0.8400 hc        1 ETG      0.042867
     42 H4         -9.1070   -1.4610   -0.2440 hc        1 ETG      0.050533
     43 H4A        -8.5730   -0.5920   -1.7360 hc        1 ETG      0.050533
     44 H5         -9.0680    1.2590    2.8810 hc        1 ETG      0.052033
     45 H6         -9.1980    3.2700    1.3860 hc        1 ETG      0.042867
     46 H6A        -7.4780    2.8310    1.7460 hc        1 ETG      0.042867
     47 H7         -6.8510    0.4300    2.1140 hc        1 ETG      0.050533
     48 H7A        -8.1030   -0.8750    1.9850 hc        1 ETG      0.050533
     49 H8         -7.7900    3.3410   -0.6890 hc        1 ETG      0.052033
     50 H10        -6.8260    1.2100   -1.5900 hc        1 ETG      0.050533
     51 H10A       -6.0990    1.6570    0.0100 hc        1 ETG      0.050533
     52 H11         6.2900   -2.9350   -3.3580 ha        1 ETG      0.138000
     53 H12         5.0540   -0.8370   -3.6960 ha        1 ETG      0.137000
     54 H13         4.8510    0.8360   -1.8920 ha        1 ETG      0.154000
     55 H18         6.4800    1.1160    2.6360 ha        1 ETG      0.164000
     56 H19         7.9440   -0.8630    2.9160 ha        1 ETG      0.142000
     57 H20         8.1390   -2.5520    1.1140 ha        1 ETG      0.151000
     58 H22         6.2350   -5.2480   -0.7710 h1        1 ETG      0.038867
     59 H22A        7.8210   -5.3390    0.1270 h1        1 ETG      0.038867
     60 H22B        6.5470   -4.1310    0.6360 h1        1 ETG      0.038867
     61 H23         8.6980   -3.4260   -2.9100 h1        1 ETG      0.038867
     62 H23A        9.0380   -4.9490   -1.9620 h1        1 ETG      0.038867
     63 H23B        7.4980   -4.8030   -2.9240 h1        1 ETG      0.038867
     64 HN25       -4.9730   -0.0530    0.8440 hn        1 ETG      0.313500
     65 H26        -3.5770   -2.0300    1.1620 h1        1 ETG      0.073200
     66 H26A       -4.4470   -2.7570   -0.2830 h1        1 ETG      0.073200
     67 H27        -2.2160   -1.9760   -0.9480 h1        1 ETG      0.038200
     68 H27A       -3.4590   -0.8950   -1.7460 h1        1 ETG      0.038200
     69 H29        -0.6720   -0.2060   -1.2040 h1        1 ETG      0.044200
     70 H29A       -1.8990    1.0300   -1.7810 h1        1 ETG      0.044200
     71 H30        -0.6710    2.5720   -0.5440 h1        1 ETG      0.044200
     72 H30A       -1.4230    1.7840    0.9320 h1        1 ETG      0.044200
     73 H32         1.2070    2.9800    0.9810 h1        1 ETG      0.039700
     74 H32A        0.5290    1.9190    2.3100 h1        1 ETG      0.039700
     75 H33         2.9620    1.8580    2.4990 h1        1 ETG      0.063700
     76 H33A        2.3460    0.2290    1.9210 h1        1 ETG      0.063700
     77 HN34        3.0040    0.9890   -0.3210 hn        1 ETG      0.457800
     78 N21         7.6460   -3.6610   -1.1030 nh        1 ETG     -0.644000
     79 O35         5.0710    2.7320    1.7390 o         1 ETG     -0.659300
@<TRIPOS>BOND
     1    1    2 1   
     2    1    5 1   
     3    1   37 1   
     4    1   38 1   
     5    2    3 1   
     6    2    4 1   
     7    2   39 1   
     8    3    8 1   
     9    3   40 1   
    10    3   41 1   
    11    4    9 1   
    12    4   42 1   
    13    4   43 1   
    14    5    6 1   
    15    5    7 1   
    16    5   44 1   
    17    6    8 1   
    18    6   45 1   
    19    6   46 1   
    20    7    9 1   
    21    7   47 1   
    22    7   48 1   
    23    8   10 1   
    24    8   49 1   
    25    9   10 1   
    26    9   23 1   
    27   10   50 1   
    28   10   51 1   
    29   11   12 ar  
    30   11   14 ar  
    31   11   52 1   
    32   12   13 ar  
    33   12   53 1   
    34   13   16 ar  
    35   13   54 1   
    36   14   15 ar  
    37   14   78 1   
    38   15   16 ar  
    39   15   20 ar  
    40   16   17 ar  
    41   17   18 ar  
    42   17   34 1   
    43   18   19 ar  
    44   18   55 1   
    45   19   20 ar  
    46   19   56 1   
    47   20   57 1   
    48   21   58 1   
    49   21   59 1   
    50   21   60 1   
    51   21   78 1   
    52   22   61 1   
    53   22   62 1   
    54   22   63 1   
    55   22   78 1   
    56   23   24 1   
    57   23   36 2   
    58   24   25 1   
    59   24   64 1   
    60   25   26 1   
    61   25   65 1   
    62   25   66 1   
    63   26   27 1   
    64   26   67 1   
    65   26   68 1   
    66   27   28 1   
    67   28   29 1   
    68   28   69 1   
    69   28   70 1   
    70   29   30 1   
    71   29   71 1   
    72   29   72 1   
    73   30   31 1   
    74   31   32 1   
    75   31   73 1   
    76   31   74 1   
    77   32   33 1   
    78   32   75 1   
    79   32   76 1   
    80   33   34 1   
    81   33   77 1   
    82   34   35 2   
    83   34   79 2   
@<TRIPOS>SUBSTRUCTURE
     1 ETG         1 TEMP              0 ****  ****    0 ROOT
