@<TRIPOS>MOLECULE
ETG
   82    79     1     0     0
SMALL
bcc


@<TRIPOS>ATOM
      1 C1        263.9640  242.6540  727.5730 c1        1 ETG      0.085000
      2 C2        259.2990  241.8250  726.5310 c2        1 ETG     -0.167000
      3 C3        264.2770  239.7020  725.7180 c3        1 ETG     -0.162000
      4 C4        260.0820  241.2140  727.4230 c2        1 ETG     -0.159000
      5 C5        264.9700  243.3450  728.0200 c2        1 ETG     -0.509000
      6 C6        263.0310  239.0650  727.7180 c1        1 ETG      0.069000
      7 C7        261.5570  243.0840  728.1080 c2        1 ETG     -0.051000
      8 C8        263.7080  238.6950  726.6620 c2        1 ETG     -0.271000
      9 C9        260.9150  241.9350  728.3780 c2        1 ETG     -0.171000
     10 C10       263.9610  237.2680  726.3180 c3        1 ETG     -0.162000
     11 C11      -370.9180 -354.9280-1033.5900 ca        1 ETG     -0.027000
     12 C12      -372.2050 -355.5350-1033.8280 ca        1 ETG     -0.053000
     13 C13      -372.3380 -356.5860-1034.6660 ca        1 ETG     -0.164000
     14 C14      -369.8260 -355.3420-1034.2940 ca        1 ETG     -0.126000
     15 C15      -369.9350 -356.3840-1035.3270 ca        1 ETG      0.047000
     16 C16      -371.1970 -357.1590-1035.3600 ca        1 ETG      0.235000
     17 C17      -371.2530 -358.3620-1035.9960 c2        1 ETG     -1.037000
     18 C18      -368.5670 -357.3850-1037.4320 c1        1 ETG      0.296000
     19 C19      -367.6870 -356.3420-1036.8410 c3        1 ETG     -0.347000
     20 C20      -368.9890 -356.6180-1036.2350 c2        1 ETG     -0.320000
     21 C22      -368.5190 -353.2650-1034.2630 c3        1 ETG     -0.192000
     22 C23      -368.0100 -355.0730-1032.6800 c3        1 ETG     -0.192000
     23 C24       261.0920  241.2690  729.6880 c2        1 ETG      0.347000
     24 N25       261.7510  240.1320  729.8100 n3        1 ETG     -0.298000
     25 C26       258.4230  242.6160  730.1680 c3        1 ETG     -0.254000
     26 C27       259.6880  242.8480  730.9630 c3        1 ETG      0.173000
     27 O28       260.3630  243.9720  730.4820 os        1 ETG     -0.277000
     28 C29       261.0560  244.7600  731.4550 c3        1 ETG     -0.060000
     29 C30       262.4750  244.2520  731.6840 c3        1 ETG     -0.055000
     30 O31       263.3350  244.6010  730.6080 os        1 ETG     -0.301000
     31 C32       263.8850  245.9070  730.7150 c3        1 ETG     -0.083000
     32 C33      -372.5900 -360.4360-1038.7280 c2        1 ETG      0.164000
     33 N34      -372.7110 -359.4310-1037.9180 n3        1 ETG     -0.565000
     34 S36      -372.4190 -359.4800-1036.1200 s6        1 ETG      2.842000
     35 O37      -371.9340 -360.7640-1035.9560 o         1 ETG     -0.848500
     36 O38       260.6410  241.7570  730.8690 os        1 ETG     -0.269000
     37 H1        259.6460  244.7010  728.1680 ha        1 ETG      0.001500
     38 H1A       259.1650  244.9670  728.5640 ha        1 ETG      0.001500
     39 H2        259.2130  242.9200  726.4650 ha        1 ETG      0.132000
     40 H3        265.3790  239.5360  725.6240 hc        1 ETG      0.108333
     41 H3A       258.6910  241.2610  725.8100 ha        1 ETG      0.132000
     42 H4        260.1400  240.1130  727.4700 ha        1 ETG      0.134000
     43 H4A       263.8030  239.5720  724.7130 hc        1 ETG      0.108333
     44 H5        261.4820  243.5590  727.1180 ha        1 ETG      0.154500
     45 H6        264.0950  240.7480  726.0730 hc        1 ETG      0.108333
     46 H6A       265.9710  243.3720  727.5560 ha        1 ETG      0.210500
     47 H7        264.9040  243.9820  728.9240 ha        1 ETG      0.210500
     48 H7A       262.1500  243.6260  728.8660 ha        1 ETG      0.154500
     49 H8        263.4900  236.5740  727.0550 hc        1 ETG      0.108333
     50 H10       263.5450  237.0530  725.3020 hc        1 ETG      0.108333
     51 H10A      265.0650  237.0820  726.3020 hc        1 ETG      0.108333
     52 H12      -373.0750 -355.1160-1033.2860 ha        1 ETG      0.202000
     53 H13      -373.3350 -357.0500-1034.8160 ha        1 ETG      0.210000
     54 H18      -370.2850 -358.6870-1036.4560 h4        1 ETG      0.223000
     55 H19      -366.7440 -356.6500-1036.3300 hc        1 ETG      0.200500
     56 H20      -367.5120 -355.3940-1037.4040 hc        1 ETG      0.200500
     57 H22      -367.4710 -352.8720-1034.1570 hx        1 ETG      0.153000
     58 H22A     -367.8390 -355.1490-1034.7310 hn        1 ETG      0.256000
     59 H22B     -368.9090 -353.0390-1035.2910 hx        1 ETG      0.153000
     60 H23      -368.6980 -354.6280-1031.9140 hx        1 ETG      0.153000
     61 H23A     -366.9780 -354.6440-1032.5520 hx        1 ETG      0.153000
     62 H23B     -367.9780 -356.1890-1032.5550 hx        1 ETG      0.153000
     63 HN25      259.5060  242.8610  732.0800 h2        1 ETG      0.146000
     64 H26       257.9690  241.6410  730.4660 hc        1 ETG      0.117333
     65 H26A      261.8520  239.7070  730.7070 hn        1 ETG      0.300500
     66 H27       258.6290  242.6130  729.0690 hc        1 ETG      0.117333
     67 H27A      257.7040  243.4430  730.3900 hc        1 ETG      0.117333
     68 H29       261.0660  245.7840  730.9900 h1        1 ETG      0.115000
     69 H29A      260.4900  244.7840  732.4220 h1        1 ETG      0.115000
     70 H30       262.4890  243.1280  731.7000 h1        1 ETG      0.104500
     71 H30A      262.8680  244.6530  732.6550 h1        1 ETG      0.104500
     72 H32       264.5210  245.9870  731.6300 h1        1 ETG      0.085333
     73 H32A      263.0770  246.6780  730.7380 h1        1 ETG      0.085333
     74 H33      -372.8270 -360.3690-1039.8150 h4        1 ETG      0.213500
     75 H33A      264.5080  246.0240  729.7920 h1        1 ETG      0.085333
     76 HN34     -372.2330 -361.4250-1038.3390 h4        1 ETG      0.213500
     77 N21      -368.5020 -354.7420-1034.0510 n4        1 ETG      0.047000
     78 O35      -373.6260 -359.0790-1035.5840 o         1 ETG     -0.848500
     79 H252      262.2370  239.6700  728.9550 hn        1 ETG      0.300500
     80 H342     -373.0490 -358.5600-1038.2940 hn        1 ETG      0.270000
     81 H211     -369.1770 -352.7770-1033.4960 hx        1 ETG      0.153000
     82 H11      -370.8730 -354.1340-1032.8200 ha        1 ETG      0.183000
@<TRIPOS>BOND
     1    1    5 1   
     2    2    4 1   
     3    2   39 1   
     4    2   41 1   
     5    3    8 1   
     6    3   40 1   
     7    3   43 1   
     8    3   45 1   
     9    4    9 1   
    10    4   42 1   
    11    5   46 1   
    12    5   47 1   
    13    6    8 1   
    14    7    9 1   
    15    7   44 1   
    16    7   48 1   
    17    8   10 1   
    18    9   23 1   
    19   10   49 1   
    20   10   50 1   
    21   10   51 1   
    22   11   12 1   
    23   11   14 1   
    24   11   82 1   
    25   12   13 1   
    26   12   52 1   
    27   13   16 1   
    28   13   53 1   
    29   14   15 1   
    30   14   77 1   
    31   15   16 1   
    32   15   20 1   
    33   16   17 1   
    34   17   34 1   
    35   17   54 1   
    36   18   19 1   
    37   18   20 1   
    38   19   20 1   
    39   19   55 1   
    40   19   56 1   
    41   21   57 1   
    42   21   59 1   
    43   21   77 1   
    44   21   81 1   
    45   22   60 1   
    46   22   61 1   
    47   22   62 1   
    48   22   77 1   
    49   23   24 1   
    50   23   36 1   
    51   24   65 1   
    52   24   79 1   
    53   25   26 1   
    54   25   64 1   
    55   25   66 1   
    56   25   67 1   
    57   26   27 1   
    58   26   36 1   
    59   26   63 1   
    60   27   28 1   
    61   28   29 1   
    62   28   68 1   
    63   28   69 1   
    64   29   30 1   
    65   29   70 1   
    66   29   71 1   
    67   30   31 1   
    68   31   72 1   
    69   31   73 1   
    70   31   75 1   
    71   32   33 1   
    72   32   74 1   
    73   32   76 1   
    74   33   34 1   
    75   33   80 1   
    76   34   35 1   
    77   34   78 1   
    78   37   38 1   
    79   58   77 1   
@<TRIPOS>SUBSTRUCTURE
     1 ETG         1 TEMP              0 ****  ****    0 ROOT
