@<TRIPOS>MOLECULE
ETG
   81    73     1     0     0
SMALL
bcc


@<TRIPOS>ATOM
      1 C1        120.6350  243.2410  266.3130 c1        1 ETG     -0.232000
      2 C2        -21.4580  -49.7340  -49.8560 c2        1 ETG     -0.188000
      3 C3        121.7830  240.0390  265.3920 c2        1 ETG      0.055000
      4 C4        -21.4290  -50.7940  -50.6660 c2        1 ETG     -0.144000
      5 C5        120.2780  244.2860  267.0490 c2        1 ETG      0.200000
      6 C6        120.9680  242.2650  265.6240 c1        1 ETG      0.219000
      7 C7        -23.8570  -51.2340  -50.8990 c2        1 ETG     -0.183000
      8 C8        121.3300  241.1990  264.8290 c2        1 ETG     -0.111000
      9 C9        -22.5810  -51.6330  -50.9590 c2        1 ETG     -0.116000
     10 C10       121.2100  241.3590  263.3520 c3        1 ETG     -0.198000
     11 C11       -20.4730  -52.8210  -56.6070 ca        1 ETG     -0.161000
     12 C12       -21.0250  -53.4240  -55.4390 ca        1 ETG      0.051000
     13 C13       -22.0460  -54.3310  -55.5150 ca        1 ETG     -0.266000
     14 C14       -20.9530  -53.1490  -57.8500 ca        1 ETG      0.123000
     15 C15       -22.0450  -54.1250  -57.9780 ca        1 ETG     -0.408000
     16 C16       -22.6090  -54.7170  -56.7650 ca        1 ETG      0.308000
     17 C17       -23.6580  -55.6130  -56.8780 c2        1 ETG     -1.200000
     18 C18       -27.4860  -57.6020  -56.8380 c1        1 ETG      0.117000
     19 C19       -27.4510  -58.7410  -57.4320 c2        1 ETG     -0.375000
     20 C20       -22.5340  -54.5070  -59.1740 c1        1 ETG      0.416000
     21 C22       -18.5830  -51.6780  -53.2100 c3        1 ETG     -0.277000
     22 C23       -19.5040  -51.6370  -58.9650 c1        1 ETG     -0.102000
     23 C24       -22.2330  -53.0190  -51.4050 c2        1 ETG      0.355000
     24 N25       -22.6900  -54.0630  -50.6210 n         1 ETG     -0.360000
     25 C26       -22.4790  -55.4290  -50.9930 c3        1 ETG     -0.096000
     26 C27       -23.4430  -56.0220  -51.9980 c2        1 ETG      0.195000
     27 O28       -24.3930  -55.4040  -52.4910 o         1 ETG     -0.369000
     28 C29       -27.1700  -54.0770  -51.8310 c3        1 ETG     -0.308000
     29 C30       -26.5340  -52.8710  -52.4020 c1        1 ETG      0.001000
     30 O31       -26.6240  -52.8390  -53.7300 os        1 ETG     -0.249000
     31 C32       -26.0930  -51.6400  -54.3340 c3        1 ETG     -0.067000
     32 C33       -26.8370  -55.4840  -55.3760 c2        1 ETG     -0.058000
     33 N34       -25.5680  -55.3890  -55.1290 n3        1 ETG     -0.583000
     34 S36       -24.3750  -56.5070  -55.7900 s6        1 ETG      2.888000
     35 O37       -25.1540  -57.5240  -56.3970 o         1 ETG     -0.927500
     36 O38       -21.5350  -53.2430  -52.4180 o         1 ETG     -0.412000
     37 H1        -24.3240  -49.7520  -47.7630 ha        1 ETG      0.001500
     38 H1A       -24.3570  -50.1230  -48.3290 ha        1 ETG      0.001500
     39 H2        -22.3660  -49.4060  -49.3290 ha        1 ETG      0.123000
     40 H3        121.8780  239.9010  266.4820 ha        1 ETG      0.166000
     41 H3A       -20.5620  -49.1270  -49.6660 ha        1 ETG      0.123000
     42 H4        -20.4950  -51.0990  -51.1760 ha        1 ETG      0.143000
     43 H4A       122.0750  239.1780  264.7650 ha        1 ETG      0.166000
     44 H5        -24.3590  -48.1600  -49.5580 ha        1 ETG      0.001500
     45 H6        -24.2970  -47.8390  -50.1510 ha        1 ETG      0.001500
     46 H6A       119.9120  245.2230  266.5820 ha        1 ETG      0.190000
     47 H7        120.3320  244.2620  268.1560 ha        1 ETG      0.190000
     48 H7A       -24.1250  -50.2070  -50.6040 ha        1 ETG      0.143000
     49 H8        120.1490  241.5730  263.0660 hc        1 ETG      0.118333
     50 H10       121.8510  242.2050  262.9960 hc        1 ETG      0.118333
     51 H10A      121.5340  240.4260  262.8250 hc        1 ETG      0.118333
     52 H12       -20.6080  -53.1310  -54.4510 ha        1 ETG      0.205000
     53 H13       -22.4370  -54.7860  -54.5860 ha        1 ETG      0.176000
     54 H18       -24.0360  -55.7790  -57.9110 h4        1 ETG      0.193000
     55 H19       -26.4790  -59.2830  -57.5200 ha        1 ETG      0.239500
     56 H20       -28.2970  -59.2830  -57.8890 ha        1 ETG      0.239500
     57 H22       -19.3810  -52.3130  -52.7620 hc        1 ETG      0.069750
     58 H22A      -20.8140  -52.9460  -59.8870 hn        1 ETG      0.170000
     59 H22B      -18.6420  -50.6530  -52.7830 hc        1 ETG      0.069750
     60 H23       -18.7230  -51.6260  -54.3120 hc        1 ETG      0.069750
     61 H23A      -17.5860  -52.1160  -52.9840 hc        1 ETG      0.069750
     62 H23B      -19.1440  -51.2460  -59.9390 ha        1 ETG      0.076000
     63 HN25      -21.4450  -55.5260  -51.4440 h1        1 ETG      0.135000
     64 H26       -24.1380  -53.0830  -53.1450 ha        1 ETG      0.001500
     65 H26A      -24.7090  -51.8850  -51.1600 ha        1 ETG      0.143000
     66 H27       -23.8840  -53.2090  -53.7630 ha        1 ETG      0.001500
     67 H27A      -22.5190  -56.0680  -50.0620 h1        1 ETG      0.135000
     68 H29       -23.2200  -57.0740  -52.2910 h4        1 ETG      0.130000
     69 H29A      -26.3560  -54.6940  -51.3660 hc        1 ETG      0.110333
     70 H30       -27.7350  -54.7140  -52.5550 hc        1 ETG      0.110333
     71 H30A      -27.8650  -53.7420  -51.0190 hc        1 ETG      0.110333
     72 H32       -25.5230  -51.0350  -53.5880 h1        1 ETG      0.099000
     73 H32A      -25.4310  -51.9920  -55.1610 h1        1 ETG      0.099000
     74 H33       -27.5540  -54.7740  -54.9130 h4        1 ETG      0.247500
     75 H33A      -26.9700  -51.0720  -54.7290 h1        1 ETG      0.099000
     76 HN34      -27.2920  -56.4390  -56.1270 h4        1 ETG      0.247500
     77 N21       -20.4270  -52.5720  -59.0370 nh        1 ETG     -0.176000
     78 O35       -23.5840  -56.8870  -54.7050 o         1 ETG     -0.927500
     79 H252      -23.3590  -53.8710  -49.9130 hn        1 ETG      0.238000
     80 H342      -25.2380  -54.6900  -54.4760 hn        1 ETG      0.265000
     81 H11       -19.6520  -52.0840  -56.4980 ha        1 ETG      0.209000
@<TRIPOS>BOND
     1    1    5 1   
     2    1    6 1   
     3    2    4 1   
     4    2   39 1   
     5    2   41 1   
     6    3    8 1   
     7    3   40 1   
     8    3   43 1   
     9    4    9 1   
    10    4   42 1   
    11    5   46 1   
    12    5   47 1   
    13    6    8 1   
    14    7    9 1   
    15    7   48 1   
    16    7   65 1   
    17    8   10 1   
    18    9   23 1   
    19   10   49 1   
    20   10   50 1   
    21   10   51 1   
    22   11   12 1   
    23   11   14 1   
    24   11   81 1   
    25   12   13 1   
    26   12   52 1   
    27   13   16 1   
    28   13   53 1   
    29   14   15 1   
    30   14   77 1   
    31   15   16 1   
    32   15   20 1   
    33   16   17 1   
    34   17   34 1   
    35   17   54 1   
    36   18   19 1   
    37   19   55 1   
    38   19   56 1   
    39   21   57 1   
    40   21   59 1   
    41   21   60 1   
    42   21   61 1   
    43   22   62 1   
    44   22   77 1   
    45   23   24 1   
    46   23   36 1   
    47   24   25 1   
    48   24   79 1   
    49   25   26 1   
    50   25   63 1   
    51   25   67 1   
    52   26   27 1   
    53   26   68 1   
    54   28   29 1   
    55   28   69 1   
    56   28   70 1   
    57   28   71 1   
    58   29   30 1   
    59   30   31 1   
    60   31   72 1   
    61   31   73 1   
    62   31   75 1   
    63   32   33 1   
    64   32   74 1   
    65   32   76 1   
    66   33   34 1   
    67   33   80 1   
    68   34   35 1   
    69   34   78 1   
    70   37   38 1   
    71   44   45 1   
    72   58   77 1   
    73   64   66 1   
@<TRIPOS>SUBSTRUCTURE
     1 ETG         1 TEMP              0 ****  ****    0 ROOT
