@<TRIPOS>MOLECULE
ETG
   81    76     1     0     0
SMALL
bcc


@<TRIPOS>ATOM
      1 C1         65.8420   63.9900   81.5500 c1        1 ETG     -0.168000
      2 C2         66.1270   64.5320   80.2610 c3        1 ETG     -0.122000
      3 C3         65.2950   68.0910   80.9090 cu        1 ETG     -0.165500
      4 C4         68.2760   67.4660   82.4910 c3        1 ETG     -0.240500
      5 C5         65.5930   63.5230   82.6240 c1        1 ETG     -0.230000
      6 C6         65.3130   67.5380   82.2970 cx        1 ETG     -0.151000
      7 C7         67.2000   66.2010   84.3630 c3        1 ETG     -0.240500
      8 C8         64.1940   68.2540   81.6130 cu        1 ETG     -0.165500
      9 C9         67.4040   67.5700   83.7290 c3        1 ETG     -0.034000
     10 C10        66.0560   68.2310   83.3960 c3        1 ETG     -0.143000
     11 C11       -57.5030  -69.9770  -78.3930 ca        1 ETG     -0.166000
     12 C12       -58.5910  -70.3190  -77.5400 ca        1 ETG      0.044000
     13 C13       -59.6350  -71.0850  -77.9740 ca        1 ETG     -0.268000
     14 C14       -57.4740  -70.4290  -79.6890 ca        1 ETG      0.130000
     15 C15       -58.5700  -71.2660  -80.1980 ca        1 ETG     -0.411000
     16 C16       -59.6840  -71.5910  -79.3070 ca        1 ETG      0.311000
     17 C17       -60.7250  -72.3660  -79.7860 c2        1 ETG     -1.191000
     18 C18       -64.4670  -74.4050  -80.9350 c1        1 ETG      0.151000
     19 C19       -64.2930  -75.6550  -81.1690 c2        1 ETG     -0.344000
     20 C20       -58.5780  -71.7560  -81.4530 c1        1 ETG      0.426000
     21 C22       -54.8100  -67.8740  -77.0090 c3        1 ETG     -0.285000
     22 C23       -55.4400  -69.3100  -80.1810 c1        1 ETG     -0.101000
     23 C24        68.0670   68.4660   84.7760 c2        1 ETG      0.254000
     24 N25        69.5500   68.2020   85.0080 ny        1 ETG     -0.107000
     25 C26        70.1360   68.9670   86.1390 c3        1 ETG     -0.227000
     26 C27        71.6500   68.8520   86.2300 c2        1 ETG      0.178000
     27 O28        72.2990   68.2220   85.4020 o         1 ETG     -0.243000
     28 C29       -62.6380  -67.9300  -78.0840 c3        1 ETG     -0.313000
     29 C30       -62.5230  -68.6460  -76.7940 c1        1 ETG      0.016000
     30 O31       -62.8620  -69.9270  -76.9010 os        1 ETG     -0.265000
     31 C32       -62.8320  -70.6650  -75.6580 c3        1 ETG     -0.074000
     32 C33       -64.2600  -71.9290  -80.0180 c1        1 ETG     -0.104000
     33 N34       -63.1920  -71.7150  -79.3140 n7        1 ETG     -0.597000
     34 S36       -61.9900  -72.9680  -79.0500 s6        1 ETG      2.889000
     35 O37       -62.4980  -74.1010  -79.7400 o         1 ETG     -0.927000
     36 O38        67.5730   69.3470   85.4540 o         1 ETG     -0.165000
     37 H1         67.6750   66.9970   81.6670 hc        1 ETG      0.108000
     38 H1A        69.1690   66.8180   82.6650 hc        1 ETG      0.108000
     39 H2         67.1480   64.2220   79.9180 hc        1 ETG      0.099333
     40 H3         65.8670   68.2020   80.0110 ha        1 ETG      0.203000
     41 H3A        65.3780   64.1660   79.5100 hc        1 ETG      0.099333
     42 H4         68.6040   68.4750   82.1400 hc        1 ETG      0.108000
     43 H4A        66.0820   65.6540   80.2860 hc        1 ETG      0.099333
     44 H5         66.6830   65.5260   83.6300 hc        1 ETG      0.108000
     45 H6         65.2430   66.4390   82.4460 hc        1 ETG      0.122000
     46 H6A        65.3560   63.0830   83.5600 ha        1 ETG      0.227000
     47 H7         66.5620   66.2770   85.2760 hc        1 ETG      0.108000
     48 H7A        68.1740   65.7250   84.6300 hc        1 ETG      0.108000
     49 H8         66.2420   69.3030   83.1160 hc        1 ETG      0.109500
     50 H10        65.4200   68.2290   84.3230 hc        1 ETG      0.109500
     51 H10A       63.1860   68.5960   81.7350 ha        1 ETG      0.203000
     52 H12       -58.5690  -69.9410  -76.5000 ha        1 ETG      0.174000
     53 H13       -60.4570  -71.3440  -77.2800 ha        1 ETG      0.179000
     54 H18       -60.6430  -72.6700  -80.8530 h4        1 ETG      0.192000
     55 H19       -63.3790  -76.1650  -80.7780 ha        1 ETG      0.248500
     56 H20       -64.9630  -76.3300  -81.7330 ha        1 ETG      0.248500
     57 H22       -55.7230  -67.2720  -76.8140 hc        1 ETG      0.071250
     58 H22A      -56.4700  -70.5530  -81.4750 hn        1 ETG      0.172000
     59 H22B      -53.9100  -67.2580  -76.7920 hc        1 ETG      0.071250
     60 H23       -54.7920  -68.1950  -78.0770 hc        1 ETG      0.071250
     61 H23A      -54.8080  -68.7700  -76.3500 hc        1 ETG      0.071250
     62 H23B      -54.6440  -69.1200  -80.9300 ha        1 ETG      0.080000
     63 HN25       69.8600   70.0580   86.0210 hx        1 ETG      0.177000
     64 H26        74.9320   68.7210   86.6570 ha        1 ETG      0.000000
     65 H26A       70.0610   68.4360   84.1440 hn        1 ETG      0.262500
     66 H27        69.6740   68.6000   87.1020 hx        1 ETG      0.177000
     67 H27A       74.2830   68.8740   86.7770 ha        1 ETG      0.000000
     68 H29       -63.4010  -67.1200  -77.9440 hc        1 ETG      0.105000
     69 H29A       72.0880   69.3890   87.0990 h4        1 ETG      0.172000
     70 H30       -61.6540  -67.4360  -78.2930 hc        1 ETG      0.105000
     71 H30A      -62.9300  -68.5520  -78.9660 hc        1 ETG      0.105000
     72 H32       -63.8960  -70.8200  -75.3560 h1        1 ETG      0.109667
     73 H32A      -62.2750  -70.0990  -74.8740 h1        1 ETG      0.109667
     74 H33       -62.3340  -71.6360  -75.9070 h1        1 ETG      0.109667
     75 H33A      -65.0210  -71.1380  -80.1540 ha        1 ETG      0.136000
     76 HN34      -64.4950  -73.1670  -80.5890 ha        1 ETG      0.355000
     77 N21       -56.4070  -70.1130  -80.5720 nu        1 ETG     -0.175000
     78 O35       -61.8840  -73.0790  -77.6630 o         1 ETG     -0.927000
     79 H252       69.6800   67.1960   85.1720 hn        1 ETG      0.262500
     80 H342      -63.0470  -70.8280  -78.8550 hn        1 ETG      0.250000
     81 H11       -56.6810  -69.3430  -77.9990 ha        1 ETG      0.216000
@<TRIPOS>BOND
     1    1    2 1   
     2    1    5 1   
     3    2   39 1   
     4    2   41 1   
     5    2   43 1   
     6    3    6 1   
     7    3    8 1   
     8    3   40 1   
     9    4    9 1   
    10    4   37 1   
    11    4   38 1   
    12    4   42 1   
    13    5   46 1   
    14    6    8 1   
    15    6   10 1   
    16    6   45 1   
    17    7    9 1   
    18    7   44 1   
    19    7   47 1   
    20    7   48 1   
    21    8   51 1   
    22    9   10 1   
    23    9   23 1   
    24   10   49 1   
    25   10   50 1   
    26   11   12 1   
    27   11   14 1   
    28   11   81 1   
    29   12   13 1   
    30   12   52 1   
    31   13   16 1   
    32   13   53 1   
    33   14   15 1   
    34   14   77 1   
    35   15   16 1   
    36   15   20 1   
    37   16   17 1   
    38   17   34 1   
    39   17   54 1   
    40   18   19 1   
    41   18   76 1   
    42   19   55 1   
    43   19   56 1   
    44   21   57 1   
    45   21   59 1   
    46   21   60 1   
    47   21   61 1   
    48   22   62 1   
    49   22   77 1   
    50   23   24 1   
    51   23   36 1   
    52   24   25 1   
    53   24   65 1   
    54   24   79 1   
    55   25   26 1   
    56   25   63 1   
    57   25   66 1   
    58   26   27 1   
    59   26   69 1   
    60   28   29 1   
    61   28   68 1   
    62   28   70 1   
    63   28   71 1   
    64   29   30 1   
    65   30   31 1   
    66   31   72 1   
    67   31   73 1   
    68   31   74 1   
    69   32   33 1   
    70   32   75 1   
    71   33   34 1   
    72   33   80 1   
    73   34   35 1   
    74   34   78 1   
    75   58   77 1   
    76   64   67 1   
@<TRIPOS>SUBSTRUCTURE
     1 ETG         1 TEMP              0 ****  ****    0 ROOT
