@<TRIPOS>MOLECULE
ETI
    8     7     1     0     0
SMALL
bcc


@<TRIPOS>ATOM
      1 C1         -1.5400    0.6750    0.0000 c3        1 ETI      0.069500
      2 C2         -2.5130   -0.4620   -0.0000 c3        1 ETI     -0.092100
      3 I           0.4390    0.0670    0.0000 i         1 ETI     -0.255900
      4 H11        -1.6760    1.3110   -0.9050 h1        1 ETI      0.070700
      5 H12        -1.6760    1.3110    0.9050 h1        1 ETI      0.070700
      6 H21        -2.3900   -1.1040    0.9060 hc        1 ETI      0.045700
      7 H22        -3.5590   -0.0620   -0.0000 hc        1 ETI      0.045700
      8 H23        -2.3900   -1.1040   -0.9060 hc        1 ETI      0.045700
@<TRIPOS>BOND
     1    1    2 1   
     2    1    3 1   
     3    1    4 1   
     4    1    5 1   
     5    2    6 1   
     6    2    7 1   
     7    2    8 1   
@<TRIPOS>SUBSTRUCTURE
     1 ETI         1 TEMP              0 ****  ****    0 ROOT
