@<TRIPOS>MOLECULE
ETI
    8     7     1     0     0
SMALL
bcc


@<TRIPOS>ATOM
      1 C1         -0.7090   -0.0000   -0.1330 c3        1 ETI      0.069500
      2 C2          0.8040   -0.0000   -0.1330 c3        1 ETI     -0.092100
      3 I          -1.4120   -0.0000    1.8530 i         1 ETI     -0.255900
      4 H11        -1.0350    0.7970   -0.5930 h1        1 ETI      0.070700
      5 H12        -1.0350   -0.7970   -0.5930 h1        1 ETI      0.070700
      6 H21         1.1290   -0.7970    0.3270 hc        1 ETI      0.045700
      7 H22         1.1290    0.7970    0.3270 hc        1 ETI      0.045700
      8 H23         1.1290   -0.0000   -1.0540 hc        1 ETI      0.045700
@<TRIPOS>BOND
     1    1    2 1   
     2    1    3 1   
     3    1    4 1   
     4    1    5 1   
     5    2    6 1   
     6    2    7 1   
     7    2    8 1   
@<TRIPOS>SUBSTRUCTURE
     1 ETI         1 TEMP              0 ****  ****    0 ROOT
