@<TRIPOS>MOLECULE
ETM
   21    20     1     0     0
SMALL
bcc


@<TRIPOS>ATOM
      1 SD          0.0530   -0.4190   -0.1350 sh        1 ETM     -0.261900
      2 C1          1.7670   -0.0320   -0.1810 c3        1 ETM     -0.056300
      3 C2          2.2960   -0.0660    1.2410 c3        1 ETM      0.113800
      4 N1          3.8010   -0.0290    1.3820 n4        1 ETM     -0.606800
      5 C3          4.3630    1.1520    0.6660 c3        1 ETM      0.088100
      6 C4          4.4050   -1.2790    0.8340 c3        1 ETM      0.088100
      7 C5          4.1350    0.0740    2.8370 c3        1 ETM      0.088100
      8 HSD        -0.4570    0.7980   -0.0390 hs        1 ETM      0.213800
      9 H11         1.9650    0.9540   -0.6660 h1        1 ETM      0.097700
     10 H12         2.2360   -0.8290   -0.8150 h1        1 ETM      0.097700
     11 H21         1.8920    0.8220    1.8100 hx        1 ETM      0.107700
     12 H22         1.9400   -1.0100    1.7490 hx        1 ETM      0.107700
     13 H31         5.4670    1.2170    0.8630 hx        1 ETM      0.102367
     14 H32         4.1890    1.0390   -0.4370 hx        1 ETM      0.102367
     15 H33         3.8600    2.0850    1.0340 hx        1 ETM      0.102367
     16 H41         5.5150   -1.2610    1.0060 hx        1 ETM      0.102367
     17 H42         3.9580   -2.1680    1.3540 hx        1 ETM      0.102367
     18 H43         4.2020   -1.3470   -0.2670 hx        1 ETM      0.102367
     19 H51         5.2500    0.0690    2.9640 hx        1 ETM      0.102367
     20 H52         3.7150    1.0300    3.2490 hx        1 ETM      0.102367
     21 H53         3.6900   -0.8000    3.3830 hx        1 ETM      0.102367
@<TRIPOS>BOND
     1    1    2 1   
     2    1    8 1   
     3    2    3 1   
     4    2    9 1   
     5    2   10 1   
     6    3    4 1   
     7    3   11 1   
     8    3   12 1   
     9    4    5 1   
    10    4    6 1   
    11    4    7 1   
    12    5   13 1   
    13    5   14 1   
    14    5   15 1   
    15    6   16 1   
    16    6   17 1   
    17    6   18 1   
    18    7   19 1   
    19    7   20 1   
    20    7   21 1   
@<TRIPOS>SUBSTRUCTURE
     1 ETM         1 TEMP              0 ****  ****    0 ROOT
