@<TRIPOS>MOLECULE
ETM
   21    20     1     0     0
SMALL
bcc


@<TRIPOS>ATOM
      1 SD          0.0820   -0.4600   -0.1950 sh        1 ETM     -0.261900
      2 C1          1.7900   -0.0470   -0.2080 c3        1 ETM     -0.056300
      3 C2          2.2940   -0.0800    1.2230 c3        1 ETM      0.113800
      4 N1          3.7950   -0.0230    1.3920 n4        1 ETM     -0.606800
      5 C3          4.3540    1.1690    0.6900 c3        1 ETM      0.088100
      6 C4          4.4270   -1.2620    0.8510 c3        1 ETM      0.088100
      7 C5          4.1010    0.0790    2.8520 c3        1 ETM      0.088100
      8 HSD        -0.4480    0.7500   -0.1010 hs        1 ETM      0.213800
      9 H11         1.9820    0.9450   -0.6830 h1        1 ETM      0.097700
     10 H12         2.2830   -0.8320   -0.8380 h1        1 ETM      0.097700
     11 H21         1.8670    0.7980    1.7900 hx        1 ETM      0.107700
     12 H22         1.9420   -1.0320    1.7200 hx        1 ETM      0.107700
     13 H31         5.4520    1.2480    0.9080 hx        1 ETM      0.102367
     14 H32         4.2020    1.0580   -0.4160 hx        1 ETM      0.102367
     15 H33         3.8300    2.0930    1.0530 hx        1 ETM      0.102367
     16 H41         5.5330   -1.2290    1.0420 hx        1 ETM      0.102367
     17 H42         3.9840   -2.1590    1.3600 hx        1 ETM      0.102367
     18 H43         4.2440   -1.3290   -0.2550 hx        1 ETM      0.102367
     19 H51         5.2140    0.0880    3.0000 hx        1 ETM      0.102367
     20 H52         3.6620    1.0280    3.2610 hx        1 ETM      0.102367
     21 H53         3.6580   -0.8030    3.3870 hx        1 ETM      0.102367
@<TRIPOS>BOND
     1    1    2 1   
     2    1    8 1   
     3    2    3 1   
     4    2    9 1   
     5    2   10 1   
     6    3    4 1   
     7    3   11 1   
     8    3   12 1   
     9    4    5 1   
    10    4    6 1   
    11    4    7 1   
    12    5   13 1   
    13    5   14 1   
    14    5   15 1   
    15    6   16 1   
    16    6   17 1   
    17    6   18 1   
    18    7   19 1   
    19    7   20 1   
    20    7   21 1   
@<TRIPOS>SUBSTRUCTURE
     1 ETM         1 TEMP              0 ****  ****    0 ROOT
