@<TRIPOS>MOLECULE
ETM
   21    20     1     0     0
SMALL
bcc


@<TRIPOS>ATOM
      1 SD          2.6670   -0.0100   -0.4600 sh        1 ETM     -0.261900
      2 C1          1.1070    0.6840   -0.0460 c3        1 ETM     -0.056300
      3 C2          0.0720   -0.4270   -0.0810 c3        1 ETM      0.113800
      4 N1         -1.3710    0.0190   -0.0230 n4        1 ETM     -0.606800
      5 C3         -1.7340    0.7690   -1.2610 c3        1 ETM      0.088100
      6 C4         -1.6030    0.8820    1.1700 c3        1 ETM      0.088100
      7 C5         -2.2350   -1.1980    0.0770 c3        1 ETM      0.088100
      8 HSD         3.1150   -0.3100    0.7490 hs        1 ETM      0.213800
      9 H11         0.9060    1.4590   -0.8300 h1        1 ETM      0.097700
     10 H12         1.1200    1.1950    0.9470 h1        1 ETM      0.097700
     11 H21         0.2370   -1.1180    0.7960 hx        1 ETM      0.107700
     12 H22         0.1970   -1.0210   -1.0340 hx        1 ETM      0.107700
     13 H31        -1.1250    1.7100   -1.3250 hx        1 ETM      0.102367
     14 H32        -1.5320    0.1270   -2.1590 hx        1 ETM      0.102367
     15 H33        -2.8240    1.0360   -1.2270 hx        1 ETM      0.102367
     16 H41        -2.6970    1.1220    1.2510 hx        1 ETM      0.102367
     17 H42        -1.2680    0.3390    2.0940 hx        1 ETM      0.102367
     18 H43        -1.0210    1.8360    1.0610 hx        1 ETM      0.102367
     19 H51        -2.0430   -1.8640   -0.8070 hx        1 ETM      0.102367
     20 H52        -1.9960   -1.7500    1.0240 hx        1 ETM      0.102367
     21 H53        -3.3140   -0.8890    0.0870 hx        1 ETM      0.102367
@<TRIPOS>BOND
     1    1    2 1   
     2    1    8 1   
     3    2    3 1   
     4    2    9 1   
     5    2   10 1   
     6    3    4 1   
     7    3   11 1   
     8    3   12 1   
     9    4    5 1   
    10    4    6 1   
    11    4    7 1   
    12    5   13 1   
    13    5   14 1   
    14    5   15 1   
    15    6   16 1   
    16    6   17 1   
    17    6   18 1   
    18    7   19 1   
    19    7   20 1   
    20    7   21 1   
@<TRIPOS>SUBSTRUCTURE
     1 ETM         1 TEMP              0 ****  ****    0 ROOT
