@<TRIPOS>MOLECULE
ETM
   21    20     1     0     0
SMALL
bcc


@<TRIPOS>ATOM
      1 SD          0.0630   -0.4420   -0.1530 sh        1 ETM     -0.261900
      2 C1          1.7750   -0.0470   -0.1910 c3        1 ETM     -0.056300
      3 C2          2.2950   -0.0690    1.2350 c3        1 ETM      0.113800
      4 N1          3.7990   -0.0240    1.3860 n4        1 ETM     -0.606800
      5 C3          4.3600    1.1550    0.6660 c3        1 ETM      0.088100
      6 C4          4.4130   -1.2750    0.8500 c3        1 ETM      0.088100
      7 C5          4.1220    0.0890    2.8420 c3        1 ETM      0.088100
      8 HSD        -0.4530    0.7740   -0.0690 hs        1 ETM      0.213800
      9 H11         2.2520   -0.8460   -0.8160 h1        1 ETM      0.097700
     10 H12         1.9720    0.9370   -0.6800 h1        1 ETM      0.097700
     11 H21         1.8830    0.8200    1.7960 hx        1 ETM      0.107700
     12 H22         1.9400   -1.0120    1.7470 hx        1 ETM      0.107700
     13 H31         4.1940    1.0350   -0.4370 hx        1 ETM      0.102367
     14 H32         5.4620    1.2260    0.8710 hx        1 ETM      0.102367
     15 H33         3.8500    2.0880    1.0260 hx        1 ETM      0.102367
     16 H41         3.9660   -2.1630    1.3710 hx        1 ETM      0.102367
     17 H42         4.2180   -1.3490   -0.2530 hx        1 ETM      0.102367
     18 H43         5.5210   -1.2500    1.0290 hx        1 ETM      0.102367
     19 H51         3.6960    1.0450    3.2460 hx        1 ETM      0.102367
     20 H52         3.6790   -0.7840    3.3900 hx        1 ETM      0.102367
     21 H53         5.2370    0.0900    2.9770 hx        1 ETM      0.102367
@<TRIPOS>BOND
     1    1    2 1   
     2    1    8 1   
     3    2    3 1   
     4    2    9 1   
     5    2   10 1   
     6    3    4 1   
     7    3   11 1   
     8    3   12 1   
     9    4    5 1   
    10    4    6 1   
    11    4    7 1   
    12    5   13 1   
    13    5   14 1   
    14    5   15 1   
    15    6   16 1   
    16    6   17 1   
    17    6   18 1   
    18    7   19 1   
    19    7   20 1   
    20    7   21 1   
@<TRIPOS>SUBSTRUCTURE
     1 ETM         1 TEMP              0 ****  ****    0 ROOT
