@<TRIPOS>MOLECULE
ETN
   14    13     1     0     0
SMALL
bcc


@<TRIPOS>ATOM
      1 N           0.0440   -0.0000    0.0170 ny        1 ETN     -0.761000
      2 C           1.5230   -0.0010   -0.0310 c3        1 ETN      0.077100
      3 C1         -0.4760   -0.0000    1.4230 c3        1 ETN      0.106800
      4 C2         -1.9880   -0.0010    1.4800 c3        1 ETN     -0.141100
      5 HN         -0.3170   -0.8300   -0.4710 hn        1 ETN      0.454800
      6 H1          1.9170    0.9160    0.4870 hx        1 ETN      0.111700
      7 H2          1.9170   -0.9180    0.4860 hx        1 ETN      0.111700
      8 H3          1.8590   -0.0000   -1.1030 hx        1 ETN      0.111700
      9 H11        -0.0640   -0.9160    1.9380 hx        1 ETN      0.109700
     10 H12        -0.0640    0.9160    1.9380 hx        1 ETN      0.109700
     11 H21        -2.4230    0.9090    0.9980 hc        1 ETN      0.084367
     12 H22        -2.2930   -0.0010    2.5590 hc        1 ETN      0.084367
     13 H23        -2.4230   -0.9110    0.9990 hc        1 ETN      0.084367
     14 HN3        -0.3160    0.8300   -0.4700 hn        1 ETN      0.454800
@<TRIPOS>BOND
     1    1    2 1   
     2    1    3 1   
     3    1    5 1   
     4    1   14 1   
     5    2    6 1   
     6    2    7 1   
     7    2    8 1   
     8    3    4 1   
     9    3    9 1   
    10    3   10 1   
    11    4   11 1   
    12    4   12 1   
    13    4   13 1   
@<TRIPOS>SUBSTRUCTURE
     1 ETN         1 TEMP              0 ****  ****    0 ROOT
