@<TRIPOS>MOLECULE
ETN
   13    12     1     0     0
SMALL
bcc


@<TRIPOS>ATOM
      1 N           0.2200   -0.1220   -0.7730 n3        1 ETN     -0.827200
      2 C           1.6460   -0.1220   -0.7730 c3        1 ETN      0.153100
      3 C1         -0.2550   -0.1220    0.5690 c3        1 ETN      0.161800
      4 C2         -1.6510    0.4600    0.6100 c3        1 ETN     -0.098100
      5 HN         -0.0840   -0.8660   -1.2030 hn        1 ETN      0.356800
      6 H1          1.9710    0.7240   -0.4090 h1        1 ETN      0.028367
      7 H2          1.9710   -0.8590   -0.2230 h1        1 ETN      0.028367
      8 H3          1.9710   -0.2290   -1.6870 h1        1 ETN      0.028367
      9 H11         0.3390    0.4190    1.1240 h1        1 ETN      0.026700
     10 H12        -0.2730   -1.0370    0.9080 h1        1 ETN      0.026700
     11 H21        -2.2680   -0.1430    0.1520 hc        1 ETN      0.038700
     12 H22        -1.9310    0.5670    1.5390 hc        1 ETN      0.038700
     13 H23        -1.6550    1.3290    0.1660 hc        1 ETN      0.038700
@<TRIPOS>BOND
     1    1    2 1   
     2    1    3 1   
     3    1    5 1   
     4    2    6 1   
     5    2    7 1   
     6    2    8 1   
     7    3    4 1   
     8    3    9 1   
     9    3   10 1   
    10    4   11 1   
    11    4   12 1   
    12    4   13 1   
@<TRIPOS>SUBSTRUCTURE
     1 ETN         1 TEMP              0 ****  ****    0 ROOT
