@<TRIPOS>MOLECULE
ETN
   13    12     1     0     0
SMALL
bcc


@<TRIPOS>ATOM
      1 N          -0.4410    0.1280   -0.5590 n3        1 ETN     -0.827200
      2 C           0.1420   -0.0550   -1.8600 c3        1 ETN      0.153100
      3 C1          0.5110    0.0080    0.5280 c3        1 ETN      0.161800
      4 C2         -0.1390   -0.0250    1.9010 c3        1 ETN     -0.098100
      5 HN         -1.2110   -0.5000   -0.4230 hn        1 ETN      0.356800
      6 H1         -0.6600    0.0680   -2.6340 h1        1 ETN      0.028367
      7 H2          0.9250    0.7320   -2.0250 h1        1 ETN      0.028367
      8 H3          0.6260   -1.0610   -2.0050 h1        1 ETN      0.028367
      9 H11         1.1960    0.9020    0.4670 h1        1 ETN      0.026700
     10 H12         1.1600   -0.9120    0.4190 h1        1 ETN      0.026700
     11 H21         0.6600   -0.0660    2.6790 hc        1 ETN      0.038700
     12 H22        -0.7580    0.8880    2.0740 hc        1 ETN      0.038700
     13 H23        -0.7930   -0.9230    2.0160 hc        1 ETN      0.038700
@<TRIPOS>BOND
     1    1    2 1   
     2    1    3 1   
     3    1    5 1   
     4    2    6 1   
     5    2    7 1   
     6    2    8 1   
     7    3    4 1   
     8    3    9 1   
     9    3   10 1   
    10    4   11 1   
    11    4   12 1   
    12    4   13 1   
@<TRIPOS>SUBSTRUCTURE
     1 ETN         1 TEMP              0 ****  ****    0 ROOT
