@<TRIPOS>MOLECULE
ETO
   11    10     1     0     0
SMALL
bcc


@<TRIPOS>ATOM
      1 CB         -1.6030   -0.0020   -0.3800 c3        1 ETO     -0.100100
      2 CA         -0.0980   -0.1390   -0.4280 c3        1 ETO      0.131400
      3 O2          0.4480    0.2420    0.8130 os        1 ETO     -0.429900
      4 C           1.8490    0.1500    0.8710 c         1 ETO      0.619900
      5 O           2.4370    0.4520    1.8920 o         1 ETO     -0.486000
      6 HB1        -1.9850   -0.2820   -1.2380 hc        1 ETO      0.052367
      7 HB2        -1.8410    0.9330   -0.2060 hc        1 ETO      0.052367
      8 HB3        -1.9600   -0.5690    0.3360 hc        1 ETO      0.052367
      9 HA1         0.2600    0.4400   -1.1330 h1        1 ETO      0.034700
     10 HA2         0.1400   -1.0700   -0.6180 h1        1 ETO      0.034700
     11 H           2.3520   -0.1550    0.0900 h5        1 ETO      0.037200
@<TRIPOS>BOND
     1    1    2 1   
     2    1    6 1   
     3    1    7 1   
     4    1    8 1   
     5    2    3 1   
     6    2    9 1   
     7    2   10 1   
     8    3    4 1   
     9    4    5 2   
    10    4   11 1   
@<TRIPOS>SUBSTRUCTURE
     1 ETO         1 TEMP              0 ****  ****    0 ROOT
