@<TRIPOS>MOLECULE
ETO
   11    10     1     0     0
SMALL
bcc


@<TRIPOS>ATOM
      1 CB          2.3460    0.3610   -0.0000 c3        1 ETO     -0.100100
      2 CA          1.1500   -0.5600    0.0000 c3        1 ETO      0.131400
      3 O2         -0.0130    0.2800   -0.0010 os        1 ETO     -0.429900
      4 C          -1.2140   -0.3830    0.0000 c         1 ETO      0.619900
      5 O          -2.1890    0.3630   -0.0000 o         1 ETO     -0.486000
      6 HB1         2.3330    1.0160    0.9040 hc        1 ETO      0.052367
      7 HB2         3.2800   -0.2490    0.0000 hc        1 ETO      0.052367
      8 HB3         2.3330    1.0150   -0.9050 hc        1 ETO      0.052367
      9 HA1         1.1350   -1.2090   -0.9150 h1        1 ETO      0.034700
     10 HA2         1.1350   -1.2080    0.9160 h1        1 ETO      0.034700
     11 H          -1.2070   -1.4870    0.0020 h5        1 ETO      0.037200
@<TRIPOS>BOND
     1    1    2 1   
     2    1    6 1   
     3    1    7 1   
     4    1    8 1   
     5    2    3 1   
     6    2    9 1   
     7    2   10 1   
     8    3    4 1   
     9    4    5 2   
    10    4   11 1   
@<TRIPOS>SUBSTRUCTURE
     1 ETO         1 TEMP              0 ****  ****    0 ROOT
