@<TRIPOS>MOLECULE
ETQ
   48    47     1     0     0
SMALL
bcc


@<TRIPOS>ATOM
      1 C1          2.2940   -1.1650    0.0650 c1        1 ETQ      0.119000
      2 N1         -0.3400    0.2020   -0.1210 n         1 ETQ     -0.370000
      3 O1          1.6040   -1.7060   -1.0720 o         1 ETQ     -0.260000
      4 CL1         4.5350   -1.3980    3.9950 cl        1 ETQ      0.010000
      5 C2          3.5620   -1.7160    0.1040 c1        1 ETQ     -0.156000
      6 N2         -3.5600    0.7960   -1.3110 n3        1 ETQ     -0.257000
      7 O2          2.2220   -0.2150    3.7540 os        1 ETQ     -0.200000
      8 C3          4.2870   -1.7180    1.2950 c1        1 ETQ     -0.065000
      9 O3         -0.1240    0.6250    2.1470 o         1 ETQ     -0.346000
     10 C4          3.7350   -1.1650    2.4500 c2        1 ETQ     -0.113000
     11 C5          2.4590   -0.6110    2.4120 c2        1 ETQ      0.136000
     12 C6          2.8220    1.0340    4.1040 c3        1 ETQ     -0.075000
     13 C7          1.7360   -0.6100    1.2190 c2        1 ETQ     -0.164000
     14 C8          0.3570    0.1110    1.1420 c2        1 ETQ      0.355000
     15 C9         -1.7370   -0.1920   -0.2100 c3        1 ETQ     -0.023000
     16 C10        -2.6140    1.0610   -0.4490 c3        1 ETQ     -0.033000
     17 C11        -3.3550    1.4500    0.8650 c3        1 ETQ     -0.172000
     18 C12        -4.8330    1.6420    0.4650 c3        1 ETQ     -0.171000
     19 C13        -4.8280    1.6570   -0.8590 c3        1 ETQ     -0.072000
     20 C14        -3.1360    1.2180   -2.6560 c3        1 ETQ     -0.063000
     21 C15        -4.2360    0.7700   -3.7220 c3        1 ETQ     -0.212000
     22 C16         4.3720   -2.6050   -0.8700 c3        1 ETQ     -0.124000
     23 C17         5.4690   -1.7810   -1.5200 c3        1 ETQ     -0.217000
     24 HN1         0.0900    0.4940   -0.8470 hn        1 ETQ      0.226000
     25 HO1         1.2580   -2.5100   -0.8590 ho        1 ETQ      0.233000
     26 H3          5.2060   -2.1150    1.3190 ha        1 ETQ      0.153000
     27 H6          2.1420    1.6380    4.4320 h1        1 ETQ      0.087333
     28 H6A         3.5080    0.8860    4.8180 h1        1 ETQ      0.087333
     29 H6B         3.2480    1.4220    3.3160 h1        1 ETQ      0.087333
     30 H9         -1.8550   -0.8210   -0.9570 h1        1 ETQ      0.105000
     31 H9A        -2.0130   -0.6350    0.6470 h1        1 ETQ      0.105000
     32 H10        -2.0500    1.8290   -0.7740 h1        1 ETQ      0.071000
     33 H11        -2.9930    2.2830    1.2230 hc        1 ETQ      0.097500
     34 H11A       -3.2740    0.7440    1.5160 hc        1 ETQ      0.097500
     35 H12        -5.3750    0.8910    0.7950 hc        1 ETQ      0.086500
     36 H12A       -5.1690    2.4700    0.8070 hc        1 ETQ      0.086500
     37 H13        -4.7440    2.5800   -1.1850 h1        1 ETQ      0.080000
     38 H13A       -5.6360    1.2580   -1.1990 h1        1 ETQ      0.080000
     39 H14        -2.2610    0.7910   -2.8800 h1        1 ETQ      0.065000
     40 H14A       -3.0410    2.1650   -2.6770 h1        1 ETQ      0.065000
     41 H15        -4.8750    1.5200   -3.8750 hc        1 ETQ      0.078333
     42 H15A       -3.8070    0.5440   -4.5460 hc        1 ETQ      0.078333
     43 H15B       -4.7230   -0.0110   -3.3830 hc        1 ETQ      0.078333
     44 H16         4.7670   -3.3380   -0.3820 hc        1 ETQ      0.091500
     45 H16A        3.7840   -2.9530   -1.5520 hc        1 ETQ      0.091500
     46 H17         5.8240   -1.1420   -0.8750 hc        1 ETQ      0.080000
     47 H17A        5.1030   -1.2980   -2.2930 hc        1 ETQ      0.080000
     48 H17B        6.1930   -2.3800   -1.8210 hc        1 ETQ      0.080000
@<TRIPOS>BOND
     1    1    5 1   
     2    1   13 1   
     3    2   14 1   
     4    2   15 1   
     5    2   24 1   
     6    3   25 1   
     7    4   10 1   
     8    5   22 1   
     9    6   16 1   
    10    6   19 1   
    11    6   20 1   
    12    7   11 1   
    13    7   12 1   
    14    8   10 1   
    15    8   26 1   
    16    9   14 1   
    17   10   11 1   
    18   11   13 1   
    19   12   27 1   
    20   12   28 1   
    21   12   29 1   
    22   13   14 1   
    23   15   16 1   
    24   15   30 1   
    25   15   31 1   
    26   16   17 1   
    27   16   32 1   
    28   17   18 1   
    29   17   33 1   
    30   17   34 1   
    31   18   19 1   
    32   18   35 1   
    33   18   36 1   
    34   19   37 1   
    35   19   38 1   
    36   20   21 1   
    37   20   39 1   
    38   20   40 1   
    39   21   41 1   
    40   21   42 1   
    41   21   43 1   
    42   22   23 1   
    43   22   44 1   
    44   22   45 1   
    45   23   46 1   
    46   23   47 1   
    47   23   48 1   
@<TRIPOS>SUBSTRUCTURE
     1 ETQ         1 TEMP              0 ****  ****    0 ROOT
