@<TRIPOS>MOLECULE
ETQ
   48    49     1     0     0
SMALL
bcc


@<TRIPOS>ATOM
      1 C1          2.0540   -1.1140    1.1880 ca        1 ETQ      0.209100
      2 N1         -1.5080   -1.0050    0.4030 n         1 ETQ     -0.524900
      3 O1          1.9760   -1.4600    2.5070 oh        1 ETQ     -0.500100
      4 CL1         2.7940    0.0400   -3.0930 cl        1 ETQ     -0.081400
      5 C2          3.3490   -1.2290    0.6190 ca        1 ETQ     -0.116300
      6 N2         -3.8780    0.4410   -0.8880 n3        1 ETQ     -0.732600
      7 O2          0.0910    0.1150   -1.6700 os        1 ETQ     -0.346900
      8 C3          3.5310   -0.8790   -0.7110 ca        1 ETQ     -0.064000
      9 O3         -0.4580   -0.1390    2.2420 o         1 ETQ     -0.646100
     10 C4          2.4580   -0.4360   -1.4950 ca        1 ETQ     -0.056600
     11 C5          1.1690   -0.3760   -0.9480 ca        1 ETQ      0.164100
     12 C6         -0.3180   -0.7060   -2.7690 c3        1 ETQ      0.100700
     13 C7          0.9530   -0.7040    0.4080 ca        1 ETQ     -0.228600
     14 C8         -0.3810   -0.5620    1.0630 c         1 ETQ      0.677700
     15 C9         -2.8170   -0.8460    0.9790 c3        1 ETQ      0.089000
     16 C10        -3.5790    0.4350    0.5550 c3        1 ETQ      0.144500
     17 C11        -4.9040    0.5070    1.3440 c3        1 ETQ     -0.088400
     18 C12        -6.0170    0.5790    0.3100 c3        1 ETQ     -0.096400
     19 C13        -5.3300    0.5070   -1.0610 c3        1 ETQ      0.158800
     20 C15        -3.3830    1.4530   -3.1190 c3        1 ETQ     -0.096100
     21 C16         4.4940   -1.6930    1.4490 c3        1 ETQ     -0.026100
     22 C17         4.5110   -3.1960    1.5980 c3        1 ETQ     -0.090100
     23 HN1        -1.4740   -1.0840   -0.5890 hn        1 ETQ      0.321500
     24 HO1         1.1260   -1.1740    2.8840 ho        1 ETQ      0.463000
     25 H3          4.5390   -0.9380   -1.1540 ha        1 ETQ      0.154000
     26 H6         -1.3270   -0.2940   -3.0330 h1        1 ETQ      0.053033
     27 H6A         0.3900   -0.5920   -3.6230 h1        1 ETQ      0.053033
     28 H6B        -0.3910   -1.7780   -2.4640 h1        1 ETQ      0.053033
     29 H9         -3.4210   -1.7510    0.6870 h1        1 ETQ      0.067700
     30 H9A        -2.7180   -0.8190    2.1020 h1        1 ETQ      0.067700
     31 H10        -2.9380    1.3230    0.8360 h1        1 ETQ      0.056700
     32 H11        -5.0290   -0.3900    2.0000 hc        1 ETQ      0.051200
     33 H11A       -4.9050    1.4100    2.0020 hc        1 ETQ      0.051200
     34 H12        -6.7360   -0.2670    0.4310 hc        1 ETQ      0.047700
     35 H12A       -6.5950    1.5310    0.4080 hc        1 ETQ      0.047700
     36 H13        -5.6420    1.3840   -1.6920 h1        1 ETQ      0.043700
     37 H13A       -5.6380   -0.4290   -1.6020 h1        1 ETQ      0.043700
     38 H14        -3.3480    2.4980   -1.2300 h1        1 ETQ      0.039200
     39 H14A       -2.0390    1.2480   -1.4360 h1        1 ETQ      0.039200
     40 H15        -3.3180    0.4220   -3.5420 hc        1 ETQ      0.038033
     41 H15A       -4.3890    1.8680   -3.3650 hc        1 ETQ      0.038033
     42 H15B       -2.6080    2.0900   -3.6100 hc        1 ETQ      0.038033
     43 H16         5.4590   -1.3490    0.9880 hc        1 ETQ      0.054700
     44 H16A        4.4180   -1.2220    2.4670 hc        1 ETQ      0.054700
     45 H17         3.5670   -3.5450    2.0830 hc        1 ETQ      0.038367
     46 H17A        4.6050   -3.6940    0.6030 hc        1 ETQ      0.038367
     47 H17B        5.3750   -3.5060    2.2330 hc        1 ETQ      0.038367
     48 C14        -3.1350    1.4580   -1.6180 c3        1 ETQ      0.157800
@<TRIPOS>BOND
     1    1    3 1   
     2    1    5 ar  
     3    1   13 ar  
     4    2   14 1   
     5    2   15 1   
     6    2   23 1   
     7    3   24 1   
     8    4   10 1   
     9    5    8 ar  
    10    5   21 1   
    11    6   16 1   
    12    6   19 1   
    13    6   48 1   
    14    7   11 1   
    15    7   12 1   
    16    8   10 ar  
    17    8   25 1   
    18    9   14 2   
    19   10   11 ar  
    20   11   13 ar  
    21   12   26 1   
    22   12   27 1   
    23   12   28 1   
    24   13   14 1   
    25   15   16 1   
    26   15   29 1   
    27   15   30 1   
    28   16   17 1   
    29   16   31 1   
    30   17   18 1   
    31   17   32 1   
    32   17   33 1   
    33   18   19 1   
    34   18   34 1   
    35   18   35 1   
    36   19   36 1   
    37   19   37 1   
    38   20   40 1   
    39   20   41 1   
    40   20   42 1   
    41   20   48 1   
    42   21   22 1   
    43   21   43 1   
    44   21   44 1   
    45   22   45 1   
    46   22   46 1   
    47   22   47 1   
    48   38   48 1   
    49   39   48 1   
@<TRIPOS>SUBSTRUCTURE
     1 ETQ         1 TEMP              0 ****  ****    0 ROOT
