@<TRIPOS>MOLECULE
ETQ
   49    49     1     0     0
SMALL
bcc


@<TRIPOS>ATOM
      1 C1         -0.5580    0.5620    0.4620 c2        1 ETQ      0.197000
      2 N1         -0.0090    3.8030   -1.0010 n         1 ETQ     -0.372000
      3 O1         -1.6730    0.2010   -0.2120 oh        1 ETQ     -0.240000
      4 CL1         3.1830    1.2780    2.9080 cl        1 ETQ      0.016000
      5 C2          0.0800   -0.5790    1.2060 c3        1 ETQ     -0.121000
      6 N2         -5.1880    3.0340    0.7100 n3        1 ETQ     -0.073000
      7 O2          1.4220    3.4530    1.3200 os        1 ETQ     -0.233000
      8 C3          1.2790   -0.2280    1.9540 c1        1 ETQ     -0.063000
      9 O3         -1.9960    2.9480   -0.3210 o         1 ETQ     -0.525000
     10 C4          1.7590    1.0830    1.9940 c2        1 ETQ     -0.257000
     11 C5          1.1240    2.1240    1.3240 c2        1 ETQ      0.252000
     12 C6          2.4200    3.9940    2.1900 c3        1 ETQ     -0.073000
     13 C7         -0.0480    1.8440    0.5050 c2        1 ETQ     -0.328000
     14 C8         -0.7290    2.9140   -0.2670 c2        1 ETQ      0.388000
     15 C9         -4.6560    1.2780   -1.0150 c3        1 ETQ     -0.242000
     16 C10        -4.6730    1.6610    0.4560 c3        1 ETQ     -0.019000
     17 C11        -5.5530    0.7050    1.2830 c3        1 ETQ     -0.174000
     18 C12        -6.4840    1.5610    2.1320 c3        1 ETQ     -0.171000
     19 C13        -6.2880    3.0130    1.6830 c3        1 ETQ     -0.086000
     20 C15        -5.1490    5.4950    0.3900 c3        1 ETQ     -0.257000
     21 C16         0.3490   -1.7750    0.2850 c3        1 ETQ     -0.114000
     22 C17         1.4540   -1.5120   -0.7030 c3        1 ETQ     -0.223000
     23 HN1        -0.4730    4.5320   -1.4860 hn        1 ETQ      0.242500
     24 HO1        -2.0220    0.9380   -0.7490 ho        1 ETQ      0.250000
     25 H3         -0.6750   -0.9210    1.9880 hc        1 ETQ      0.174000
     26 H6          2.2100    3.7210    3.2510 h1        1 ETQ      0.108667
     27 H6A         3.4350    3.6610    1.8680 h1        1 ETQ      0.108667
     28 H6B         2.2970    5.0980    2.0330 h1        1 ETQ      0.108667
     29 H9         -3.9730    1.9510   -1.5920 hc        1 ETQ      0.110333
     30 H9A        -5.6760    1.3100   -1.4670 hc        1 ETQ      0.110333
     31 H10        -4.2650    0.2320   -1.0910 hc        1 ETQ      0.110333
     32 H11        -3.6040    1.6500    0.8380 h1        1 ETQ      0.157000
     33 H11A       -4.9040    0.0580    1.9250 hc        1 ETQ      0.125500
     34 H12        -6.1400    0.0350    0.6050 hc        1 ETQ      0.125500
     35 H12A       -6.2400    1.4600    3.2200 hc        1 ETQ      0.125500
     36 H13        -7.5520    1.2560    1.9920 hc        1 ETQ      0.125500
     37 H13A       -6.0260    3.6770    2.5530 h1        1 ETQ      0.134000
     38 H14        -7.2180    3.4150    1.1890 h1        1 ETQ      0.134000
     39 H14A       -3.8360    3.9740   -0.5560 h4        1 ETQ      0.229000
     40 H15        -4.3060    6.0700    0.8600 hc        1 ETQ      0.142333
     41 H15A       -6.0500    5.5790    1.0480 hc        1 ETQ      0.142333
     42 H15B       -5.3820    5.9700   -0.6000 hc        1 ETQ      0.142333
     43 H16         2.4090   -1.2750   -0.1710 hc        1 ETQ      0.085000
     44 H16A        0.6300   -2.6450    0.9380 hc        1 ETQ      0.105500
     45 H17        -0.6010   -2.0290   -0.2530 hc        1 ETQ      0.105500
     46 H17A        1.1970   -0.6570   -1.3730 hc        1 ETQ      0.085000
     47 H17B        1.6190   -2.4180   -1.3370 hc        1 ETQ      0.085000
     48 H121        0.9770    3.8560   -0.8990 hn        1 ETQ      0.242500
     49 C14        -4.6950    4.1060    0.1550 c2        1 ETQ      0.103000
@<TRIPOS>BOND
     1    1    3 1   
     2    1    5 1   
     3    1   13 1   
     4    2   14 1   
     5    2   23 1   
     6    2   48 1   
     7    3   24 1   
     8    4   10 1   
     9    5    8 1   
    10    5   21 1   
    11    5   25 1   
    12    6   16 1   
    13    6   19 1   
    14    6   49 1   
    15    7   11 1   
    16    7   12 1   
    17    8   10 1   
    18    9   14 1   
    19   10   11 1   
    20   11   13 1   
    21   12   26 1   
    22   12   27 1   
    23   12   28 1   
    24   13   14 1   
    25   15   16 1   
    26   15   29 1   
    27   15   30 1   
    28   15   31 1   
    29   16   17 1   
    30   16   32 1   
    31   17   18 1   
    32   17   33 1   
    33   17   34 1   
    34   18   19 1   
    35   18   35 1   
    36   18   36 1   
    37   19   37 1   
    38   19   38 1   
    39   20   40 1   
    40   20   41 1   
    41   20   42 1   
    42   20   49 1   
    43   21   22 1   
    44   21   44 1   
    45   21   45 1   
    46   22   43 1   
    47   22   46 1   
    48   22   47 1   
    49   39   49 1   
@<TRIPOS>SUBSTRUCTURE
     1 ETQ         1 TEMP              0 ****  ****    0 ROOT
