@<TRIPOS>MOLECULE
ETQ
   48    49     1     0     0
SMALL
bcc


@<TRIPOS>ATOM
      1 C1          0.1440   -0.9450    0.3510 c2        1 ETQ      0.209000
      2 N1         -2.7130    1.1940    0.0210 n         1 ETQ     -0.334000
      3 O1         -0.3020   -2.0460   -0.2830 oh        1 ETQ     -0.230000
      4 CL1         2.1120    2.4980    2.5430 cl        1 ETQ     -0.016000
      5 C2          1.6360   -0.9490    0.5570 c3        1 ETQ     -0.118000
      6 N2         -4.4510    3.6570    0.3730 n3        1 ETQ     -0.257000
      7 O2         -0.9920    2.0270    2.0680 os        1 ETQ     -0.224000
      8 C3          2.1680    0.2200    1.2480 c1        1 ETQ     -0.096000
      9 O3         -2.7440   -1.0270    0.5880 o         1 ETQ     -0.421000
     10 C4          1.3240    1.2030    1.7550 c2        1 ETQ     -0.263000
     11 C5         -0.0610    1.1530    1.5870 c2        1 ETQ      0.265000
     12 C6         -0.7170    2.7660    3.2610 c3        1 ETQ     -0.071000
     13 C7         -0.6540    0.0900    0.8050 c2        1 ETQ     -0.332000
     14 C8         -2.1140    0.0590    0.5080 c2        1 ETQ      0.357000
     15 C9         -4.1230    1.2570   -0.2500 c3        1 ETQ     -0.026000
     16 C10        -4.9030    2.2770    0.6200 c3        1 ETQ     -0.046000
     17 C11        -6.4050    2.1730    0.2770 c3        1 ETQ     -0.168000
     18 C12        -6.8450    3.5630   -0.1550 c3        1 ETQ     -0.175000
     19 C13        -5.5870    4.4420   -0.1110 c3        1 ETQ     -0.076000
     20 C15        -3.0970    5.5820    1.1890 c3        1 ETQ     -0.213000
     21 C16         2.3850   -1.1930   -0.7540 c3        1 ETQ     -0.113000
     22 C17         2.2960   -0.0250   -1.7010 c3        1 ETQ     -0.220000
     23 HN1        -2.9410    3.5200    1.8100 h1        1 ETQ      0.069000
     24 HO1        -1.2790   -2.0600   -0.3410 ho        1 ETQ      0.273000
     25 H3          1.8600   -1.8300    1.2440 hc        1 ETQ      0.173000
     26 H6         -0.1410    2.1570    3.9960 h1        1 ETQ      0.101000
     27 H6A        -1.7430    2.9940    3.6540 h1        1 ETQ      0.101000
     28 H6B        -0.1790    3.7080    2.9960 h1        1 ETQ      0.101000
     29 H9         -2.2280    2.0610    0.0950 hn        1 ETQ      0.244000
     30 H9A        -4.2510    1.5290   -1.3370 h1        1 ETQ      0.107500
     31 H10        -4.5820    0.2410   -0.0760 h1        1 ETQ      0.107500
     32 H11        -4.7560    1.9940    1.7040 h1        1 ETQ      0.087000
     33 H11A       -6.9760    1.8290    1.1740 hc        1 ETQ      0.091000
     34 H12        -6.5790    1.4290   -0.5400 hc        1 ETQ      0.091000
     35 H12A       -7.6290    3.9670    0.5320 hc        1 ETQ      0.088000
     36 H13        -7.2740    3.5480   -1.1860 hc        1 ETQ      0.088000
     37 H13A       -5.3230    4.7970   -1.1440 h1        1 ETQ      0.084500
     38 H14        -5.7740    5.3500    0.5260 h1        1 ETQ      0.084500
     39 H14A       -4.4320    4.3840    2.3960 h1        1 ETQ      0.069000
     40 H15        -2.5330    5.9260    2.0890 hc        1 ETQ      0.079000
     41 H15A       -3.8580    6.3570    0.9300 hc        1 ETQ      0.079000
     42 H15B       -2.3850    5.4900    0.3340 hc        1 ETQ      0.079000
     43 H16         1.2350    0.1780   -1.9850 hc        1 ETQ      0.080667
     44 H16A        1.9660   -2.1150   -1.2370 hc        1 ETQ      0.100000
     45 H17         3.4610   -1.3860   -0.4980 hc        1 ETQ      0.100000
     46 H17A        2.8740   -0.2430   -2.6310 hc        1 ETQ      0.080667
     47 H17B        2.7200    0.8950   -1.2270 hc        1 ETQ      0.080667
     48 C14        -3.7510    4.2460    1.5040 c3        1 ETQ     -0.072000
@<TRIPOS>BOND
     1    1    3 1   
     2    1    5 1   
     3    1   13 1   
     4    2   14 1   
     5    2   15 1   
     6    2   29 1   
     7    3   24 1   
     8    4   10 1   
     9    5    8 1   
    10    5   21 1   
    11    5   25 1   
    12    6   16 1   
    13    6   19 1   
    14    6   48 1   
    15    7   11 1   
    16    7   12 1   
    17    8   10 1   
    18    9   14 1   
    19   10   11 1   
    20   11   13 1   
    21   12   26 1   
    22   12   27 1   
    23   12   28 1   
    24   13   14 1   
    25   15   16 1   
    26   15   30 1   
    27   15   31 1   
    28   16   17 1   
    29   16   32 1   
    30   17   18 1   
    31   17   33 1   
    32   17   34 1   
    33   18   19 1   
    34   18   35 1   
    35   18   36 1   
    36   19   37 1   
    37   19   38 1   
    38   20   40 1   
    39   20   41 1   
    40   20   42 1   
    41   20   48 1   
    42   21   22 1   
    43   21   44 1   
    44   21   45 1   
    45   22   43 1   
    46   22   46 1   
    47   22   47 1   
    48   23   48 1   
    49   39   48 1   
@<TRIPOS>SUBSTRUCTURE
     1 ETQ         1 TEMP              0 ****  ****    0 ROOT
