@<TRIPOS>MOLECULE
ETR
   58    58     1     0     0
SMALL
bcc


@<TRIPOS>ATOM
      1 C1         -0.7730   -0.2700    0.6950 c3        1 ETR     -0.003800
      2 C2         -0.1880    1.1350    0.8640 c3        1 ETR     -0.071400
      3 C3         -0.9990    1.9860    1.8120 c3        1 ETR     -0.076400
      4 C4         -1.0520    1.3570    3.1870 c3        1 ETR     -0.043200
      5 C5         -1.3170   -0.1090    3.1460 c2        1 ETR     -0.100400
      6 C6         -1.1960   -0.8470    2.0250 ce        1 ETR     -0.101200
      7 C7         -1.3630   -2.3000    2.0380 ce        1 ETR     -0.045000
      8 C8         -2.4660   -3.0250    1.8000 cf        1 ETR     -0.188000
      9 C9         -3.8080   -2.5540    1.5040 cf        1 ETR      0.064800
     10 C10        -4.3640   -1.5040    2.1630 ce        1 ETR     -0.236000
     11 C11        -5.6960   -1.0300    1.9400 ce        1 ETR      0.053000
     12 C12        -6.2240    0.0090    2.6430 cf        1 ETR     -0.269000
     13 C13        -7.5450    0.5400    2.4890 cf        1 ETR      0.187800
     14 C14        -7.9580    1.5290    3.3610 ce        1 ETR     -0.402200
     15 C15        -9.2560    2.1170    3.2880 c         1 ETR      0.567300
     16 O         -10.2140    1.9030    2.5460 o         1 ETR     -0.489100
     17 N          -9.5240    3.2360    4.3020 ny        1 ETR     -0.680800
     18 C16         0.3010   -1.1570    0.0700 c3        1 ETR     -0.087100
     19 C17        -1.9710   -0.2160   -0.2480 c3        1 ETR     -0.087100
     20 C18        -1.6750   -0.6940    4.4630 c3        1 ETR     -0.067900
     21 C19        -4.5420   -3.3300    0.4720 c3        1 ETR     -0.094900
     22 C20        -8.4530    0.0560    1.4260 c3        1 ETR     -0.117900
     23 C21        -9.7670    2.6980    5.6740 c3        1 ETR      0.114800
     24 C22       -11.1420    2.0840    5.8370 c3        1 ETR     -0.131100
     25 H21        -0.1370    1.6300   -0.1410 hc        1 ETR      0.050700
     26 H22         0.8620    1.0500    1.2520 hc        1 ETR      0.050700
     27 H31        -2.0400    2.1160    1.4140 hc        1 ETR      0.042700
     28 H32        -0.5410    3.0070    1.8860 hc        1 ETR      0.042700
     29 H41        -0.0700    1.5180    3.7120 hc        1 ETR      0.050200
     30 H42        -1.8420    1.8630    3.8030 hc        1 ETR      0.050200
     31 H7         -0.4130   -2.8380    2.2350 ha        1 ETR      0.142000
     32 H8         -2.3780   -4.1300    1.8000 ha        1 ETR      0.143000
     33 H10        -3.7590   -0.9680    2.9190 ha        1 ETR      0.156000
     34 H11        -6.2880   -1.5600    1.1700 ha        1 ETR      0.132000
     35 H12        -5.5960    0.4960    3.4120 ha        1 ETR      0.145000
     36 H14        -7.2630    1.8770    4.1420 ha        1 ETR      0.155000
     37 HN         -8.7170    3.8640    4.3220 hn        1 ETR      0.451800
     38 H161       -0.1230   -2.1550   -0.2000 hc        1 ETR      0.038700
     39 H162        1.1470   -1.3080    0.7810 hc        1 ETR      0.038700
     40 H163        0.6950   -0.6770   -0.8580 hc        1 ETR      0.038700
     41 H171       -2.4600   -1.2190   -0.3090 hc        1 ETR      0.038700
     42 H172       -2.7230    0.5240    0.1150 hc        1 ETR      0.038700
     43 H173       -1.6370    0.0840   -1.2700 hc        1 ETR      0.038700
     44 H181       -2.6110   -0.2230    4.8540 hc        1 ETR      0.045367
     45 H182       -1.8350   -1.7990    4.4020 hc        1 ETR      0.045367
     46 H183       -0.8540   -0.4970    5.1990 hc        1 ETR      0.045367
     47 H191       -5.4580   -3.8000    0.9100 hc        1 ETR      0.062700
     48 H192       -4.8540   -2.6570   -0.3660 hc        1 ETR      0.062700
     49 H193       -3.9060   -4.1440    0.0420 hc        1 ETR      0.062700
     50 H201       -7.9710   -0.6760    0.7360 hc        1 ETR      0.082367
     51 H202       -8.8260    0.9200    0.8140 hc        1 ETR      0.082367
     52 H203       -9.3540   -0.4300    1.8880 hc        1 ETR      0.082367
     53 H211       -8.9690    1.9280    5.8820 hx        1 ETR      0.099200
     54 H212       -9.6420    3.5510    6.4020 hx        1 ETR      0.099200
     55 H221      -11.9480    2.8490    5.7210 hc        1 ETR      0.078700
     56 H222      -11.2110    1.6530    6.8670 hc        1 ETR      0.078700
     57 H223      -11.3160    1.2640    5.0970 hc        1 ETR      0.078700
     58 HN3       -10.3510    3.7610    3.9940 hn        1 ETR      0.451800
@<TRIPOS>BOND
     1    1    2 1   
     2    1    6 1   
     3    1   18 1   
     4    1   19 1   
     5    2    3 1   
     6    2   25 1   
     7    2   26 1   
     8    3    4 1   
     9    3   27 1   
    10    3   28 1   
    11    4    5 1   
    12    4   29 1   
    13    4   30 1   
    14    5    6 2   
    15    5   20 1   
    16    6    7 1   
    17    7    8 2   
    18    7   31 1   
    19    8    9 1   
    20    8   32 1   
    21    9   10 2   
    22    9   21 1   
    23   10   11 1   
    24   10   33 1   
    25   11   12 2   
    26   11   34 1   
    27   12   13 1   
    28   12   35 1   
    29   13   14 2   
    30   13   22 1   
    31   14   15 1   
    32   14   36 1   
    33   15   16 2   
    34   15   17 1   
    35   17   23 1   
    36   17   37 1   
    37   17   58 1   
    38   18   38 1   
    39   18   39 1   
    40   18   40 1   
    41   19   41 1   
    42   19   42 1   
    43   19   43 1   
    44   20   44 1   
    45   20   45 1   
    46   20   46 1   
    47   21   47 1   
    48   21   48 1   
    49   21   49 1   
    50   22   50 1   
    51   22   51 1   
    52   22   52 1   
    53   23   24 1   
    54   23   53 1   
    55   23   54 1   
    56   24   55 1   
    57   24   56 1   
    58   24   57 1   
@<TRIPOS>SUBSTRUCTURE
     1 ETR         1 TEMP              0 ****  ****    0 ROOT
