@<TRIPOS>MOLECULE
ETR
   58    58     1     0     0
SMALL
bcc


@<TRIPOS>ATOM
      1 C1         -0.5380   -0.4200    0.5560 c3        1 ETR     -0.003800
      2 C2          0.2180    0.9050    0.6840 c3        1 ETR     -0.071400
      3 C3         -0.5770    1.9520    1.4290 c3        1 ETR     -0.075400
      4 C4         -0.9000    1.4830    2.8310 c3        1 ETR     -0.039200
      5 C5         -1.3620    0.0690    2.8810 c2        1 ETR     -0.102400
      6 C6         -1.2050   -0.7940    1.8570 ce        1 ETR     -0.090200
      7 C7         -1.5880   -2.2010    1.9750 ce        1 ETR     -0.072000
      8 C8         -2.7610   -2.7790    1.6960 cf        1 ETR     -0.157000
      9 C9         -3.9880   -2.1510    1.2160 cf        1 ETR     -0.046300
     10 C10        -4.5540   -1.1250    1.8030 c1        1 ETR     -0.016800
     11 C11        -5.1040   -0.0910    2.3700 c2        1 ETR     -0.216300
     12 C12        -6.0680   -0.1930    3.5020 c3        1 ETR     -0.040000
     13 C13        -7.4240    0.2920    3.1130 c2        1 ETR      0.140600
     14 C14        -8.0040    1.3090    3.8100 ce        1 ETR     -0.369200
     15 C15        -9.3200    1.8020    3.4900 c         1 ETR      0.567300
     16 O         -10.1350    1.4290    2.6520 o         1 ETR     -0.457100
     17 N          -9.7880    3.0040    4.3100 n4        1 ETR     -0.681800
     18 C16         0.4670   -1.5010    0.1630 c3        1 ETR     -0.085600
     19 C17        -1.5880   -0.3070   -0.5450 c3        1 ETR     -0.085600
     20 C18        -1.9930   -0.3260    4.1650 c3        1 ETR     -0.059900
     21 C19        -4.6070   -2.7970    0.0250 c3        1 ETR     -0.060900
     22 C20        -8.0820   -0.3910    1.9820 c3        1 ETR     -0.121900
     23 C21       -10.2040    2.6100    5.6910 c3        1 ETR      0.114800
     24 C22       -11.5510    1.9200    5.7320 c3        1 ETR     -0.133100
     25 H21         1.1850    0.7250    1.2240 hc        1 ETR      0.049200
     26 H22         0.4700    1.2800   -0.3420 hc        1 ETR      0.049200
     27 H31        -1.5270    2.1750    0.8760 hc        1 ETR      0.041700
     28 H32         0.0100    2.9060    1.4790 hc        1 ETR      0.041700
     29 H41        -1.6860    2.1480    3.2790 hc        1 ETR      0.046700
     30 H42         0.0170    1.5740    3.4780 hc        1 ETR      0.046700
     31 H7         -0.7510   -2.8440    2.3170 ha        1 ETR      0.137000
     32 H8         -2.8570   -3.8770    1.8040 ha        1 ETR      0.136000
     33 H10        -5.6620    0.3910    4.3730 hc        1 ETR      0.083200
     34 H11        -4.8460    0.9350    2.0550 ha        1 ETR      0.145000
     35 H12        -6.1730   -1.2650    3.8360 hc        1 ETR      0.083200
     36 H14        -7.4600    1.7810    4.6450 ha        1 ETR      0.161000
     37 HN        -10.5880    3.4350    3.8280 hn        1 ETR      0.456800
     38 H161       -0.0600   -2.4560   -0.0750 hc        1 ETR      0.038033
     39 H162        1.0390   -1.1760   -0.7390 hc        1 ETR      0.038033
     40 H163        1.1860   -1.6870    0.9960 hc        1 ETR      0.038033
     41 H171       -2.2690    0.5560   -0.3520 hc        1 ETR      0.038033
     42 H172       -1.0890   -0.1560   -1.5320 hc        1 ETR      0.038033
     43 H173       -2.2000   -1.2400   -0.5890 hc        1 ETR      0.038033
     44 H181       -3.0930   -0.1140    4.1240 hc        1 ETR      0.040033
     45 H182       -1.5530    0.2500    5.0160 hc        1 ETR      0.040033
     46 H183       -1.8550   -1.4170    4.3690 hc        1 ETR      0.040033
     47 H191       -3.9080   -2.7260   -0.8460 hc        1 ETR      0.054367
     48 H192       -5.5730   -2.3090   -0.2530 hc        1 ETR      0.054367
     49 H193       -4.7990   -3.8790    0.2350 hc        1 ETR      0.054367
     50 H201       -8.4350    0.3530    1.2200 hc        1 ETR      0.089700
     51 H202       -7.3870   -1.1130    1.4830 hc        1 ETR      0.089700
     52 H203       -8.9880   -0.9470    2.3430 hc        1 ETR      0.089700
     53 H211      -10.2370    3.5500    6.3160 hx        1 ETR      0.102200
     54 H212       -9.4030    1.9310    6.1050 hx        1 ETR      0.102200
     55 H221      -12.3730    2.6030    5.4040 hc        1 ETR      0.081033
     56 H222      -11.7520    1.6130    6.7900 hc        1 ETR      0.081033
     57 H223      -11.5660    1.0060    5.0900 hc        1 ETR      0.081033
     58 HN3        -9.0250    3.6830    4.3660 hn        1 ETR      0.456800
@<TRIPOS>BOND
     1    1    2 1   
     2    1    6 1   
     3    1   18 1   
     4    1   19 1   
     5    2    3 1   
     6    2   25 1   
     7    2   26 1   
     8    3    4 1   
     9    3   27 1   
    10    3   28 1   
    11    4    5 1   
    12    4   29 1   
    13    4   30 1   
    14    5    6 2   
    15    5   20 1   
    16    6    7 1   
    17    7    8 2   
    18    7   31 1   
    19    8    9 1   
    20    8   32 1   
    21    9   10 2   
    22    9   21 1   
    23   10   11 2   
    24   11   12 1   
    25   11   34 1   
    26   12   13 1   
    27   12   33 1   
    28   12   35 1   
    29   13   14 2   
    30   13   22 1   
    31   14   15 1   
    32   14   36 1   
    33   15   16 2   
    34   15   17 1   
    35   17   23 1   
    36   17   37 1   
    37   17   58 1   
    38   18   38 1   
    39   18   39 1   
    40   18   40 1   
    41   19   41 1   
    42   19   42 1   
    43   19   43 1   
    44   20   44 1   
    45   20   45 1   
    46   20   46 1   
    47   21   47 1   
    48   21   48 1   
    49   21   49 1   
    50   22   50 1   
    51   22   51 1   
    52   22   52 1   
    53   23   24 1   
    54   23   53 1   
    55   23   54 1   
    56   24   55 1   
    57   24   56 1   
    58   24   57 1   
@<TRIPOS>SUBSTRUCTURE
     1 ETR         1 TEMP              0 ****  ****    0 ROOT
