@<TRIPOS>MOLECULE
ETR
   57    53     1     0     0
SMALL
bcc


@<TRIPOS>ATOM
      1 C1          0.8830    3.9170   -0.3500 c3        1 ETR     -0.009000
      2 C2          2.3620    4.2330   -0.9450 c3        1 ETR     -0.148000
      3 C3          3.1630    4.7360   -0.1540 c3        1 ETR     -0.155000
      4 C4          3.4480    3.8890    1.2050 c3        1 ETR     -0.122000
      5 C5          2.2320    3.5070    1.8700 c2        1 ETR     -0.102000
      6 C6          0.9360    3.1700    0.8780 c2        1 ETR     -0.074000
      7 C7         -0.3680    2.5760    1.4830 c2        1 ETR     -0.106000
      8 C8         -0.6200    1.1830    1.3980 c1        1 ETR     -0.138000
      9 C9          0.4020    0.2510    0.7040 c1        1 ETR     -0.019000
     10 C10        -0.0390   -0.7360   -0.1600 c1        1 ETR     -0.194500
     11 C11        -1.5330   -0.9060   -0.4280 c1        1 ETR     -0.128000
     12 C12        -1.9910   -2.0000   -1.1590 c1        1 ETR     -0.128000
     13 C13        -0.9900   -3.0400   -1.6970 c1        1 ETR     -0.019000
     14 C14        -1.0770   -4.3620   -1.2900 c1        1 ETR     -0.194500
     15 C15        -2.1740   -4.7950   -0.3010 c1        1 ETR      0.344000
     16 O          -2.3000   -4.2150    0.7560 o         1 ETR     -0.376000
     17 N          -3.0280   -5.9320   -0.6140 n3        1 ETR     -0.380000
     18 C16         0.0510    5.2000   -0.1940 c3        1 ETR     -0.203000
     19 C17         0.0580    3.1700   -1.3820 c3        1 ETR     -0.203000
     20 C18         2.2810    2.9390    3.2850 c3        1 ETR     -0.185000
     21 C19         1.8810    0.4180    0.9700 c3        1 ETR     -0.192000
     22 C20         0.0960   -2.6160   -2.6770 c3        1 ETR     -0.192000
     23 C21        -3.2600   -6.9580    0.3780 c3        1 ETR     -0.030000
     24 C22        -4.1220   -8.0700   -0.2270 c3        1 ETR     -0.237000
     25 H21         2.7450    3.3910   -1.2730 hc        1 ETR      0.081500
     26 H22         2.2620    4.8420   -1.7070 hc        1 ETR      0.081500
     27 H31         4.0150    4.8580   -0.6210 hc        1 ETR      0.081000
     28 H32         2.8260    5.6150    0.1010 hc        1 ETR      0.081000
     29 H41         4.0350    3.1150    1.0900 hc        1 ETR      0.085500
     30 H42         3.9970    4.4430    1.7960 hc        1 ETR      0.085500
     31 H7         -1.0180    3.1660    1.9230 ha        1 ETR      0.126000
     32 H8         -1.4420    0.8100    1.7800 ha        1 ETR      0.127000
     33 H10         0.6090   -1.3280   -0.6000 ha        1 ETR      0.131000
     34 H11        -2.1670   -0.2480   -0.0880 ha        1 ETR      0.145000
     35 H12        -2.9440   -2.1080   -1.3310 ha        1 ETR      0.145000
     36 H14        -0.4420   -5.0190   -1.6310 ha        1 ETR      0.131000
     37 HN         -3.4460   -5.9770   -1.4220 hn        1 ETR      0.218000
     38 H161        0.1160    5.7390   -1.0250 hc        1 ETR      0.076333
     39 H162       -0.8920    4.9630   -0.0280 hc        1 ETR      0.076333
     40 H163        0.3940    5.7230    0.5610 hc        1 ETR      0.076333
     41 H171        0.0360    3.6860   -2.2190 hc        1 ETR      0.076333
     42 H172        0.4590    2.2970   -1.5490 hc        1 ETR      0.076333
     43 H173       -0.8580    3.0520   -1.0460 hc        1 ETR      0.076333
     44 H181        2.5040    3.6590    3.9210 hc        1 ETR      0.082000
     45 H182        1.4120    2.5600    3.5140 hc        1 ETR      0.082000
     46 H183        2.9580    2.2450    3.3310 hc        1 ETR      0.082000
     47 H191        2.3340   -0.4430    0.8470 hc        1 ETR      0.088833
     48 H192        2.0150    0.7310    1.8920 hc        1 ETR      0.088833
     49 H193        2.2500    1.0700    0.3500 hc        1 ETR      0.088833
     50 H201        0.0040   -3.1290   -3.5070 hc        1 ETR      0.088833
     51 H202        0.0060   -1.6640   -2.8710 hc        1 ETR      0.088833
     52 H203        0.9810   -2.7890   -2.2820 hc        1 ETR      0.088833
     53 H211       -2.3950   -7.3350    0.6710 h1        1 ETR      0.099000
     54 H212       -3.7250   -6.5660    1.1520 h1        1 ETR      0.099000
     55 H221       -3.7860   -8.2950   -1.1260 hc        1 ETR      0.079333
     56 H222       -5.0530   -7.7630   -0.2940 hc        1 ETR      0.079333
     57 H223       -4.0800   -8.8610    0.3440 hc        1 ETR      0.079333
@<TRIPOS>BOND
     1    1    2 1   
     2    1    6 1   
     3    1   18 1   
     4    1   19 1   
     5    2    3 1   
     6    2   25 1   
     7    2   26 1   
     8    3    4 1   
     9    3   27 1   
    10    3   28 1   
    11    4    5 1   
    12    4   29 1   
    13    4   30 1   
    14    5    6 1   
    15    5   20 1   
    16    6    7 1   
    17    7    8 1   
    18    7   31 1   
    19    8   32 1   
    20    9   10 1   
    21    9   21 1   
    22   10   33 1   
    23   11   12 1   
    24   11   34 1   
    25   12   35 1   
    26   13   14 1   
    27   13   22 1   
    28   14   36 1   
    29   15   16 1   
    30   15   17 1   
    31   17   23 1   
    32   17   37 1   
    33   18   38 1   
    34   18   39 1   
    35   18   40 1   
    36   19   41 1   
    37   19   42 1   
    38   19   43 1   
    39   20   44 1   
    40   20   45 1   
    41   20   46 1   
    42   21   47 1   
    43   21   48 1   
    44   21   49 1   
    45   22   50 1   
    46   22   51 1   
    47   22   52 1   
    48   23   24 1   
    49   23   53 1   
    50   23   54 1   
    51   24   55 1   
    52   24   56 1   
    53   24   57 1   
@<TRIPOS>SUBSTRUCTURE
     1 ETR         1 TEMP              0 ****  ****    0 ROOT
