@<TRIPOS>MOLECULE
ETR
   58    58     1     0     0
SMALL
bcc


@<TRIPOS>ATOM
      1 C1         -0.7870   -0.2510    0.6550 c3        1 ETR     -0.003800
      2 C2         -0.2020    1.1540    0.8250 c3        1 ETR     -0.071400
      3 C3         -1.0090    2.0010    1.7810 c3        1 ETR     -0.075400
      4 C4         -1.0530    1.3670    3.1530 c3        1 ETR     -0.043200
      5 C5         -1.3180   -0.0980    3.1100 c2        1 ETR     -0.100400
      6 C6         -1.2020   -0.8330    1.9850 ce        1 ETR     -0.101200
      7 C7         -1.3680   -2.2860    1.9950 ce        1 ETR     -0.045000
      8 C8         -2.4710   -3.0110    1.7610 cf        1 ETR     -0.188000
      9 C9         -3.8160   -2.5410    1.4730 cf        1 ETR      0.064800
     10 C10        -4.3680   -1.4920    2.1360 ce        1 ETR     -0.236000
     11 C11        -5.7020   -1.0190    1.9220 ce        1 ETR      0.054000
     12 C12        -6.2260    0.0200    2.6270 cf        1 ETR     -0.269000
     13 C13        -7.5480    0.5510    2.4820 cf        1 ETR      0.187800
     14 C14        -7.9520    1.5450    3.3520 ce        1 ETR     -0.402200
     15 C15        -9.2510    2.1340    3.2870 c         1 ETR      0.567300
     16 O         -10.2150    1.9170    2.5540 o         1 ETR     -0.489100
     17 N          -9.5090    3.2580    4.2980 n4        1 ETR     -0.680800
     18 C16         0.2850   -1.1360    0.0210 c3        1 ETR     -0.087100
     19 C17        -1.9890   -0.1950   -0.2810 c3        1 ETR     -0.087100
     20 C18        -1.6680   -0.6880    4.4260 c3        1 ETR     -0.067900
     21 C19        -4.5550   -3.3170    0.4440 c3        1 ETR     -0.094900
     22 C20        -8.4660    0.0610    1.4300 c3        1 ETR     -0.117900
     23 C21        -9.7410    2.7280    5.6740 c3        1 ETR      0.114800
     24 C22       -11.1150    2.1150    5.8520 c3        1 ETR     -0.131100
     25 H21        -0.1560    1.6520   -0.1790 hc        1 ETR      0.050700
     26 H22         0.8500    1.0680    1.2070 hc        1 ETR      0.050700
     27 H31        -2.0510    2.1320    1.3880 hc        1 ETR      0.042700
     28 H32        -0.5510    3.0230    1.8550 hc        1 ETR      0.042700
     29 H41        -1.8410    1.8710    3.7750 hc        1 ETR      0.050200
     30 H42        -0.0690    1.5280    3.6740 hc        1 ETR      0.050200
     31 H7         -0.4160   -2.8240    2.1850 ha        1 ETR      0.142000
     32 H8         -2.3820   -4.1160    1.7570 ha        1 ETR      0.143000
     33 H10        -3.7590   -0.9560    2.8890 ha        1 ETR      0.156000
     34 H11        -6.2980   -1.5500    1.1560 ha        1 ETR      0.132000
     35 H12        -5.5920    0.5080    3.3920 ha        1 ETR      0.145000
     36 H14        -7.2510    1.8970    4.1250 ha        1 ETR      0.155000
     37 HN        -10.3390    3.7810    3.9940 hn        1 ETR      0.451800
     38 H161        0.6740   -0.6520   -0.9070 hc        1 ETR      0.038700
     39 H162        1.1350   -1.2880    0.7280 hc        1 ETR      0.038700
     40 H163       -0.1390   -2.1330   -0.2490 hc        1 ETR      0.038700
     41 H171       -2.7400    0.5430    0.0870 hc        1 ETR      0.038700
     42 H172       -1.6610    0.1080   -1.3040 hc        1 ETR      0.038700
     43 H173       -2.4780   -1.1980   -0.3430 hc        1 ETR      0.038700
     44 H181       -1.8270   -1.7920    4.3620 hc        1 ETR      0.045367
     45 H182       -0.8440   -0.4920    5.1590 hc        1 ETR      0.045367
     46 H183       -2.6030   -0.2180    4.8240 hc        1 ETR      0.045367
     47 H191       -4.8740   -2.6420   -0.3910 hc        1 ETR      0.062700
     48 H192       -5.4670   -3.7890    0.8880 hc        1 ETR      0.062700
     49 H193       -3.9210   -4.1290    0.0090 hc        1 ETR      0.062700
     50 H201       -7.9910   -0.6770    0.7420 hc        1 ETR      0.082367
     51 H202       -8.8390    0.9220    0.8140 hc        1 ETR      0.082367
     52 H203       -9.3650   -0.4170    1.9030 hc        1 ETR      0.082367
     53 H211       -8.9410    1.9580    5.8800 hx        1 ETR      0.099200
     54 H212       -9.6090    3.5840    6.3970 hx        1 ETR      0.099200
     55 H221      -11.9220    2.8790    5.7390 hc        1 ETR      0.078700
     56 H222      -11.2950    1.2910    5.1180 hc        1 ETR      0.078700
     57 H223      -11.1750    1.6890    6.8860 hc        1 ETR      0.078700
     58 HN3        -8.7020    3.8850    4.3080 hn        1 ETR      0.451800
@<TRIPOS>BOND
     1    1    2 1   
     2    1    6 1   
     3    1   18 1   
     4    1   19 1   
     5    2    3 1   
     6    2   25 1   
     7    2   26 1   
     8    3    4 1   
     9    3   27 1   
    10    3   28 1   
    11    4    5 1   
    12    4   29 1   
    13    4   30 1   
    14    5    6 2   
    15    5   20 1   
    16    6    7 1   
    17    7    8 2   
    18    7   31 1   
    19    8    9 1   
    20    8   32 1   
    21    9   10 2   
    22    9   21 1   
    23   10   11 1   
    24   10   33 1   
    25   11   12 2   
    26   11   34 1   
    27   12   13 1   
    28   12   35 1   
    29   13   14 2   
    30   13   22 1   
    31   14   15 1   
    32   14   36 1   
    33   15   16 2   
    34   15   17 1   
    35   17   23 1   
    36   17   37 1   
    37   17   58 1   
    38   18   38 1   
    39   18   39 1   
    40   18   40 1   
    41   19   41 1   
    42   19   42 1   
    43   19   43 1   
    44   20   44 1   
    45   20   45 1   
    46   20   46 1   
    47   21   47 1   
    48   21   48 1   
    49   21   49 1   
    50   22   50 1   
    51   22   51 1   
    52   22   52 1   
    53   23   24 1   
    54   23   53 1   
    55   23   54 1   
    56   24   55 1   
    57   24   56 1   
    58   24   57 1   
@<TRIPOS>SUBSTRUCTURE
     1 ETR         1 TEMP              0 ****  ****    0 ROOT
