@<TRIPOS>MOLECULE
ETR
   57    57     1     0     0
SMALL
bcc


@<TRIPOS>ATOM
      1 C1         29.9530   21.6670   45.2150 c3        1 ETR     -0.006800
      2 C2         30.1950   22.0120   43.7430 c3        1 ETR     -0.069400
      3 C3         29.7100   20.9210   42.8180 c3        1 ETR     -0.076400
      4 C4         30.4250   19.6190   43.1020 c3        1 ETR     -0.042200
      5 C5         30.5680   19.3230   44.5550 c2        1 ETR     -0.093400
      6 C6         30.3800   20.2500   45.5200 ce        1 ETR     -0.089200
      7 C7         30.5310   19.9610   46.9420 ce        1 ETR     -0.101000
      8 C8         31.5750   19.3120   47.4820 cf        1 ETR     -0.145000
      9 C9         31.7340   19.0450   48.9060 cf        1 ETR     -0.049200
     10 C10        32.9560   18.7070   49.3780 ce        1 ETR     -0.149000
     11 C11        33.2840   18.4400   50.7580 ce        1 ETR     -0.098000
     12 C12        34.5200   18.0690   51.1430 cf        1 ETR     -0.151000
     13 C13        34.9090   17.7900   52.5190 cf        1 ETR      0.001800
     14 C14        36.1920   17.4740   52.7850 ce        1 ETR     -0.245200
     15 C15        36.7190   17.1540   54.1360 c         1 ETR      0.662300
     16 O          36.1650   16.3450   54.9090 o         1 ETR     -0.608100
     17 N          37.9190   17.7590   54.4780 n         1 ETR     -0.567900
     18 C16        28.4710   21.8330   45.5420 c3        1 ETR     -0.084100
     19 C17        30.7560   22.6510   46.0620 c3        1 ETR     -0.084100
     20 C18        30.9570   17.9190   44.8420 c3        1 ETR     -0.065900
     21 C19        30.5270   19.1700   49.7590 c3        1 ETR     -0.066900
     22 C20        33.8570   17.8800   53.5620 c3        1 ETR     -0.081900
     23 C21        38.5040   17.6280   55.7840 c3        1 ETR      0.083000
     24 C22        38.4680   18.8940   56.6290 c3        1 ETR     -0.121100
     25 H21        29.6740   22.9750   43.5020 hc        1 ETR      0.042700
     26 H22        31.2940   22.1720   43.5820 hc        1 ETR      0.042700
     27 H31        28.6040   20.7810   42.9420 hc        1 ETR      0.042200
     28 H32        29.8900   21.2220   41.7520 hc        1 ETR      0.042200
     29 H41        29.8750   18.7790   42.5980 hc        1 ETR      0.048200
     30 H42        31.4580   19.6510   42.6550 hc        1 ETR      0.048200
     31 H7         29.7150   20.3490   47.5790 ha        1 ETR      0.127000
     32 H8         32.4020   18.9600   46.8380 ha        1 ETR      0.129000
     33 H10        33.8000   18.6280   48.6670 ha        1 ETR      0.124000
     34 H11        32.4770   18.5590   51.5010 ha        1 ETR      0.129000
     35 H12        35.3210   17.9540   50.3910 ha        1 ETR      0.125000
     36 H14        36.9360   17.4140   51.9720 ha        1 ETR      0.139000
     37 HN         38.2490   18.5030   53.9120 hn        1 ETR      0.303500
     38 H161       28.2890   21.6640   46.6300 hc        1 ETR      0.035867
     39 H162       28.1380   22.8670   45.2850 hc        1 ETR      0.035867
     40 H163       27.8580   21.1030   44.9630 hc        1 ETR      0.035867
     41 H171       30.5320   22.5120   47.1470 hc        1 ETR      0.035867
     42 H172       31.8500   22.4990   45.9030 hc        1 ETR      0.035867
     43 H173       30.4930   23.6980   45.7760 hc        1 ETR      0.035867
     44 H181       30.6470   17.6060   45.8700 hc        1 ETR      0.044367
     45 H182       30.4870   17.2200   44.1070 hc        1 ETR      0.044367
     46 H183       32.0690   17.8100   44.7620 hc        1 ETR      0.044367
     47 H191       30.6260   18.5960   50.7120 hc        1 ETR      0.046700
     48 H192       30.3490   20.2460   50.0110 hc        1 ETR      0.046700
     49 H193       29.6260   18.7830   49.2200 hc        1 ETR      0.046700
     50 H201       34.2520   17.6110   54.5730 hc        1 ETR      0.057700
     51 H202       33.4440   18.9190   53.6020 hc        1 ETR      0.057700
     52 H203       33.0210   17.1760   53.3190 hc        1 ETR      0.057700
     53 H211       37.9730   16.8000   56.3360 h1        1 ETR      0.061200
     54 H212       39.5810   17.3190   55.6460 h1        1 ETR      0.061200
     55 H221       38.9780   18.6910   57.6010 hc        1 ETR      0.040033
     56 H222       38.9940   19.7370   56.1220 hc        1 ETR      0.040033
     57 H223       37.4170   19.2070   56.8400 hc        1 ETR      0.040033
@<TRIPOS>BOND
     1    1    2 1   
     2    1    6 1   
     3    1   18 1   
     4    1   19 1   
     5    2    3 1   
     6    2   25 1   
     7    2   26 1   
     8    3    4 1   
     9    3   27 1   
    10    3   28 1   
    11    4    5 1   
    12    4   29 1   
    13    4   30 1   
    14    5    6 2   
    15    5   20 1   
    16    6    7 1   
    17    7    8 2   
    18    7   31 1   
    19    8    9 1   
    20    8   32 1   
    21    9   10 2   
    22    9   21 1   
    23   10   11 1   
    24   10   33 1   
    25   11   12 2   
    26   11   34 1   
    27   12   13 1   
    28   12   35 1   
    29   13   14 2   
    30   13   22 1   
    31   14   15 1   
    32   14   36 1   
    33   15   16 2   
    34   15   17 1   
    35   17   23 1   
    36   17   37 1   
    37   18   38 1   
    38   18   39 1   
    39   18   40 1   
    40   19   41 1   
    41   19   42 1   
    42   19   43 1   
    43   20   44 1   
    44   20   45 1   
    45   20   46 1   
    46   21   47 1   
    47   21   48 1   
    48   21   49 1   
    49   22   50 1   
    50   22   51 1   
    51   22   52 1   
    52   23   24 1   
    53   23   53 1   
    54   23   54 1   
    55   24   55 1   
    56   24   56 1   
    57   24   57 1   
@<TRIPOS>SUBSTRUCTURE
     1 ETR         1 TEMP              0 ****  ****    0 ROOT
