@<TRIPOS>MOLECULE
ETS
   37    38     1     0     0
SMALL
bcc


@<TRIPOS>ATOM
      1 S1          0.4240    0.2040    0.1670 ss        1 ETS      0.812200
      2 C2          1.9530   -0.2960   -0.1340 cc        1 ETS     -0.717600
      3 C3          2.6450   -0.4280    1.1200 cd        1 ETS      0.002000
      4 C4          1.8270   -0.0890    2.1910 cd        1 ETS     -0.130300
      5 C5          2.1890   -0.1870    3.6350 c3        1 ETS      0.185800
      6 C6          1.0650   -0.9080    4.3990 c3        1 ETS     -0.054400
      7 C7         -0.3510   -0.4320    4.1230 c3        1 ETS     -0.296900
      8 S8         -0.5930    0.7940    2.9460 sy        1 ETS      1.389300
      9 C9          0.5220    0.2860    1.7360 cc        1 ETS     -0.446600
     10 S10         2.7940   -0.4720   -1.4910 sy        1 ETS      1.524200
     11 O11         2.1880    0.1130   -2.5760 o         1 ETS     -0.544800
     12 O12         4.1520   -0.5080   -1.2830 o         1 ETS     -0.544800
     13 N13         2.4670   -2.3000   -1.8730 n4        1 ETS     -0.797500
     14 N14         2.5420    1.1600    4.2210 n4        1 ETS     -0.779000
     15 C15        -1.2520   -1.6290    3.8610 c3        1 ETS     -0.088100
     16 O16        -0.0360    1.9660    3.4790 o         1 ETS     -0.610800
     17 O17        -1.8550    0.7840    2.3880 o         1 ETS     -0.610800
     18 C18         3.4920    1.0540    5.3770 c3        1 ETS      0.113800
     19 C19         3.7740    2.4020    6.0050 c3        1 ETS     -0.141100
     20 H3          3.6970   -0.7380    1.1960 ha        1 ETS      0.205000
     21 H5          3.1260   -0.8240    3.7300 hx        1 ETS      0.126700
     22 H61         1.1550   -1.9960    4.1160 hc        1 ETS      0.101200
     23 H62         1.2660   -0.8570    5.5050 hc        1 ETS      0.101200
     24 H7         -0.7300    0.0110    5.1030 h1        1 ETS      0.152700
     25 HN31        1.9160   -2.7830   -1.1710 hn        1 ETS      0.467800
     26 HN32        1.9790   -2.3960   -2.7680 hn        1 ETS      0.467800
     27 HN4         2.9670    1.7460    3.4930 hn        1 ETS      0.470800
     28 H151       -2.3100   -1.2960    3.7000 hc        1 ETS      0.075700
     29 H152       -1.2400   -2.3240    4.7370 hc        1 ETS      0.075700
     30 H153       -0.9080   -2.1950    2.9620 hc        1 ETS      0.075700
     31 H181        4.4500    0.5930    4.9980 hx        1 ETS      0.103700
     32 H182        3.0310    0.3590    6.1370 hx        1 ETS      0.103700
     33 H191        2.8460    2.8780    6.4070 hc        1 ETS      0.090367
     34 H192        4.4790    2.2400    6.8630 hc        1 ETS      0.090367
     35 H193        4.2600    3.1040    5.2850 hc        1 ETS      0.090367
     36 H133        3.3540   -2.8030   -1.9630 hn        1 ETS      0.467800
     37 H142        1.6840    1.6470    4.5380 hn        1 ETS      0.470800
@<TRIPOS>BOND
     1    1    2 1   
     2    1    9 1   
     3    2    3 2   
     4    2   10 1   
     5    3    4 1   
     6    3   20 1   
     7    4    5 1   
     8    4    9 2   
     9    5    6 1   
    10    5   14 1   
    11    5   21 1   
    12    6    7 1   
    13    6   22 1   
    14    6   23 1   
    15    7    8 1   
    16    7   15 1   
    17    7   24 1   
    18    8    9 1   
    19    8   16 2   
    20    8   17 2   
    21   10   11 2   
    22   10   12 2   
    23   10   13 1   
    24   13   25 1   
    25   13   26 1   
    26   13   36 1   
    27   14   18 1   
    28   14   27 1   
    29   14   37 1   
    30   15   28 1   
    31   15   29 1   
    32   15   30 1   
    33   18   19 1   
    34   18   31 1   
    35   18   32 1   
    36   19   33 1   
    37   19   34 1   
    38   19   35 1   
@<TRIPOS>SUBSTRUCTURE
     1 ETS         1 TEMP              0 ****  ****    0 ROOT
