@<TRIPOS>MOLECULE
ETS
   35    31     1     0     0
SMALL
bcc


@<TRIPOS>ATOM
      1 S1         -0.3940   -0.3160   -2.8570 ss        1 ETS      1.060000
      2 C2          1.1720   -0.3200   -2.8520 c1        1 ETS     -1.202000
      3 C3          1.6270   -0.3110   -1.4410 c1        1 ETS     -0.031500
      4 C4          0.3580   -0.3030   -0.5140 c1        1 ETS     -0.031500
      5 C5          0.1750   -0.3540    1.1350 c2        1 ETS      0.027000
      6 C6         -1.1920   -0.6010    1.6860 c3        1 ETS     -0.174000
      7 C7         -2.3720    0.1050    1.0270 c3        1 ETS     -0.765000
      8 S8         -2.4560   -0.1620   -0.6460 s4        1 ETS      2.086800
      9 C9         -0.8650   -0.3060   -1.3920 c1        1 ETS     -1.202000
     10 S10         2.2130   -0.3030   -4.2830 ss        1 ETS      2.899000
     11 O11         3.5790   -0.5530   -3.9390 o         1 ETS     -0.931000
     12 O12         2.3050    1.0250   -4.8480 o         1 ETS     -0.931000
     13 N13         1.6540   -1.4200   -5.4230 n2        1 ETS     -0.953000
     14 N14         0.6300    0.8740    1.6560 n3        1 ETS     -0.299000
     15 C15        -3.7990   -0.2860    1.7790 c3        1 ETS     -0.199000
     16 O16        -3.2570   -1.3390   -0.9320 o         1 ETS     -0.537400
     17 O17        -3.1440    0.9210   -1.2450 o         1 ETS     -0.537400
     18 C18         1.4890    0.6250    2.7640 c3        1 ETS     -0.072000
     19 C19         2.3840    1.8350    2.9990 c3        1 ETS     -0.218000
     20 H3          2.5560   -0.3110   -1.1400 DU        1 ETS      0.192000
     21 H5          0.7690   -1.0690    1.4820 h4        1 ETS      0.118000
     22 H61        -1.3650   -1.5910    1.6360 hc        1 ETS      0.109000
     23 H62        -1.1810   -0.3490    2.6210 hc        1 ETS      0.109000
     24 H7         -2.3290    1.0950    1.2140 h1        1 ETS      0.155000
     25 HN31        1.7770   -2.3390   -5.2790 hn        1 ETS      0.245000
     26 HN32        1.2930   -1.1250   -6.2140 hn        1 ETS      0.245000
     27 HN4        -0.0780    1.3660    1.9290 hn        1 ETS      0.161000
     28 H151       -3.8730    0.2260    2.6430 hc        1 ETS      0.096333
     29 H152       -4.5780   -0.0460    1.1770 hc        1 ETS      0.096333
     30 H153       -3.8160   -1.2450    1.9670 hc        1 ETS      0.096333
     31 H181        2.0540   -0.1700    2.5710 h1        1 ETS      0.069000
     32 H182        0.9340    0.4510    3.5870 h1        1 ETS      0.069000
     33 H191        1.8510    2.6700    2.8820 hc        1 ETS      0.083000
     34 H192        3.1350    1.8250    2.3460 hc        1 ETS      0.083000
     35 H193        2.7420    1.8020    3.9030 hc        1 ETS      0.083000
@<TRIPOS>BOND
     1    1    2 1   
     2    1    9 1   
     3    2    3 1   
     4    3    4 1   
     5    4    9 1   
     6    5    6 1   
     7    5   14 1   
     8    5   21 1   
     9    6    7 1   
    10    6   22 1   
    11    6   23 1   
    12    7    8 1   
    13    7   15 1   
    14    7   24 1   
    15    8   16 1   
    16    8   17 1   
    17   10   11 1   
    18   10   12 1   
    19   13   25 1   
    20   13   26 1   
    21   14   18 1   
    22   14   27 1   
    23   15   28 1   
    24   15   29 1   
    25   15   30 1   
    26   18   19 1   
    27   18   31 1   
    28   18   32 1   
    29   19   33 1   
    30   19   34 1   
    31   19   35 1   
@<TRIPOS>SUBSTRUCTURE
     1 ETS         1 TEMP              0 ****  ****    0 ROOT
