@<TRIPOS>MOLECULE
ETS
   37    38     1     0     0
SMALL
bcc


@<TRIPOS>ATOM
      1 S1          0.4450    0.0500    0.1410 ss        1 ETS      0.812200
      2 C2          1.9990   -0.3910   -0.1230 cc        1 ETS     -0.717600
      3 C3          2.6790   -0.4430    1.1430 cd        1 ETS      0.002000
      4 C4          1.8330   -0.1010    2.1900 cd        1 ETS     -0.130300
      5 C5          2.1800   -0.1260    3.6410 c3        1 ETS      0.185800
      6 C6          1.0790   -0.8690    4.4200 c3        1 ETS     -0.054400
      7 C7         -0.3530   -0.4690    4.1100 c3        1 ETS     -0.296900
      8 S8         -0.6340    0.7000    2.8820 sy        1 ETS      1.389300
      9 C9          0.5190    0.1970    1.7060 cc        1 ETS     -0.446600
     10 S10         2.8650   -0.5800   -1.4620 sy        1 ETS      1.524200
     11 O11         2.2480   -0.0660   -2.5760 o         1 ETS     -0.544800
     12 O12         4.2200   -0.5460   -1.2370 o         1 ETS     -0.544800
     13 N13         2.6260   -2.4340   -1.7770 nz        1 ETS     -0.797500
     14 N14         2.4640    1.2560    4.1790 ny        1 ETS     -0.779000
     15 C15        -1.1960   -1.7140    3.8840 c3        1 ETS     -0.088100
     16 O16        -0.1380    1.9150    3.3760 o         1 ETS     -0.610800
     17 O17        -1.8870    0.6100    2.3110 o         1 ETS     -0.610800
     18 C18         3.4020    1.2380    5.3490 c3        1 ETS      0.113800
     19 C19         3.6140    2.6200    5.9280 c3        1 ETS     -0.141100
     20 H3          3.7440   -0.7020    1.2430 ha        1 ETS      0.205000
     21 H5          3.1430   -0.7160    3.7720 hx        1 ETS      0.126700
     22 H61         1.2220   -1.9610    4.1800 hc        1 ETS      0.101200
     23 H62         1.2640   -0.7670    5.5250 hc        1 ETS      0.101200
     24 H7         -0.7640   -0.0050    5.0670 h1        1 ETS      0.152700
     25 HN31        3.5360   -2.8990   -1.8370 hn        1 ETS      0.467800
     26 HN32        2.0880   -2.9140   -1.0620 hn        1 ETS      0.467800
     27 HN4         2.8720    1.8320    3.4330 hn        1 ETS      0.470800
     28 H151       -2.2650   -1.4360    3.6990 hc        1 ETS      0.075700
     29 H152       -0.8150   -2.2980    3.0120 hc        1 ETS      0.075700
     30 H153       -1.1640   -2.3740    4.7870 hc        1 ETS      0.075700
     31 H181        2.9630    0.5520    6.1300 hx        1 ETS      0.103700
     32 H182        4.3850    0.8070    5.0000 hx        1 ETS      0.103700
     33 H191        4.3140    2.5240    6.7990 hc        1 ETS      0.090367
     34 H192        2.6600    3.0690    6.3010 hc        1 ETS      0.090367
     35 H193        4.0780    3.3160    5.1870 hc        1 ETS      0.090367
     36 H133        2.1550   -2.5860   -2.6730 hn        1 ETS      0.467800
     37 H142        1.5810    1.7160    4.4660 hn        1 ETS      0.470800
@<TRIPOS>BOND
     1    1    2 1   
     2    1    9 1   
     3    2    3 2   
     4    2   10 1   
     5    3    4 1   
     6    3   20 1   
     7    4    5 1   
     8    4    9 2   
     9    5    6 1   
    10    5   14 1   
    11    5   21 1   
    12    6    7 1   
    13    6   22 1   
    14    6   23 1   
    15    7    8 1   
    16    7   15 1   
    17    7   24 1   
    18    8    9 1   
    19    8   16 2   
    20    8   17 2   
    21   10   11 2   
    22   10   12 2   
    23   10   13 1   
    24   13   25 1   
    25   13   26 1   
    26   13   36 1   
    27   14   18 1   
    28   14   27 1   
    29   14   37 1   
    30   15   28 1   
    31   15   29 1   
    32   15   30 1   
    33   18   19 1   
    34   18   31 1   
    35   18   32 1   
    36   19   33 1   
    37   19   34 1   
    38   19   35 1   
@<TRIPOS>SUBSTRUCTURE
     1 ETS         1 TEMP              0 ****  ****    0 ROOT
