@<TRIPOS>MOLECULE
ETS
   35    36     1     0     0
SMALL
bcc


@<TRIPOS>ATOM
      1 S1         -1.0250    1.2880   -0.1500 ss        1 ETS      0.530200
      2 C2         -1.6180   -0.2060   -0.0040 cc        1 ETS     -0.493600
      3 C3         -0.5590   -1.1330    0.0970 cd        1 ETS     -0.082000
      4 C4          0.6970   -0.5010    0.0520 cd        1 ETS     -0.054300
      5 C5          1.9960   -1.2450    0.1890 c3        1 ETS      0.235800
      6 C6          3.1640   -0.3790   -0.3190 c3        1 ETS     -0.048400
      7 C7          3.1700    0.9980    0.3110 c3        1 ETS     -0.269900
      8 S8          1.8430    1.9540   -0.2180 sy        1 ETS      1.397300
      9 C9          0.5550    0.9000   -0.0890 cc        1 ETS     -0.471600
     10 S10        -3.2000   -0.7890   -0.0040 sy        1 ETS      1.560200
     11 O11        -3.9720    0.0550   -0.8260 o         1 ETS     -0.652300
     12 O12        -3.1590   -2.1600   -0.3150 o         1 ETS     -0.652300
     13 N13        -3.6600   -0.5960    1.5160 n3        1 ETS     -1.027700
     14 N14         2.0360   -2.5500   -0.4540 n3        1 ETS     -0.827200
     15 C15         3.3030    0.9470    1.8150 c3        1 ETS     -0.068100
     16 O16         2.0480    2.2980   -1.5600 o         1 ETS     -0.649300
     17 O17         1.6410    3.0280    0.6620 o         1 ETS     -0.649300
     18 C18         1.5460   -3.6560    0.3450 c3        1 ETS      0.164800
     19 C19         0.7600   -4.6970   -0.4360 c3        1 ETS     -0.116100
     20 H3         -0.7130   -2.2170    0.1750 ha        1 ETS      0.184000
     21 H5          2.1590   -1.4030    1.3020 h1        1 ETS      0.075700
     22 H61         4.1270   -0.9040   -0.0790 hc        1 ETS      0.072200
     23 H62         3.1100   -0.2700   -1.4350 hc        1 ETS      0.072200
     24 H7          4.1070    1.5050   -0.0750 h1        1 ETS      0.123700
     25 HN31       -4.1870    0.1790    1.8330 hn        1 ETS      0.451300
     26 HN32       -3.4770   -1.2510    2.2340 hn        1 ETS      0.451300
     27 HN4         1.6010   -2.5180   -1.3560 hn        1 ETS      0.375800
     28 H151        4.1760    0.3160    2.1070 hc        1 ETS      0.051367
     29 H152        3.4530    1.9790    2.2210 hc        1 ETS      0.051367
     30 H153        2.3850    0.5160    2.2840 hc        1 ETS      0.051367
     31 H181        2.4580   -4.1480    0.7940 h1        1 ETS      0.035700
     32 H182        0.9070   -3.3050    1.2080 h1        1 ETS      0.035700
     33 H191       -0.1830   -4.2650   -0.8490 hc        1 ETS      0.046700
     34 H192        1.3640   -5.1050   -1.2820 hc        1 ETS      0.046700
     35 H193        0.4950   -5.5390    0.2470 hc        1 ETS      0.046700
@<TRIPOS>BOND
     1    1    2 1   
     2    1    9 1   
     3    2    3 2   
     4    2   10 1   
     5    3    4 1   
     6    3   20 1   
     7    4    5 1   
     8    4    9 2   
     9    5    6 1   
    10    5   14 1   
    11    5   21 1   
    12    6    7 1   
    13    6   22 1   
    14    6   23 1   
    15    7    8 1   
    16    7   15 1   
    17    7   24 1   
    18    8    9 1   
    19    8   16 2   
    20    8   17 2   
    21   10   11 2   
    22   10   12 2   
    23   10   13 1   
    24   13   25 1   
    25   13   26 1   
    26   14   18 1   
    27   14   27 1   
    28   15   28 1   
    29   15   29 1   
    30   15   30 1   
    31   18   19 1   
    32   18   31 1   
    33   18   32 1   
    34   19   33 1   
    35   19   34 1   
    36   19   35 1   
@<TRIPOS>SUBSTRUCTURE
     1 ETS         1 TEMP              0 ****  ****    0 ROOT
