@<TRIPOS>MOLECULE
ETS
   37    38     1     0     0
SMALL
bcc


@<TRIPOS>ATOM
      1 S1          0.4470    0.1370    0.1470 ss        1 ETS      0.812200
      2 C2          1.9860   -0.3470   -0.1280 cc        1 ETS     -0.717600
      3 C3          2.6660   -0.4430    1.1360 cd        1 ETS      0.002000
      4 C4          1.8320   -0.0940    2.1900 cd        1 ETS     -0.130300
      5 C5          2.1800   -0.1580    3.6400 c3        1 ETS      0.185800
      6 C6          1.0580   -0.8800    4.4070 c3        1 ETS     -0.054400
      7 C7         -0.3620   -0.4310    4.1070 c3        1 ETS     -0.296900
      8 S8         -0.6090    0.7680    2.9020 sy        1 ETS      1.389300
      9 C9          0.5270    0.2520    1.7150 cc        1 ETS     -0.446600
     10 S10         2.8440   -0.5380   -1.4720 sy        1 ETS      1.524200
     11 O11         2.2410    0.0160   -2.5760 o         1 ETS     -0.544800
     12 O12         4.2000   -0.5480   -1.2500 o         1 ETS     -0.544800
     13 N13         2.5490   -2.3770   -1.8200 n4        1 ETS     -0.797500
     14 N14         2.5070    1.2050    4.2020 n4        1 ETS     -0.779000
     15 C15        -1.2420   -1.6460    3.8590 c3        1 ETS     -0.088100
     16 O16        -0.0740    1.9580    3.4180 o         1 ETS     -0.610800
     17 O17        -1.8640    0.7280    2.3310 o         1 ETS     -0.610800
     18 C18         3.4470    1.1360    5.3700 c3        1 ETS      0.113800
     19 C19         3.7010    2.5000    5.9750 c3        1 ETS     -0.141100
     20 H3          3.7230   -0.7360    1.2280 ha        1 ETS      0.205000
     21 H5          3.1250   -0.7790    3.7580 hx        1 ETS      0.126700
     22 H61         1.1670   -1.9720    4.1470 hc        1 ETS      0.101200
     23 H62         1.2470   -0.8040    5.5130 hc        1 ETS      0.101200
     24 H7         -0.7580    0.0260    5.0730 h1        1 ETS      0.152700
     25 HN31        3.4430   -2.8690   -1.8900 hn        1 ETS      0.467800
     26 HN32        1.9970   -2.8540   -1.1130 hn        1 ETS      0.467800
     27 HN4         1.6390    1.6860    4.5010 hn        1 ETS      0.470800
     28 H151       -0.8800   -2.2250    2.9750 hc        1 ETS      0.075700
     29 H152       -2.3030   -1.3320    3.6800 hc        1 ETS      0.075700
     30 H153       -1.2290   -2.3230    4.7490 hc        1 ETS      0.075700
     31 H181        4.4150    0.6830    5.0100 hx        1 ETS      0.103700
     32 H182        2.9890    0.4490    6.1380 hx        1 ETS      0.103700
     33 H191        4.1840    3.1960    5.2460 hc        1 ETS      0.090367
     34 H192        2.7620    2.9700    6.3580 hc        1 ETS      0.090367
     35 H193        4.4000    2.3660    6.8420 hc        1 ETS      0.090367
     36 H133        2.0710   -2.4980   -2.7180 hn        1 ETS      0.467800
     37 H142        2.9310    1.7830    3.4670 hn        1 ETS      0.470800
@<TRIPOS>BOND
     1    1    2 1   
     2    1    9 1   
     3    2    3 2   
     4    2   10 1   
     5    3    4 1   
     6    3   20 1   
     7    4    5 1   
     8    4    9 2   
     9    5    6 1   
    10    5   14 1   
    11    5   21 1   
    12    6    7 1   
    13    6   22 1   
    14    6   23 1   
    15    7    8 1   
    16    7   15 1   
    17    7   24 1   
    18    8    9 1   
    19    8   16 2   
    20    8   17 2   
    21   10   11 2   
    22   10   12 2   
    23   10   13 1   
    24   13   25 1   
    25   13   26 1   
    26   13   36 1   
    27   14   18 1   
    28   14   27 1   
    29   14   37 1   
    30   15   28 1   
    31   15   29 1   
    32   15   30 1   
    33   18   19 1   
    34   18   31 1   
    35   18   32 1   
    36   19   33 1   
    37   19   34 1   
    38   19   35 1   
@<TRIPOS>SUBSTRUCTURE
     1 ETS         1 TEMP              0 ****  ****    0 ROOT
