@<TRIPOS>MOLECULE
ETT
   56    57     1     0     0
SMALL
bcc


@<TRIPOS>ATOM
      1 C01        -7.0050    1.0240   -1.3730 ca        1 ETT     -0.107300
      2 C02        -5.8720   -0.8940   -0.4210 ca        1 ETT     -0.131500
      3 C03        -1.4290   -0.7190    1.7500 c3        1 ETT      0.017000
      4 OAD         0.5250    2.2330    2.8710 o         1 ETT     -0.793800
      5 OAF        -0.9060    2.6120    1.1790 o         1 ETT     -0.793800
      6 OAG         3.6300    1.1720   -2.8160 oh        1 ETT     -0.600800
      7 OAH         0.2470   -2.9300    1.0500 oh        1 ETT     -0.609800
      8 CAI        -2.5380   -0.0680    1.0040 c2        1 ETT     -0.099200
      9 OAI         4.3060    0.4920    0.7020 oh        1 ETT     -0.601800
     10 CAJ        -3.6800   -0.6950    0.6880 ce        1 ETT     -0.191200
     11 CAK         5.2360    2.1600   -1.3020 c3        1 ETT      0.097400
     12 CAL        -5.9380    1.8320   -0.9670 ca        1 ETT     -0.132000
     13 CAM        -6.9600   -0.3460   -1.0930 ca        1 ETT     -0.132000
     14 NAM         2.5670   -2.5340   -0.6870 n         1 ETT     -0.538900
     15 CAN        -4.8480    1.2880   -0.2940 ca        1 ETT     -0.131500
     16 OAN         1.6810    0.9260    0.4170 os        1 ETT     -0.325900
     17 CAO         3.2450   -3.6200   -0.1510 c         1 ETT      0.655100
     18 CAQ        -0.1180   -0.5260    1.0710 c2        1 ETT     -0.334400
     19 CAR         0.4940    0.6790    1.0570 ce        1 ETT      0.085900
     20 CAS         3.8540    1.5120   -1.4570 c3        1 ETT      0.061100
     21 CAT         0.4630   -1.7050    0.3670 c3        1 ETT      0.188300
     22 CAU         3.7090    0.2670   -0.5570 c3        1 ETT      0.132100
     23 CAV         1.9940   -1.5050    0.1550 c3        1 ETT      0.026700
     24 CAW         2.2170   -0.0970   -0.4330 c3        1 ETT      0.098100
     25 CAX        -4.7970   -0.0870   -0.0110 ca        1 ETT     -0.017800
     26 CBD        -8.1680    1.6130   -2.0740 c3        1 ETT     -0.041800
     27 H02        -5.8500   -1.9730   -0.2080 ha        1 ETT      0.142000
     28 H03        -1.3830   -0.2410    2.7720 hc        1 ETT      0.054200
     29 H03A       -1.6290   -1.8150    1.8940 hc        1 ETT      0.054200
     30 HAB         2.5780   -5.2660   -1.3910 hc        1 ETT      0.058700
     31 HABA        4.0640   -4.4150   -2.0040 hc        1 ETT      0.058700
     32 HABB        4.1760   -5.5140   -0.5600 hc        1 ETT      0.058700
     33 HOAE        5.1770    2.8730   -3.1000 ho        1 ETT      0.407000
     34 H9          4.3570    0.5960   -3.0880 ho        1 ETT      0.401000
     35 HOAH        0.5290   -2.8010    1.9640 ho        1 ETT      0.409000
     36 HAI        -2.3360    0.9930    0.7460 ha        1 ETT      0.181000
     37 H12         3.7060    1.0490    1.2210 ho        1 ETT      0.435000
     38 HAJ        -3.8240   -1.7560    0.9580 ha        1 ETT      0.110000
     39 HAK         5.9510    1.4760   -0.7710 h1        1 ETT      0.060700
     40 HAKA        5.1480    3.1200   -0.7280 h1        1 ETT      0.060700
     41 HAL        -5.9590    2.9110   -1.1820 ha        1 ETT      0.119000
     42 HAM        -7.7910   -0.9940   -1.4070 ha        1 ETT      0.119000
     43 HNAM        2.0870   -2.6870   -1.5440 hn        1 ETT      0.291500
     44 HAN        -4.0180    1.9430    0.0190 ha        1 ETT      0.142000
     45 H20         3.0360    2.2480   -1.2150 h1        1 ETT      0.107700
     46 HAT        -0.0550   -1.8580   -0.6250 h1        1 ETT      0.060700
     47 H22         4.2880   -0.5880   -1.0030 h1        1 ETT      0.074700
     48 HAV         2.5070   -1.5460    1.1630 h1        1 ETT      0.111700
     49 HAW         1.7220   -0.0040   -1.4400 h1        1 ETT      0.064700
     50 HBD        -8.9070    2.0040   -1.3300 hc        1 ETT      0.033033
     51 HBDA       -7.8510    2.4620   -2.7280 hc        1 ETT      0.033033
     52 HBDB       -8.6830    0.8510   -2.7090 hc        1 ETT      0.033033
     53 CAP        -0.0040    1.9630    1.7680 c         1 ETT      0.934800
     54 CAB         3.5320   -4.7710   -1.0900 c3        1 ETT     -0.177100
     55 OAC         3.6560   -3.6380    1.0250 o         1 ETT     -0.601100
     56 OAE         5.8280    2.4000   -2.5650 oh        1 ETT     -0.615800
@<TRIPOS>BOND
     1    1   12 ar  
     2    1   13 ar  
     3    1   26 1   
     4    2   13 ar  
     5    2   25 ar  
     6    2   27 1   
     7    3    8 1   
     8    3   18 1   
     9    3   28 1   
    10    3   29 1   
    11    4   53 1   
    12    5   53 1   
    13    6   20 1   
    14    6   34 1   
    15    7   21 1   
    16    7   35 1   
    17    8   10 2   
    18    8   36 1   
    19    9   22 1   
    20    9   37 1   
    21   10   25 1   
    22   10   38 1   
    23   11   20 1   
    24   11   39 1   
    25   11   40 1   
    26   11   56 1   
    27   12   15 ar  
    28   12   41 1   
    29   13   42 1   
    30   14   17 1   
    31   14   23 1   
    32   14   43 1   
    33   15   25 ar  
    34   15   44 1   
    35   16   19 1   
    36   16   24 1   
    37   17   54 1   
    38   17   55 2   
    39   18   19 2   
    40   18   21 1   
    41   19   53 1   
    42   20   22 1   
    43   20   45 1   
    44   21   23 1   
    45   21   46 1   
    46   22   24 1   
    47   22   47 1   
    48   23   24 1   
    49   23   48 1   
    50   24   49 1   
    51   26   50 1   
    52   26   51 1   
    53   26   52 1   
    54   30   54 1   
    55   31   54 1   
    56   32   54 1   
    57   33   56 1   
@<TRIPOS>SUBSTRUCTURE
     1 ETT         1 TEMP              0 ****  ****    0 ROOT
