@<TRIPOS>MOLECULE
ETT
   57    54     1     0     0
SMALL
bcc


@<TRIPOS>ATOM
      1 C01         0.2820    0.4400   -1.6250 c3        1 ETT     -0.052000
      2 C02         2.1370   -0.1780   -0.0550 c1        1 ETT      0.126000
      3 C03         3.7870   -1.4010    3.8390 cu        1 ETT     -0.014000
      4 OAG         7.9790   -4.7930    3.5650 oh        1 ETT     -0.247000
      5 OAH         3.2480   -2.9010    5.7980 oh        1 ETT     -0.319000
      6 CAI         3.0110   -0.3650    3.2030 c3        1 ETT     -0.112000
      7 OAI         8.9800   -3.8060    6.7410 oh        1 ETT     -0.292000
      8 CAJ         1.5650   -0.4170    3.5390 c2        1 ETT     -0.140000
      9 CAK        11.2830   -4.3950    1.9250 c3        1 ETT     -0.071000
     10 CAL         0.2900    1.2550    0.6590 c1        1 ETT     -0.189000
     11 CAM         1.5490   -0.2310   -1.2340 c2        1 ETT     -0.462000
     12 NAM         5.3620   -4.0220    7.6980 ns        1 ETT     -0.380000
     13 CAN         0.9520    1.1980    1.7870 c2        1 ETT     -0.028000
     14 OAN         7.2040   -2.3770    4.9410 os        1 ETT     -0.065000
     15 CAO         5.8740   -5.0110    8.5190 c2        1 ETT      0.302000
     16 CAQ         4.9650   -1.8690    4.2550 cu        1 ETT     -0.314000
     17 CAR         6.3660   -1.6460    4.2960 c1        1 ETT      0.058000
     18 CAS         8.7700   -4.8050    4.6180 c1        1 ETT      0.016000
     19 CAT         3.7700   -2.7340    4.5160 cx        1 ETT      0.030000
     20 CAU         8.0410   -4.4350    5.8900 c3        1 ETT     -0.032000
     21 CAV         6.2050   -3.0710    7.0380 c3        1 ETT     -0.038000
     22 CAW         6.7970   -3.5550    5.7020 c3        1 ETT     -0.108000
     23 CAX         0.6370    0.2850    2.8770 c2        1 ETT     -0.138000
     24 CBD        -0.2780    1.2630   -0.5140 c2        1 ETT     -0.109000
     25 H02        -0.4300    0.1990    3.1410 ha        1 ETT      0.139000
     26 H03         0.9080   -2.4090    6.3690 ha        1 ETT      0.001500
     27 H03A        1.0150   -1.7900    6.6250 ha        1 ETT      0.001500
     28 HAB         4.3100   -6.5080    8.3730 hc        1 ETT      0.109000
     29 HABA        5.4660   -6.7100    9.7640 hc        1 ETT      0.109000
     30 HABB        4.1930   -5.4140    9.8210 hc        1 ETT      0.109000
     31 HOAE       10.6200   -5.4270    3.4250 ho        1 ETT      0.232000
     32 H9          8.5100   -5.0610    2.7840 ho        1 ETT      0.285000
     33 HOAH        3.3260   -2.0640    6.2780 ho        1 ETT      0.210000
     34 HAI         3.1350   -0.4560    2.0750 hc        1 ETT      0.153000
     35 H12         8.7960   -4.1290    7.6370 ho        1 ETT      0.225000
     36 HAJ         1.2780   -1.0850    4.3690 ha        1 ETT      0.134000
     37 HAK        11.1490   -4.4630    0.8170 h1        1 ETT      0.069333
     38 HAKA       12.3640   -4.5060    2.1870 h1        1 ETT      0.069333
     39 HAL         1.8000    1.8890    1.9650 ha        1 ETT      0.150000
     40 HAM         2.0290   -0.8250   -2.0360 ha        1 ETT      0.185000
     41 HNAM        7.0540   -2.7830    7.7230 h1        1 ETT      0.112000
     42 HAN         3.4290    0.6470    3.4820 hc        1 ETT      0.153000
     43 H20        10.9020   -3.4130    2.3010 h1        1 ETT      0.069333
     44 HAT         5.5880   -2.1490    6.8280 h1        1 ETT      0.112000
     45 H22         6.0370   -4.1140    5.0900 h1        1 ETT      0.108000
     46 HAV         3.5830   -3.6800    3.9660 h1        1 ETT      0.157000
     47 HAW         7.6870   -5.4110    6.3460 h1        1 ETT      0.116000
     48 HBD         0.4690    1.1020   -2.5150 hc        1 ETT      0.102000
     49 HBDA       -1.1690    1.8670   -0.7450 ha        1 ETT      0.151000
     50 HBDB       -0.4760   -0.3330   -1.9310 hc        1 ETT      0.102000
     51 CAP         7.6280    0.1660    3.2220 c1        1 ETT      0.460000
     52 CAB         4.8970   -5.9670    9.1540 c3        1 ETT     -0.241000
     53 OAC         7.1020   -5.0820    8.7450 o         1 ETT     -0.392000
     54 HAM2        4.4220   -4.0920    7.3780 hn        1 ETT      0.239000
     55 OAE        10.5280   -5.4620    2.4590 oh        1 ETT     -0.367000
     56 OAD         7.2570    0.9920    4.0000 o         1 ETT     -0.243500
     57 OAF         8.0820   -0.5240    2.3620 o         1 ETT     -0.243500
@<TRIPOS>BOND
     1    1   11 1   
     2    1   24 1   
     3    1   48 1   
     4    1   50 1   
     5    2   11 1   
     6    3    6 1   
     7    3   16 1   
     8    3   19 1   
     9    4   18 1   
    10    4   32 1   
    11    5   19 1   
    12    5   33 1   
    13    6    8 1   
    14    6   34 1   
    15    6   42 1   
    16    7   20 1   
    17    7   35 1   
    18    8   23 1   
    19    8   36 1   
    20    9   37 1   
    21    9   38 1   
    22    9   43 1   
    23    9   55 1   
    24   10   13 1   
    25   10   24 1   
    26   11   40 1   
    27   12   15 1   
    28   12   21 1   
    29   12   54 1   
    30   13   23 1   
    31   13   39 1   
    32   14   17 1   
    33   14   22 1   
    34   15   52 1   
    35   15   53 1   
    36   16   17 1   
    37   16   19 1   
    38   18   20 1   
    39   19   46 1   
    40   20   22 1   
    41   20   47 1   
    42   21   22 1   
    43   21   41 1   
    44   21   44 1   
    45   22   45 1   
    46   23   25 1   
    47   24   49 1   
    48   26   27 1   
    49   28   52 1   
    50   29   52 1   
    51   30   52 1   
    52   31   55 1   
    53   51   56 1   
    54   51   57 1   
@<TRIPOS>SUBSTRUCTURE
     1 ETT         1 TEMP              0 ****  ****    0 ROOT
