@<TRIPOS>MOLECULE
ETT
   56    53     1     0     0
SMALL
bcc


@<TRIPOS>ATOM
      1 C01        -1.0120    6.6940    2.6040 c1        1 ETT     -0.098000
      2 C02        -0.6660    5.6550    0.4550 c1        1 ETT     -0.120000
      3 C03        -1.5920    1.3370   -1.3440 c3        1 ETT     -0.072000
      4 CAB        -2.0780   -5.4550    1.3060 c3        1 ETT     -0.245000
      5 OAC        -1.1310   -3.4220    2.0900 o         1 ETT     -0.363000
      6 OAD         2.1850    1.9730   -1.5220 o         1 ETT     -0.529500
      7 OAE         4.8260   -5.1970   -2.1450 oh        1 ETT     -0.345000
      8 OAF         1.7250    1.4240   -3.6000 o         1 ETT     -0.529500
      9 OAG         2.1320   -4.4590   -2.8120 oh        1 ETT     -0.333000
     10 OAH        -2.1900   -1.0240    0.3400 oh        1 ETT     -0.339000
     11 CAI        -1.2380    2.4500   -0.3000 c2        1 ETT     -0.102000
     12 OAI         2.4310   -3.1580    0.4860 oh        1 ETT     -0.330000
     13 CAJ        -1.9710    3.6030   -0.2560 c1        1 ETT     -0.200000
     14 CAK         3.7880   -4.9920   -1.1630 c3        1 ETT     -0.057000
     15 CAL        -1.9700    5.7320    2.9170 c1        1 ETT     -0.137500
     16 CAM        -0.3600    6.6540    1.3700 c1        1 ETT     -0.128000
     17 NAM        -0.8450   -3.7340   -0.1770 n         1 ETT     -0.349000
     18 CAN        -2.2770    4.7300    1.9960 c1        1 ETT     -0.137500
     19 OAN         1.5740   -1.2120   -1.5190 os        1 ETT     -0.213000
     20 CAO        -1.3130   -4.1400    1.1370 c2        1 ETT      0.301000
     21 CAP         1.5870    1.2210   -2.3550 c2        1 ETT      0.384000
     22 CAQ        -0.6840    0.0630   -1.0870 c2        1 ETT     -0.327000
     23 CAR         0.8420   -0.0690   -1.8510 c2        1 ETT      0.061000
     24 CAS         2.7900   -3.9500   -1.6850 c3        1 ETT     -0.045000
     25 CAT        -1.2920   -1.1920   -0.7230 c3        1 ETT      0.074000
     26 CAU         1.7890   -3.6400   -0.6220 c3        1 ETT      0.052000
     27 CAV        -0.1170   -2.3840   -0.3480 c3        1 ETT     -0.044000
     28 CAW         0.7500   -2.5260   -1.1700 c3        1 ETT     -0.015000
     29 CAX        -1.6240    4.6920    0.7650 c1        1 ETT     -0.008000
     30 CBD        -0.7730    7.8470    3.5370 c3        1 ETT     -0.168000
     31 H02        -0.1400    5.9510   -0.3160 ha        1 ETT      0.163000
     32 H03        -2.5520    1.0850   -1.2490 hc        1 ETT      0.094500
     33 H03A       -1.4300    1.6760   -2.2520 hc        1 ETT      0.094500
     34 HAB        -1.4470   -6.1750    1.5300 hc        1 ETT      0.098000
     35 HABA       -2.7440   -5.3600    2.0350 hc        1 ETT      0.098000
     36 HABB       -2.5390   -5.6730    0.4700 hc        1 ETT      0.098000
     37 HOAE        5.5440   -5.5640   -1.7510 ho        1 ETT      0.201000
     38 H9          2.5580   -4.1830   -3.5630 ho        1 ETT      0.207000
     39 HOAH       -3.0340   -1.1760    0.0510 ho        1 ETT      0.214000
     40 HAI        -0.5630    2.2750    0.3900 ha        1 ETT      0.182000
     41 H12         3.1990   -2.7560    0.2390 ho        1 ETT      0.229000
     42 HAJ        -2.6980    3.7370   -0.8790 ha        1 ETT      0.109000
     43 HAK         3.3190   -5.8410   -0.9990 h1        1 ETT      0.103000
     44 HAKA        4.1890   -4.6720   -0.3220 h1        1 ETT      0.103000
     45 HAL        -2.4300    5.7540    3.8060 ha        1 ETT      0.118500
     46 HAM         0.2790    7.2970    0.9690 ha        1 ETT      0.125000
     47 HNAM       -1.0670   -4.2180   -0.9030 hn        1 ETT      0.207000
     48 HAN        -2.9040    4.1140    2.4440 ha        1 ETT      0.118500
     49 H20         3.2710   -3.1300   -1.9300 h1        1 ETT      0.108000
     50 HAT        -1.8990   -1.5080   -1.4360 h1        1 ETT      0.093000
     51 H22         1.3030   -4.4480   -0.3890 h1        1 ETT      0.128000
     52 HAV         0.3080   -2.1430    0.5140 h1        1 ETT      0.152000
     53 HAW         0.3420   -2.8600   -1.9910 h1        1 ETT      0.106000
     54 HBD         0.1430    7.7950    3.8940 hc        1 ETT      0.072333
     55 HBDA       -0.8870    8.6940    3.0470 hc        1 ETT      0.072333
     56 HBDB       -1.4080    7.8090    4.2690 hc        1 ETT      0.072333
@<TRIPOS>BOND
     1    1   16 1   
     2    1   30 1   
     3    2   29 1   
     4    2   31 1   
     5    3   11 1   
     6    3   22 1   
     7    3   32 1   
     8    3   33 1   
     9    4   20 1   
    10    4   34 1   
    11    4   35 1   
    12    4   36 1   
    13    5   20 1   
    14    6   21 1   
    15    7   14 1   
    16    7   37 1   
    17    8   21 1   
    18    9   24 1   
    19    9   38 1   
    20   10   25 1   
    21   10   39 1   
    22   11   13 1   
    23   11   40 1   
    24   12   26 1   
    25   12   41 1   
    26   13   42 1   
    27   14   24 1   
    28   14   43 1   
    29   14   44 1   
    30   15   18 1   
    31   15   45 1   
    32   16   46 1   
    33   17   20 1   
    34   17   27 1   
    35   17   47 1   
    36   18   48 1   
    37   19   23 1   
    38   19   28 1   
    39   21   23 1   
    40   22   23 1   
    41   22   25 1   
    42   24   26 1   
    43   24   49 1   
    44   25   27 1   
    45   25   50 1   
    46   26   28 1   
    47   26   51 1   
    48   27   28 1   
    49   27   52 1   
    50   28   53 1   
    51   30   54 1   
    52   30   55 1   
    53   30   56 1   
@<TRIPOS>SUBSTRUCTURE
     1 ETT         1 TEMP              0 ****  ****    0 ROOT
