@<TRIPOS>MOLECULE
ETV
   26    27     1     0     0
SMALL
bcc


@<TRIPOS>ATOM
      1 O4          3.2880   -1.3400   -1.6730 o         1 ETV     -0.620500
      2 C9          3.3350   -0.8900   -0.5100 c         1 ETV      0.840900
      3 N5          4.4200   -0.1540   -0.0300 nc        1 ETV     -0.720100
      4 C10         4.4030    0.3110    1.2310 cd        1 ETV      0.758500
      5 N6          5.4530    1.0520    1.7060 nh        1 ETV     -0.920800
      6 C11         3.2570    0.0450    2.1240 cd        1 ETV     -0.160100
      7 F2          3.2580    0.5080    3.3970 f         1 ETV     -0.159500
      8 C12         2.1950   -0.6910    1.6350 cc        1 ETV      0.040600
      9 N4          2.1910   -1.1500    0.3450 n         1 ETV     -0.396000
     10 C13         1.1130   -1.9830   -0.1800 c3        1 ETV      0.306500
     11 O5          0.5990   -2.8400    0.8510 os        1 ETV     -0.404600
     12 C15        -0.7880   -2.6810    1.1310 c3        1 ETV      0.180200
     13 C16        -0.9990   -2.2990    2.5950 c3        1 ETV      0.114400
     14 O6         -0.7270   -0.9490    2.8900 oh        1 ETV     -0.599800
     15 S2         -1.5360   -1.5250   -0.0230 ss        1 ETV     -0.311200
     16 C14        -0.0190   -1.1870   -0.8580 c3        1 ETV     -0.045300
     17 HN61        6.2530    1.2200    1.1470 hn        1 ETV      0.452300
     18 HN62        5.4410    1.3430    2.6520 hn        1 ETV      0.452300
     19 H12         1.3210   -0.9340    2.2770 h4        1 ETV      0.205000
     20 H13         1.5890   -2.6950   -0.9310 h2        1 ETV      0.129700
     21 H15        -1.2410   -3.6960    0.9590 h2        1 ETV      0.097700
     22 H161       -0.2830   -2.8810    3.2390 h1        1 ETV      0.069200
     23 H162       -2.0580   -2.5490    2.8780 h1        1 ETV      0.069200
     24 HO6        -1.2780   -0.4070    2.3050 ho        1 ETV      0.418000
     25 H141        0.1730   -0.0870   -0.8560 h1        1 ETV      0.101700
     26 H142       -0.1000   -1.5130   -1.9240 h1        1 ETV      0.101700
@<TRIPOS>BOND
     1    1    2 2   
     2    2    3 1   
     3    2    9 1   
     4    3    4 2   
     5    4    5 1   
     6    4    6 1   
     7    5   17 1   
     8    5   18 1   
     9    6    7 1   
    10    6    8 2   
    11    8    9 1   
    12    8   19 1   
    13    9   10 1   
    14   10   11 1   
    15   10   16 1   
    16   10   20 1   
    17   11   12 1   
    18   12   13 1   
    19   12   15 1   
    20   12   21 1   
    21   13   14 1   
    22   13   22 1   
    23   13   23 1   
    24   14   24 1   
    25   15   16 1   
    26   16   25 1   
    27   16   26 1   
@<TRIPOS>SUBSTRUCTURE
     1 ETV         1 TEMP              0 ****  ****    0 ROOT
