@<TRIPOS>MOLECULE
ETV
   27    28     1     0     0
SMALL
bcc


@<TRIPOS>ATOM
      1 O4          0.1960   -1.0440   -0.1120 o         1 ETV     -0.515500
      2 C9          1.3390   -0.5740   -0.1730 c         1 ETV      0.822900
      3 N5          2.2250   -0.6310    0.9370 nc        1 ETV     -0.618100
      4 C10         3.4250   -0.0970    0.8120 cd        1 ETV      0.585500
      5 N6          4.3410   -0.1650    1.9790 n4        1 ETV     -0.797600
      6 C11         3.9080    0.5480   -0.3830 cd        1 ETV     -0.168100
      7 F2          5.1440    1.0870   -0.4420 f         1 ETV     -0.132500
      8 C12         3.0270    0.5910   -1.4770 cc        1 ETV      0.126600
      9 N4          1.7900    0.0500   -1.3990 n         1 ETV     -0.349000
     10 C13         0.7980    0.1470   -2.5050 c3        1 ETV      0.303500
     11 O5          1.2960    0.9830   -3.5370 os        1 ETV     -0.391600
     12 C15         1.6640    0.2880   -4.7390 c3        1 ETV      0.156200
     13 C16         3.1480    0.4920   -5.0310 c3        1 ETV      0.112400
     14 O6          3.9870   -0.1600   -4.1040 oh        1 ETV     -0.616800
     15 S2          1.2010   -1.4430   -4.6120 ss        1 ETV     -0.248200
     16 C14         0.3730   -1.2160   -3.0710 c3        1 ETV     -0.058300
     17 HN61        4.8050    0.7480    2.0780 hn        1 ETV      0.483800
     18 HN62        5.0480   -0.8880    1.7960 hn        1 ETV      0.483800
     19 H12         3.3450    1.0680   -2.4380 h4        1 ETV      0.248000
     20 H13        -0.0890    0.7050   -2.0650 h2        1 ETV      0.137700
     21 H15         1.0600    0.7830   -5.5490 h2        1 ETV      0.120700
     22 H161        3.4010    1.5850   -4.9290 h1        1 ETV      0.083700
     23 H162        3.3620    0.1500   -6.0790 h1        1 ETV      0.083700
     24 HO6         3.9370   -1.1090   -4.2820 ho        1 ETV      0.424000
     25 H141       -0.7360   -1.2010   -3.2240 h1        1 ETV      0.119200
     26 H142        0.5990   -2.0690   -2.3850 h1        1 ETV      0.119200
     27 H63         3.8320   -0.3960    2.8440 hn        1 ETV      0.483800
@<TRIPOS>BOND
     1    1    2 2   
     2    2    3 1   
     3    2    9 1   
     4    3    4 2   
     5    4    5 1   
     6    4    6 1   
     7    5   17 1   
     8    5   18 1   
     9    5   27 1   
    10    6    7 1   
    11    6    8 2   
    12    8    9 1   
    13    8   19 1   
    14    9   10 1   
    15   10   11 1   
    16   10   16 1   
    17   10   20 1   
    18   11   12 1   
    19   12   13 1   
    20   12   15 1   
    21   12   21 1   
    22   13   14 1   
    23   13   22 1   
    24   13   23 1   
    25   14   24 1   
    26   15   16 1   
    27   16   25 1   
    28   16   26 1   
@<TRIPOS>SUBSTRUCTURE
     1 ETV         1 TEMP              0 ****  ****    0 ROOT
