@<TRIPOS>MOLECULE
ETV
   26    27     1     0     0
SMALL
bcc


@<TRIPOS>ATOM
      1 O4          0.0530   -0.4220    0.0830 o         1 ETV     -0.620500
      2 C9          1.2840   -0.2390   -0.0060 c         1 ETV      0.840900
      3 N5          2.1250   -0.2140    1.1080 nc        1 ETV     -0.720100
      4 C10         3.4460   -0.0220    0.9420 cd        1 ETV      0.758500
      5 N6          4.2830   -0.0160    2.0260 nv        1 ETV     -0.920800
      6 C11         4.0210    0.1750   -0.4040 cd        1 ETV     -0.160100
      7 F2          5.3500    0.3820   -0.5580 f         1 ETV     -0.159500
      8 C12         3.1730    0.1550   -1.4950 cc        1 ETV      0.040600
      9 N4          1.8300   -0.0630   -1.3400 n         1 ETV     -0.396000
     10 C13         0.9020   -0.0270   -2.4660 c3        1 ETV      0.306500
     11 O5          1.3270    0.9480   -3.4300 os        1 ETV     -0.404600
     12 C15         1.5790    0.4360   -4.7340 c3        1 ETV      0.180200
     13 C16         3.0210    0.7170   -5.1520 c3        1 ETV      0.114400
     14 O6          3.9740   -0.1410   -4.5690 oh        1 ETV     -0.599800
     15 S2          1.1370   -1.3030   -4.8250 ss        1 ETV     -0.311200
     16 C14         0.6680   -1.3990   -3.1270 c3        1 ETV     -0.045300
     17 HN61        3.9270   -0.1110    2.9450 hn        1 ETV      0.452300
     18 HN62        5.2430    0.1750    1.8840 hn        1 ETV      0.452300
     19 H12         3.5580    0.3210   -2.5250 h4        1 ETV      0.205000
     20 H13        -0.0820    0.3810   -2.0620 h2        1 ETV      0.129700
     21 H15         0.8920    1.0120   -5.4150 h2        1 ETV      0.097700
     22 H161        3.0840    0.6590   -6.2730 h1        1 ETV      0.069200
     23 H162        3.3150    1.7460   -4.8040 h1        1 ETV      0.069200
     24 HO6         3.7190   -1.0500   -4.7890 ho        1 ETV      0.418000
     25 H141        1.2400   -2.2170   -2.6270 h1        1 ETV      0.101700
     26 H142       -0.4180   -1.6540   -3.0540 h1        1 ETV      0.101700
@<TRIPOS>BOND
     1    1    2 2   
     2    2    3 1   
     3    2    9 1   
     4    3    4 2   
     5    4    5 1   
     6    4    6 1   
     7    5   17 1   
     8    5   18 1   
     9    6    7 1   
    10    6    8 2   
    11    8    9 1   
    12    8   19 1   
    13    9   10 1   
    14   10   11 1   
    15   10   16 1   
    16   10   20 1   
    17   11   12 1   
    18   12   13 1   
    19   12   15 1   
    20   12   21 1   
    21   13   14 1   
    22   13   22 1   
    23   13   23 1   
    24   14   24 1   
    25   15   16 1   
    26   16   25 1   
    27   16   26 1   
@<TRIPOS>SUBSTRUCTURE
     1 ETV         1 TEMP              0 ****  ****    0 ROOT
