@<TRIPOS>MOLECULE
ETX
   16    15     1     0     0
SMALL
bcc


@<TRIPOS>ATOM
      1 C2          0.9910    0.1740   -0.6390 c3        1 ETX      0.086400
      2 O2          0.0460   -0.1990    0.3600 os        1 ETX     -0.437600
      3 C3          0.3850    0.3150    1.6480 c3        1 ETX      0.132400
      4 C4         -0.6860   -0.1560    2.6040 c3        1 ETX     -0.098100
      5 O1         -0.7410    0.2180   -2.3440 oh        1 ETX     -0.600800
      6 C1          0.4680   -0.3980   -1.9520 c3        1 ETX      0.132400
      7 H21         1.0640    1.2920   -0.6940 h1        1 ETX      0.037200
      8 H22         1.9970   -0.2570   -0.3930 h1        1 ETX      0.037200
      9 H31         0.4230    1.4370    1.6040 h1        1 ETX      0.026200
     10 H32         1.3950   -0.0710    1.9490 h1        1 ETX      0.026200
     11 H41        -0.4570    0.2200    3.6290 hc        1 ETX      0.046033
     12 H42        -1.6860    0.2260    2.2880 hc        1 ETX      0.046033
     13 H43        -0.7270   -1.2710    2.6230 hc        1 ETX      0.046033
     14 HO1        -1.3630    0.1040   -1.6140 ho        1 ETX      0.413000
     15 H11         1.1920   -0.1750   -2.7800 h1        1 ETX      0.052700
     16 H12         0.3220   -1.5070   -1.8570 h1        1 ETX      0.052700
@<TRIPOS>BOND
     1    1    2 1   
     2    1    6 1   
     3    1    7 1   
     4    1    8 1   
     5    2    3 1   
     6    3    4 1   
     7    3    9 1   
     8    3   10 1   
     9    4   11 1   
    10    4   12 1   
    11    4   13 1   
    12    5    6 1   
    13    5   14 1   
    14    6   15 1   
    15    6   16 1   
@<TRIPOS>SUBSTRUCTURE
     1 ETX         1 TEMP              0 ****  ****    0 ROOT
