@<TRIPOS>MOLECULE
ETX
   16    15     1     0     0
SMALL
bcc


@<TRIPOS>ATOM
      1 C2         -0.1540    0.0310    0.0350 c3        1 ETX      0.086400
      2 O2          1.2710    0.0280    0.0260 os        1 ETX     -0.437600
      3 C3          1.8240   -0.0380    1.3400 c3        1 ETX      0.132400
      4 C4          3.3270   -0.0260    1.1850 c3        1 ETX     -0.098100
      5 O1         -0.2290   -1.1450   -2.0910 oh        1 ETX     -0.600800
      6 C1         -0.5880    0.0480   -1.4270 c3        1 ETX      0.132400
      7 H21        -0.5310   -0.8920    0.5510 h1        1 ETX      0.037200
      8 H22        -0.5300    0.9420    0.5700 h1        1 ETX      0.037200
      9 H31         1.4710    0.8460    1.9370 h1        1 ETX      0.026200
     10 H32         1.4760   -0.9790    1.8440 h1        1 ETX      0.026200
     11 H41         3.8020   -0.0720    2.1930 hc        1 ETX      0.046033
     12 H42         3.6570    0.9050    0.6650 hc        1 ETX      0.046033
     13 H43         3.6630   -0.9030    0.5820 hc        1 ETX      0.046033
     14 HO1         0.7260   -1.2470   -1.9880 ho        1 ETX      0.413000
     15 H11        -1.7070    0.0940   -1.4910 h1        1 ETX      0.052700
     16 H12        -0.1360    0.9320   -1.9500 h1        1 ETX      0.052700
@<TRIPOS>BOND
     1    1    2 1   
     2    1    6 1   
     3    1    7 1   
     4    1    8 1   
     5    2    3 1   
     6    3    4 1   
     7    3    9 1   
     8    3   10 1   
     9    4   11 1   
    10    4   12 1   
    11    4   13 1   
    12    5    6 1   
    13    5   14 1   
    14    6   15 1   
    15    6   16 1   
@<TRIPOS>SUBSTRUCTURE
     1 ETX         1 TEMP              0 ****  ****    0 ROOT
