@<TRIPOS>MOLECULE
ETX
   16    15     1     0     0
SMALL
bcc


@<TRIPOS>ATOM
      1 C2         -0.1550    0.0180    0.0310 c3        1 ETX      0.086400
      2 O2          1.2700    0.0330    0.0310 os        1 ETX     -0.437600
      3 C3          1.8150   -0.0670    1.3460 c3        1 ETX      0.132400
      4 C4          3.3190   -0.0320    1.2020 c3        1 ETX     -0.098100
      5 O1         -0.2010   -1.0910   -2.1320 oh        1 ETX     -0.600800
      6 C1         -0.5800    0.0760   -1.4330 c3        1 ETX      0.132400
      7 H21        -0.5240   -0.9240    0.5150 h1        1 ETX      0.037200
      8 H22        -0.5460    0.9070    0.5910 h1        1 ETX      0.037200
      9 H31         1.4480    0.7940    1.9670 h1        1 ETX      0.026200
     10 H32         1.4760   -1.0270    1.8190 h1        1 ETX      0.026200
     11 H41         3.7880   -0.1030    2.2110 hc        1 ETX      0.046033
     12 H42         3.6420    0.9180    0.7130 hc        1 ETX      0.046033
     13 H43         3.6700   -0.8860    0.5740 hc        1 ETX      0.046033
     14 HO1         0.7540   -1.1850   -2.0250 ho        1 ETX      0.413000
     15 H11        -1.6990    0.1100   -1.5030 h1        1 ETX      0.052700
     16 H12        -0.1350    0.9820   -1.9250 h1        1 ETX      0.052700
@<TRIPOS>BOND
     1    1    2 1   
     2    1    6 1   
     3    1    7 1   
     4    1    8 1   
     5    2    3 1   
     6    3    4 1   
     7    3    9 1   
     8    3   10 1   
     9    4   11 1   
    10    4   12 1   
    11    4   13 1   
    12    5    6 1   
    13    5   14 1   
    14    6   15 1   
    15    6   16 1   
@<TRIPOS>SUBSTRUCTURE
     1 ETX         1 TEMP              0 ****  ****    0 ROOT
