@<TRIPOS>MOLECULE
ETY
   19    19     1     0     0
SMALL
bcc


@<TRIPOS>ATOM
      1 C8          0.0220    0.1360   -0.0770 c3        1 ETY     -0.090100
      2 C7          1.5120   -0.0860    0.0250 c3        1 ETY     -0.033100
      3 CG          1.9830   -0.0890    1.4370 ca        1 ETY     -0.112300
      4 C3          2.3720   -1.2850    2.0550 ca        1 ETY     -0.092000
      5 C2          2.8190   -1.2960    3.3720 ca        1 ETY     -0.182500
      6 C5          2.0480    1.1070    2.1590 ca        1 ETY     -0.092000
      7 C6          2.4930    1.1200    3.4780 ca        1 ETY     -0.182500
      8 C1          2.8780   -0.0850    4.0820 ca        1 ETY      0.119100
      9 O1          3.3280   -0.1560    5.3810 oh        1 ETY     -0.499100
     10 H81        -0.2640    1.1050    0.3980 hc        1 ETY      0.035700
     11 H82        -0.5350   -0.6840    0.4370 hc        1 ETY      0.035700
     12 H83        -0.2900    0.1590   -1.1490 hc        1 ETY      0.035700
     13 H71         2.0480    0.7260   -0.5380 hc        1 ETY      0.045200
     14 H72         1.7780   -1.0590   -0.4680 hc        1 ETY      0.045200
     15 H3          2.3250   -2.2300    1.4930 ha        1 ETY      0.133500
     16 H2          3.1270   -2.2290    3.8630 ha        1 ETY      0.140500
     17 H5          1.7440    2.0500    1.6780 ha        1 ETY      0.133500
     18 H6          2.5420    2.0630    4.0400 ha        1 ETY      0.140500
     19 HO1         3.3180    0.7400    5.7480 ho        1 ETY      0.418000
@<TRIPOS>BOND
     1    1    2 1   
     2    1   10 1   
     3    1   11 1   
     4    1   12 1   
     5    2    3 1   
     6    2   13 1   
     7    2   14 1   
     8    3    4 ar  
     9    3    6 ar  
    10    4    5 ar  
    11    4   15 1   
    12    5    8 ar  
    13    5   16 1   
    14    6    7 ar  
    15    6   17 1   
    16    7    8 ar  
    17    7   18 1   
    18    8    9 1   
    19    9   19 1   
@<TRIPOS>SUBSTRUCTURE
     1 ETY         1 TEMP              0 ****  ****    0 ROOT
