@<TRIPOS>MOLECULE
ETY
   19    19     1     0     0
SMALL
bcc


@<TRIPOS>ATOM
      1 C8          0.0300    0.1630   -0.0820 c3        1 ETY     -0.090100
      2 C7          1.5170   -0.0770    0.0240 c3        1 ETY     -0.033100
      3 CG          1.9830   -0.0900    1.4380 ca        1 ETY     -0.112300
      4 C3          2.3580   -1.2910    2.0530 ca        1 ETY     -0.092000
      5 C2          2.8010   -1.3100    3.3710 ca        1 ETY     -0.182500
      6 C5          2.0590    1.1040    2.1630 ca        1 ETY     -0.092000
      7 C6          2.4990    1.1080    3.4840 ca        1 ETY     -0.182500
      8 C1          2.8700   -0.1030    4.0850 ca        1 ETY      0.119100
      9 O1          3.3160   -0.1810    5.3850 oh        1 ETY     -0.499100
     10 H81        -0.2460    1.1350    0.3940 hc        1 ETY      0.035700
     11 H82        -0.5390   -0.6520    0.4280 hc        1 ETY      0.035700
     12 H83        -0.2780    0.1920   -1.1550 hc        1 ETY      0.035700
     13 H71         2.0640    0.7300   -0.5360 hc        1 ETY      0.045200
     14 H72         1.7730   -1.0520   -0.4710 hc        1 ETY      0.045200
     15 H3          2.3030   -2.2340    1.4880 ha        1 ETY      0.133500
     16 H2          3.0980   -2.2480    3.8610 ha        1 ETY      0.140500
     17 H5          1.7650    2.0510    1.6840 ha        1 ETY      0.133500
     18 H6          2.5560    2.0490    4.0490 ha        1 ETY      0.140500
     19 HO1         3.3130    0.7130    5.7550 ho        1 ETY      0.418000
@<TRIPOS>BOND
     1    1    2 1   
     2    1   10 1   
     3    1   11 1   
     4    1   12 1   
     5    2    3 1   
     6    2   13 1   
     7    2   14 1   
     8    3    4 ar  
     9    3    6 ar  
    10    4    5 ar  
    11    4   15 1   
    12    5    8 ar  
    13    5   16 1   
    14    6    7 ar  
    15    6   17 1   
    16    7    8 ar  
    17    7   18 1   
    18    8    9 1   
    19    9   19 1   
@<TRIPOS>SUBSTRUCTURE
     1 ETY         1 TEMP              0 ****  ****    0 ROOT
