@<TRIPOS>MOLECULE
ETY
   19    19     1     0     0
SMALL
bcc


@<TRIPOS>ATOM
      1 C8         -3.1840   -0.1260    0.8300 c3        1 ETY     -0.090100
      2 C7         -2.4630    0.1050   -0.4760 c3        1 ETY     -0.033100
      3 CG         -0.9840    0.0430   -0.3190 ca        1 ETY     -0.112300
      4 C3         -0.3530   -1.1900   -0.1030 ca        1 ETY     -0.092000
      5 C2          1.0270   -1.2710    0.0390 ca        1 ETY     -0.182500
      6 C5         -0.2100    1.2040   -0.3940 ca        1 ETY     -0.092000
      7 C6          1.1750    1.1460   -0.2540 ca        1 ETY     -0.182500
      8 C1          1.7900   -0.0940   -0.0370 ca        1 ETY      0.120100
      9 O1          3.1520   -0.2340    0.1100 oh        1 ETY     -0.499100
     10 H81        -2.9160    0.6620    1.5740 hc        1 ETY      0.035700
     11 H82        -4.2890   -0.1000    0.6680 hc        1 ETY      0.035700
     12 H83        -2.9100   -1.1210    1.2580 hc        1 ETY      0.035700
     13 H71        -2.7860   -0.6720   -1.2220 hc        1 ETY      0.045200
     14 H72        -2.7610    1.1050   -0.8930 hc        1 ETY      0.045200
     15 H3         -0.9600   -2.1060   -0.0450 ha        1 ETY      0.133000
     16 H2          1.5300   -2.2330    0.2080 ha        1 ETY      0.140500
     17 H5         -0.6960    2.1770   -0.5640 ha        1 ETY      0.133000
     18 H6          1.7790    2.0620   -0.3130 ha        1 ETY      0.140500
     19 HO1         3.5500    0.6450    0.0360 ho        1 ETY      0.418000
@<TRIPOS>BOND
     1    1    2 1   
     2    1   10 1   
     3    1   11 1   
     4    1   12 1   
     5    2    3 1   
     6    2   13 1   
     7    2   14 1   
     8    3    4 ar  
     9    3    6 ar  
    10    4    5 ar  
    11    4   15 1   
    12    5    8 ar  
    13    5   16 1   
    14    6    7 ar  
    15    6   17 1   
    16    7    8 ar  
    17    7   18 1   
    18    8    9 1   
    19    9   19 1   
@<TRIPOS>SUBSTRUCTURE
     1 ETY         1 TEMP              0 ****  ****    0 ROOT
