@<TRIPOS>MOLECULE
ETZ
   15    14     1     0     0
SMALL
bcc


@<TRIPOS>ATOM
      1 O1          0.0000   -0.2500    0.0000 os        1 ETZ     -0.426600
      2 C1         -2.3550   -0.4100    0.0000 c3        1 ETZ     -0.096100
      3 C2         -1.1840    0.5450    0.0000 c3        1 ETZ      0.130400
      4 C3          1.1840    0.5450    0.0000 c3        1 ETZ      0.130400
      5 C4          2.3550   -0.4100    0.0000 c3        1 ETZ     -0.096100
      6 H1         -2.3240   -1.0630   -0.9040 hc        1 ETZ      0.044700
      7 H2         -2.3240   -1.0630    0.9040 hc        1 ETZ      0.044700
      8 H3         -3.3070    0.1710   -0.0000 hc        1 ETZ      0.044700
      9 H4         -1.1970    1.1990    0.9130 h1        1 ETZ      0.022700
     10 H5         -1.1970    1.1990   -0.9130 h1        1 ETZ      0.022700
     11 H6          1.1970    1.1990   -0.9130 h1        1 ETZ      0.022700
     12 H7          1.1970    1.1990    0.9130 h1        1 ETZ      0.022700
     13 H8          2.3240   -1.0630    0.9040 hc        1 ETZ      0.044700
     14 H9          2.3240   -1.0630   -0.9040 hc        1 ETZ      0.044700
     15 H10         3.3070    0.1710   -0.0000 hc        1 ETZ      0.044700
@<TRIPOS>BOND
     1    1    3 1   
     2    1    4 1   
     3    2    3 1   
     4    2    6 1   
     5    2    7 1   
     6    2    8 1   
     7    3    9 1   
     8    3   10 1   
     9    4    5 1   
    10    4   11 1   
    11    4   12 1   
    12    5   13 1   
    13    5   14 1   
    14    5   15 1   
@<TRIPOS>SUBSTRUCTURE
     1 ETZ         1 TEMP              0 ****  ****    0 ROOT
