@<TRIPOS>MOLECULE
ETZ
   15    14     1     0     0
SMALL
bcc


@<TRIPOS>ATOM
      1 O1         -0.0010    0.0010   -0.0020 os        1 ETZ     -0.426600
      2 C1          1.8870    0.0010   -1.4170 c3        1 ETZ     -0.096100
      3 C2          1.4250   -0.0010    0.0210 c3        1 ETZ      0.130400
      4 C3         -0.5630   -0.0010    1.3090 c3        1 ETZ      0.130400
      5 C4         -2.0640    0.0010    1.1440 c3        1 ETZ     -0.096100
      6 H1          1.5060   -0.9030   -1.9500 hc        1 ETZ      0.044700
      7 H2          3.0030   -0.0000   -1.4470 hc        1 ETZ      0.044700
      8 H3          1.5070    0.9060   -1.9480 hc        1 ETZ      0.044700
      9 H4          1.7920    0.9110    0.5640 h1        1 ETZ      0.022700
     10 H5          1.7900   -0.9150    0.5620 h1        1 ETZ      0.022700
     11 H6         -0.2160    0.9110    1.8660 h1        1 ETZ      0.022700
     12 H7         -0.2180   -0.9150    1.8630 h1        1 ETZ      0.022700
     13 H8         -2.3930    0.9060    0.5800 hc        1 ETZ      0.044700
     14 H9         -2.3940   -0.9030    0.5780 hc        1 ETZ      0.044700
     15 H10        -2.5470    0.0000    2.1500 hc        1 ETZ      0.044700
@<TRIPOS>BOND
     1    1    3 1   
     2    1    4 1   
     3    2    3 1   
     4    2    6 1   
     5    2    7 1   
     6    2    8 1   
     7    3    9 1   
     8    3   10 1   
     9    4    5 1   
    10    4   11 1   
    11    4   12 1   
    12    5   13 1   
    13    5   14 1   
    14    5   15 1   
@<TRIPOS>SUBSTRUCTURE
     1 ETZ         1 TEMP              0 ****  ****    0 ROOT
