@<TRIPOS>MOLECULE
ETZ
   15    14     1     0     0
SMALL
bcc


@<TRIPOS>ATOM
      1 O1         -0.1620   -0.0010   -0.2490 os        1 ETZ     -0.426600
      2 C1          1.7510   -0.0010   -1.6750 c3        1 ETZ     -0.096100
      3 C2          1.2460   -0.0010   -0.2490 c3        1 ETZ      0.130400
      4 C3         -0.7320   -0.0010    1.0390 c3        1 ETZ      0.130400
      5 C4         -2.2410    0.0030    0.9220 c3        1 ETZ     -0.096100
      6 H1          2.7270   -0.0010   -1.6750 hc        1 ETZ      0.044700
      7 H2          1.4260   -0.7990   -2.1350 hc        1 ETZ      0.044700
      8 H3          1.4250    0.7950   -2.1360 hc        1 ETZ      0.044700
      9 H4          1.5720    0.7960    0.2110 h1        1 ETZ      0.022700
     10 H5          1.5720   -0.7980    0.2110 h1        1 ETZ      0.022700
     11 H6         -0.4460   -0.7990    1.5220 h1        1 ETZ      0.022700
     12 H7         -0.4410    0.7950    1.5240 h1        1 ETZ      0.022700
     13 H8         -2.5280    0.8020    0.4390 hc        1 ETZ      0.044700
     14 H9         -2.6360    0.0030    1.8150 hc        1 ETZ      0.044700
     15 H10        -2.5320   -0.7930    0.4370 hc        1 ETZ      0.044700
@<TRIPOS>BOND
     1    1    3 1   
     2    1    4 1   
     3    2    3 1   
     4    2    6 1   
     5    2    7 1   
     6    2    8 1   
     7    3    9 1   
     8    3   10 1   
     9    4    5 1   
    10    4   11 1   
    11    4   12 1   
    12    5   13 1   
    13    5   14 1   
    14    5   15 1   
@<TRIPOS>SUBSTRUCTURE
     1 ETZ         1 TEMP              0 ****  ****    0 ROOT
