@<TRIPOS>MOLECULE
EUD
   41    41     1     0     0
SMALL
bcc


@<TRIPOS>ATOM
      1 C1         -1.3840    0.0950    0.5330 c3        1 EUD     -0.146000
      2 C2          0.1550    0.0950    0.5330 c3        1 EUD     -0.087000
      3 C3          0.7090    0.0950    1.9660 c3        1 EUD     -0.100000
      4 C4          0.2140    1.3050    2.6740 c3        1 EUD     -0.208000
      5 C5          2.2750    0.0950    1.9920 c3        1 EUD     -0.152000
      6 C6          2.8800   -1.0210    1.1240 c3        1 EUD     -0.154000
      7 C7          2.3020   -1.0300   -0.3270 c3        1 EUD     -0.149000
      8 C8          0.7580   -1.0390   -0.3340 c3        1 EUD     -0.042000
      9 C9          0.3320   -2.3410    0.3040 c3        1 EUD     -0.202000
     10 C10         0.2240   -1.0560   -1.7470 c3        1 EUD     -0.150000
     11 C11        -1.3470   -1.0610   -1.7960 c3        1 EUD     -0.149000
     12 C12        -2.0030    0.0950   -0.9470 c3        1 EUD     -0.067000
     13 C13        -1.8670    1.4160   -1.6200 c2        1 EUD     -0.095000
     14 C14        -2.5290    2.6420   -1.0240 c3        1 EUD     -0.186000
     15 C15        -1.1570    1.5210   -2.7610 c1        1 EUD     -0.232000
     16 H11        -1.6990    0.8890    1.0050 hc        1 EUD      0.082000
     17 H12        -1.6990   -0.6990    1.0050 hc        1 EUD      0.082000
     18 H2          0.4340    0.9360    0.1240 hc        1 EUD      0.092000
     19 H33         0.3850   -0.7000    2.4310 hc        1 EUD      0.088000
     20 H41         0.3050    2.0830    2.0920 hc        1 EUD      0.072000
     21 H42         0.7370    1.4430    3.4860 hc        1 EUD      0.072000
     22 H43        -0.7260    1.1830    2.9090 hc        1 EUD      0.072000
     23 H51         2.5960    0.9570    1.6650 hc        1 EUD      0.077500
     24 H52         2.5750   -0.0250    2.9130 hc        1 EUD      0.077500
     25 H61         3.8470   -0.8960    1.0780 hc        1 EUD      0.077500
     26 H62         2.6930   -1.8830    1.5430 hc        1 EUD      0.077500
     27 H71         2.6260   -1.8240   -0.7930 hc        1 EUD      0.078000
     28 H72         2.6170   -0.2350   -0.7980 hc        1 EUD      0.078000
     29 H91        -0.6420   -2.3740    0.3580 hc        1 EUD      0.073000
     30 H92         0.7100   -2.4020    1.2020 hc        1 EUD      0.073000
     31 H93         0.6540   -3.0890   -0.2350 hc        1 EUD      0.073000
     32 H101        0.5560   -1.8540   -2.2010 hc        1 EUD      0.080000
     33 H102        0.5520   -0.2660   -2.2180 hc        1 EUD      0.080000
     34 H111       -1.6300   -0.9650   -2.7260 hc        1 EUD      0.079500
     35 H112       -1.6670   -1.9180   -1.4580 hc        1 EUD      0.079500
     36 H121       -2.9740   -0.0040   -0.9160 hc        1 EUD      0.088000
     37 H141       -1.8440    3.2420   -0.6710 hc        1 EUD      0.080000
     38 H142       -3.1260    2.3700   -0.3010 hc        1 EUD      0.080000
     39 H143       -3.0410    3.1040   -1.7140 hc        1 EUD      0.080000
     40 H151       -0.7310    0.7320   -3.1450 DU        1 EUD      0.115000
     41 H152       -1.0680    2.3870   -3.2020 ha        1 EUD      0.109000
@<TRIPOS>BOND
     1    1    2 1   
     2    1   12 1   
     3    1   16 1   
     4    1   17 1   
     5    2    3 1   
     6    2    8 1   
     7    2   18 1   
     8    3    4 1   
     9    3    5 1   
    10    3   19 1   
    11    4   20 1   
    12    4   21 1   
    13    4   22 1   
    14    5    6 1   
    15    5   23 1   
    16    5   24 1   
    17    6    7 1   
    18    6   25 1   
    19    6   26 1   
    20    7    8 1   
    21    7   27 1   
    22    7   28 1   
    23    8    9 1   
    24    8   10 1   
    25    9   29 1   
    26    9   30 1   
    27    9   31 1   
    28   10   11 1   
    29   10   32 1   
    30   10   33 1   
    31   11   12 1   
    32   11   34 1   
    33   11   35 1   
    34   12   13 1   
    35   12   36 1   
    36   13   14 1   
    37   13   15 1   
    38   14   37 1   
    39   14   38 1   
    40   14   39 1   
    41   15   41 1   
@<TRIPOS>SUBSTRUCTURE
     1 EUD         1 TEMP              0 ****  ****    0 ROOT
