@<TRIPOS>MOLECULE
EUD
   41    42     1     0     0
SMALL
bcc


@<TRIPOS>ATOM
      1 C1          0.1070    0.0500   -0.2350 c3        1 EUD     -0.064400
      2 C2          1.6010   -0.0910   -0.0100 c3        1 EUD     -0.046700
      3 C3          1.9730    0.0370    1.4680 c3        1 EUD     -0.059700
      4 C4          1.4960    1.3480    2.0590 c3        1 EUD     -0.090100
      5 C5          3.4830   -0.0710    1.6390 c3        1 EUD     -0.073400
      6 C6          4.0310   -1.3450    1.0370 c3        1 EUD     -0.075400
      7 C7          3.6370   -1.4840   -0.4170 c3        1 EUD     -0.070400
      8 C8          2.1200   -1.4050   -0.6190 c3        1 EUD     -0.043000
      9 C9          1.4670   -2.6390   -0.0150 c3        1 EUD     -0.083100
     10 C10         1.8390   -1.3690   -2.1230 c3        1 EUD     -0.070400
     11 C11         0.3870   -1.1120   -2.4650 c3        1 EUD     -0.068400
     12 C12        -0.2830    0.0270   -1.7100 c3        1 EUD     -0.022500
     13 C13        -0.1130    1.3760   -2.3430 c2        1 EUD     -0.107400
     14 C14        -1.2210    2.3290   -2.0610 c3        1 EUD     -0.063900
     15 C15         0.9120    1.7310   -3.1220 c2        1 EUD     -0.227000
     16 H11        -0.2470    1.0160    0.2140 hc        1 EUD      0.042200
     17 H12        -0.4310   -0.7790    0.2960 hc        1 EUD      0.042200
     18 H2          2.1120    0.7510   -0.5630 hc        1 EUD      0.053700
     19 H33         1.4850   -0.8050    2.0350 hc        1 EUD      0.047700
     20 H41         0.3880    1.3420    2.1940 hc        1 EUD      0.033033
     21 H42         1.9660    1.5140    3.0590 hc        1 EUD      0.033033
     22 H43         1.7690    2.2040    1.3950 hc        1 EUD      0.033033
     23 H51         3.7350   -0.0350    2.7310 hc        1 EUD      0.038700
     24 H52         3.9710    0.8140    1.1510 hc        1 EUD      0.038700
     25 H61         3.6570   -2.2290    1.6190 hc        1 EUD      0.038200
     26 H62         5.1500   -1.3450    1.1180 hc        1 EUD      0.038200
     27 H71         4.1270   -0.6670   -1.0100 hc        1 EUD      0.038700
     28 H72         4.0110   -2.4620   -0.8170 hc        1 EUD      0.038700
     29 H91         0.3740   -2.6630   -0.2410 hc        1 EUD      0.034033
     30 H92         1.9330   -3.5610   -0.4430 hc        1 EUD      0.034033
     31 H93         1.5980   -2.6620    1.0930 hc        1 EUD      0.034033
     32 H101        2.1450   -2.3510   -2.5730 hc        1 EUD      0.038700
     33 H102        2.4860   -0.5800   -2.5880 hc        1 EUD      0.038700
     34 H111       -0.1970   -2.0500   -2.2570 hc        1 EUD      0.040200
     35 H112        0.3080   -0.9140   -3.5670 hc        1 EUD      0.040200
     36 H121       -1.3960   -0.1890   -1.7430 hc        1 EUD      0.044700
     37 H141       -2.1590    1.9800   -2.5620 hc        1 EUD      0.040700
     38 H142       -0.9840    3.3540   -2.4360 hc        1 EUD      0.040700
     39 H143       -1.4170    2.3920   -0.9620 hc        1 EUD      0.040700
     40 H151        1.7400    1.0580   -3.3720 ha        1 EUD      0.112000
     41 H152        0.9840    2.7330   -3.5660 ha        1 EUD      0.112000
@<TRIPOS>BOND
     1    1    2 1   
     2    1   12 1   
     3    1   16 1   
     4    1   17 1   
     5    2    3 1   
     6    2    8 1   
     7    2   18 1   
     8    3    4 1   
     9    3    5 1   
    10    3   19 1   
    11    4   20 1   
    12    4   21 1   
    13    4   22 1   
    14    5    6 1   
    15    5   23 1   
    16    5   24 1   
    17    6    7 1   
    18    6   25 1   
    19    6   26 1   
    20    7    8 1   
    21    7   27 1   
    22    7   28 1   
    23    8    9 1   
    24    8   10 1   
    25    9   29 1   
    26    9   30 1   
    27    9   31 1   
    28   10   11 1   
    29   10   32 1   
    30   10   33 1   
    31   11   12 1   
    32   11   34 1   
    33   11   35 1   
    34   12   13 1   
    35   12   36 1   
    36   13   14 1   
    37   13   15 2   
    38   14   37 1   
    39   14   38 1   
    40   14   39 1   
    41   15   40 1   
    42   15   41 1   
@<TRIPOS>SUBSTRUCTURE
     1 EUD         1 TEMP              0 ****  ****    0 ROOT
