@<TRIPOS>MOLECULE
EUD
   41    42     1     0     0
SMALL
bcc


@<TRIPOS>ATOM
      1 C1          0.1050    0.0340   -0.2320 c3        1 EUD     -0.064400
      2 C2          1.6000   -0.1030   -0.0070 c3        1 EUD     -0.046700
      3 C3          1.9670   -0.0020    1.4740 c3        1 EUD     -0.059700
      4 C4          1.4810    1.2950    2.0900 c3        1 EUD     -0.090100
      5 C5          3.4780   -0.1030    1.6460 c3        1 EUD     -0.073400
      6 C6          4.0350   -1.3630    1.0210 c3        1 EUD     -0.075400
      7 C7          3.6440   -1.4750   -0.4360 c3        1 EUD     -0.070400
      8 C8          2.1270   -1.4010   -0.6400 c3        1 EUD     -0.043000
      9 C9          1.4810   -2.6510   -0.0630 c3        1 EUD     -0.083100
     10 C10         1.8490   -1.3370   -2.1440 c3        1 EUD     -0.070400
     11 C11         0.3970   -1.0820   -2.4840 c3        1 EUD     -0.068400
     12 C12        -0.2820    0.0380   -1.7080 c3        1 EUD     -0.022500
     13 C13        -0.1190    1.4000   -2.3140 c2        1 EUD     -0.107400
     14 C14        -1.2330    2.3400   -2.0160 c3        1 EUD     -0.063900
     15 C15         0.9050    1.7760   -3.0840 c2        1 EUD     -0.227000
     16 H11        -0.4290   -0.8090    0.2810 hc        1 EUD      0.042200
     17 H12        -0.2560    0.9880    0.2350 hc        1 EUD      0.042200
     18 H2          2.1060    0.7540   -0.5420 hc        1 EUD      0.053700
     19 H33         1.4840   -0.8570    2.0240 hc        1 EUD      0.047700
     20 H41         1.7500    2.1650    1.4440 hc        1 EUD      0.033033
     21 H42         1.9470    1.4430    3.0940 hc        1 EUD      0.033033
     22 H43         0.3720    1.2790    2.2230 hc        1 EUD      0.033033
     23 H51         3.7270   -0.0880    2.7390 hc        1 EUD      0.038700
     24 H52         3.9620    0.7940    1.1780 hc        1 EUD      0.038700
     25 H61         3.6650   -2.2600    1.5840 hc        1 EUD      0.038200
     26 H62         5.1540   -1.3570    1.1050 hc        1 EUD      0.038200
     27 H71         4.1310   -0.6430   -1.0120 hc        1 EUD      0.038700
     28 H72         4.0250   -2.4430   -0.8550 hc        1 EUD      0.038700
     29 H91         1.6100   -2.6950    1.0450 hc        1 EUD      0.034033
     30 H92         1.9530   -3.5610   -0.5070 hc        1 EUD      0.034033
     31 H93         0.3890   -2.6780   -0.2920 hc        1 EUD      0.034033
     32 H101        2.4930   -0.5340   -2.5920 hc        1 EUD      0.038700
     33 H102        2.1630   -2.3080   -2.6120 hc        1 EUD      0.038700
     34 H111       -0.1820   -2.0270   -2.2960 hc        1 EUD      0.040200
     35 H112        0.3190   -0.8630   -3.5830 hc        1 EUD      0.040200
     36 H121       -1.3930   -0.1840   -1.7480 hc        1 EUD      0.044700
     37 H141       -1.4310    2.3810   -0.9160 hc        1 EUD      0.040700
     38 H142       -1.0010    3.3740   -2.3690 hc        1 EUD      0.040700
     39 H143       -2.1680    1.9960   -2.5250 hc        1 EUD      0.040700
     40 H151        1.7380    1.1130   -3.3460 ha        1 EUD      0.112000
     41 H152        0.9720    2.7870   -3.5080 ha        1 EUD      0.112000
@<TRIPOS>BOND
     1    1    2 1   
     2    1   12 1   
     3    1   16 1   
     4    1   17 1   
     5    2    3 1   
     6    2    8 1   
     7    2   18 1   
     8    3    4 1   
     9    3    5 1   
    10    3   19 1   
    11    4   20 1   
    12    4   21 1   
    13    4   22 1   
    14    5    6 1   
    15    5   23 1   
    16    5   24 1   
    17    6    7 1   
    18    6   25 1   
    19    6   26 1   
    20    7    8 1   
    21    7   27 1   
    22    7   28 1   
    23    8    9 1   
    24    8   10 1   
    25    9   29 1   
    26    9   30 1   
    27    9   31 1   
    28   10   11 1   
    29   10   32 1   
    30   10   33 1   
    31   11   12 1   
    32   11   34 1   
    33   11   35 1   
    34   12   13 1   
    35   12   36 1   
    36   13   14 1   
    37   13   15 2   
    38   14   37 1   
    39   14   38 1   
    40   14   39 1   
    41   15   40 1   
    42   15   41 1   
@<TRIPOS>SUBSTRUCTURE
     1 EUD         1 TEMP              0 ****  ****    0 ROOT
