@<TRIPOS>MOLECULE
EUD
   41    42     1     0     0
SMALL
bcc


@<TRIPOS>ATOM
      1 C1         -0.7560    0.5750    0.9840 c3        1 EUD     -0.064400
      2 C2          0.4550    0.3570    0.0950 c3        1 EUD     -0.046700
      3 C3          1.6210    1.2680    0.4810 c3        1 EUD     -0.059700
      4 C4          1.2280    2.7320    0.4480 c3        1 EUD     -0.090100
      5 C5          2.7960    1.0430   -0.4620 c3        1 EUD     -0.073400
      6 C6          3.2170   -0.4090   -0.5030 c3        1 EUD     -0.075400
      7 C7          2.0550   -1.3120   -0.8560 c3        1 EUD     -0.070400
      8 C8          0.8650   -1.1250    0.0910 c3        1 EUD     -0.043000
      9 C9          1.2360   -1.6450    1.4720 c3        1 EUD     -0.083100
     10 C10        -0.3130   -1.9370   -0.4550 c3        1 EUD     -0.070400
     11 C11        -1.6100   -1.7030    0.2890 c3        1 EUD     -0.068400
     12 C12        -1.9680   -0.2490    0.5600 c3        1 EUD     -0.022500
     13 C13        -2.7260    0.4210   -0.5480 c2        1 EUD     -0.107400
     14 C14        -3.6240    1.5190   -0.0990 c3        1 EUD     -0.063900
     15 C15        -2.6540    0.0800   -1.8370 c2        1 EUD     -0.227000
     16 H11        -1.0380    1.6610    0.9680 hc        1 EUD      0.042200
     17 H12        -0.4930    0.3160    2.0430 hc        1 EUD      0.042200
     18 H2          0.1550    0.6180   -0.9620 hc        1 EUD      0.053700
     19 H33         1.9450    1.0140    1.5290 hc        1 EUD      0.047700
     20 H41         0.6900    2.9760   -0.5000 hc        1 EUD      0.033033
     21 H42         0.5640    2.9840    1.3090 hc        1 EUD      0.033033
     22 H43         2.1390    3.3770    0.5130 hc        1 EUD      0.033033
     23 H51         2.5090    1.3790   -1.4930 hc        1 EUD      0.038700
     24 H52         3.6620    1.6730   -0.1310 hc        1 EUD      0.038700
     25 H61         4.0310   -0.5390   -1.2650 hc        1 EUD      0.038200
     26 H62         3.6420   -0.7070    0.4910 hc        1 EUD      0.038200
     27 H71         1.7250   -1.0910   -1.9050 hc        1 EUD      0.038700
     28 H72         2.3860   -2.3820   -0.8240 hc        1 EUD      0.038700
     29 H91         2.0500   -1.0310    1.9270 hc        1 EUD      0.034033
     30 H92         0.3540   -1.6220    2.1570 hc        1 EUD      0.034033
     31 H93         1.5920   -2.7010    1.3970 hc        1 EUD      0.034033
     32 H101       -0.4440   -1.6890   -1.5410 hc        1 EUD      0.038700
     33 H102       -0.0580   -3.0290   -0.3970 hc        1 EUD      0.038700
     34 H111       -2.4450   -2.1820   -0.2890 hc        1 EUD      0.040200
     35 H112       -1.5500   -2.2300    1.2800 hc        1 EUD      0.040200
     36 H121       -2.6720   -0.2620    1.4480 hc        1 EUD      0.044700
     37 H141       -4.0580    2.0730   -0.9670 hc        1 EUD      0.040700
     38 H142       -4.4670    1.0970    0.5050 hc        1 EUD      0.040700
     39 H143       -3.0680    2.2470    0.5420 hc        1 EUD      0.040700
     40 H151       -2.0220   -0.7330   -2.2110 ha        1 EUD      0.112000
     41 H152       -3.2370    0.6010   -2.6080 ha        1 EUD      0.112000
@<TRIPOS>BOND
     1    1    2 1   
     2    1   12 1   
     3    1   16 1   
     4    1   17 1   
     5    2    3 1   
     6    2    8 1   
     7    2   18 1   
     8    3    4 1   
     9    3    5 1   
    10    3   19 1   
    11    4   20 1   
    12    4   21 1   
    13    4   22 1   
    14    5    6 1   
    15    5   23 1   
    16    5   24 1   
    17    6    7 1   
    18    6   25 1   
    19    6   26 1   
    20    7    8 1   
    21    7   27 1   
    22    7   28 1   
    23    8    9 1   
    24    8   10 1   
    25    9   29 1   
    26    9   30 1   
    27    9   31 1   
    28   10   11 1   
    29   10   32 1   
    30   10   33 1   
    31   11   12 1   
    32   11   34 1   
    33   11   35 1   
    34   12   13 1   
    35   12   36 1   
    36   13   14 1   
    37   13   15 2   
    38   14   37 1   
    39   14   38 1   
    40   14   39 1   
    41   15   40 1   
    42   15   41 1   
@<TRIPOS>SUBSTRUCTURE
     1 EUD         1 TEMP              0 ****  ****    0 ROOT
