@<TRIPOS>MOLECULE
EUG
   24    24     1     0     0
SMALL
bcc


@<TRIPOS>ATOM
      1 C1          1.0000    0.0640   -0.0880 ca        1 EUG     -0.055800
      2 C2         -0.1080   -0.8010   -0.0530 ca        1 EUG     -0.154000
      3 C3         -1.3950   -0.2790    0.0410 ca        1 EUG      0.042100
      4 C4         -1.5960    1.1210    0.0950 ca        1 EUG      0.112100
      5 C5         -0.4910    1.9790    0.0510 ca        1 EUG     -0.138000
      6 C6          0.7920    1.4480   -0.0390 ca        1 EUG     -0.116000
      7 C7          2.3310   -0.5120   -0.1850 ce        1 EUG     -0.120200
      8 C8          3.4650    0.1120    0.1600 c2        1 EUG     -0.155200
      9 C9         -2.3890   -2.4430    0.0870 c3        1 EUG      0.121700
     10 O3         -2.5590   -1.0310    0.0840 os        1 EUG     -0.349900
     11 O4         -2.8400    1.6960    0.1850 oh        1 EUG     -0.495100
     12 C10         4.8010   -0.5050    0.0470 c3        1 EUG     -0.065900
     13 H2          0.0540   -1.8880   -0.0960 ha        1 EUG      0.139000
     14 H5         -0.6550    3.0660    0.0890 ha        1 EUG      0.152000
     15 H6          1.6530    2.1330   -0.0810 ha        1 EUG      0.137000
     16 H7          2.3630   -1.5480   -0.5690 ha        1 EUG      0.122000
     17 H81         3.4570    1.1390    0.5610 ha        1 EUG      0.122000
     18 H91        -3.4370   -2.8310    0.1520 h1        1 EUG      0.045367
     19 H92        -1.9010   -2.7810   -0.8600 h1        1 EUG      0.045367
     20 H93        -1.7910   -2.7660    0.9730 h1        1 EUG      0.045367
     21 HO4        -3.4990    0.9850    0.2100 ho        1 EUG      0.436000
     22 H10         5.2900   -0.5450    1.0530 hc        1 EUG      0.042700
     23 H11         4.7510   -1.5440   -0.3610 hc        1 EUG      0.042700
     24 H12         5.4490    0.1080   -0.6290 hc        1 EUG      0.042700
@<TRIPOS>BOND
     1    1    2 ar  
     2    1    6 ar  
     3    1    7 1   
     4    2    3 ar  
     5    2   13 1   
     6    3    4 ar  
     7    3   10 1   
     8    4    5 ar  
     9    4   11 1   
    10    5    6 ar  
    11    5   14 1   
    12    6   15 1   
    13    7    8 2   
    14    7   16 1   
    15    8   12 1   
    16    8   17 1   
    17    9   10 1   
    18    9   18 1   
    19    9   19 1   
    20    9   20 1   
    21   11   21 1   
    22   12   22 1   
    23   12   23 1   
    24   12   24 1   
@<TRIPOS>SUBSTRUCTURE
     1 EUG         1 TEMP              0 ****  ****    0 ROOT
