@<TRIPOS>MOLECULE
EUG
   24    20     1     0     0
SMALL
bcc


@<TRIPOS>ATOM
      1 C1         -0.8650    0.2030   -0.4490 c1        1 EUG     -0.058000
      2 C2          0.5290    0.2520   -0.4650 c1        1 EUG     -0.103000
      3 C3          1.2380    0.2940    0.7340 c1        1 EUG      0.031000
      4 C4          0.5540    0.2870    1.9460 c1        1 EUG      0.050000
      5 C5         -0.8360    0.2380    1.9600 c1        1 EUG     -0.201000
      6 C6         -1.5450    0.1960    0.7620 c1        1 EUG     -0.097000
      7 C7         -1.6560    0.3400   -1.7710 c2        1 EUG     -0.134000
      8 C8         -2.0850   -0.7620   -2.4160 c1        1 EUG     -0.147000
      9 C9          3.3390    1.5430    0.6290 c3        1 EUG     -0.075000
     10 O3          2.6990    0.2400    0.7200 os        1 EUG     -0.213000
     11 O4          1.2600    0.2910    3.1430 oh        1 EUG     -0.249000
     12 C10        -1.7950   -2.1140   -1.8540 c2        1 EUG     -0.193000
     13 H2          1.0020    0.2570   -1.3060 ha        1 EUG      0.151000
     14 H5         -1.3180    0.2330    2.8160 ha        1 EUG      0.134000
     15 H6         -2.5200    0.1620    0.7730 ha        1 EUG      0.139000
     16 H7         -1.8470    1.2310   -2.1400 ha        1 EUG      0.125000
     17 H81        -2.5880   -0.6760   -3.2540 ha        1 EUG      0.119000
     18 H91         4.1890    1.5290    1.1350 h1        1 EUG      0.083333
     19 H92         2.7500    2.2190    1.0030 h1        1 EUG      0.083333
     20 H93         3.5210    1.7520   -0.3100 h1        1 EUG      0.083333
     21 HO4         1.1720   -0.4840    3.5360 ho        1 EUG      0.218000
     22 H10        -1.9770   -2.7980   -2.5340 ha        1 EUG      0.084000
     23 H11        -2.3640   -2.2720   -1.0720 ha        1 EUG      0.084000
     24 H12        -0.8550   -2.1610   -1.5880 ha        1 EUG      0.084000
@<TRIPOS>BOND
     1    1    6 1   
     2    1    7 1   
     3    2    3 1   
     4    2   13 1   
     5    3   10 1   
     6    4    5 1   
     7    4   11 1   
     8    5   14 1   
     9    6   15 1   
    10    7    8 1   
    11    7   16 1   
    12    8   17 1   
    13    9   10 1   
    14    9   18 1   
    15    9   19 1   
    16    9   20 1   
    17   11   21 1   
    18   12   22 1   
    19   12   23 1   
    20   12   24 1   
@<TRIPOS>SUBSTRUCTURE
     1 EUG         1 TEMP              0 ****  ****    0 ROOT
