@<TRIPOS>MOLECULE
EUG
   24    24     1     0     0
SMALL
bcc


@<TRIPOS>ATOM
      1 C1         -0.1100    0.5960   -0.1660 ca        1 EUG     -0.056800
      2 C2          1.2920    0.5380   -0.1000 ca        1 EUG     -0.154000
      3 C3          1.9120    0.0310    1.0400 ca        1 EUG      0.042100
      4 C4          1.1370   -0.4160    2.1360 ca        1 EUG      0.112100
      5 C5         -0.2590   -0.3450    2.0700 ca        1 EUG     -0.139000
      6 C6         -0.8710    0.1570    0.9240 ca        1 EUG     -0.116000
      7 C7         -0.7310    1.1460   -1.3620 ce        1 EUG     -0.124200
      8 C8         -1.8220    0.6840   -1.9850 c2        1 EUG     -0.150200
      9 C9          4.0880    0.3000    0.1080 c3        1 EUG      0.121700
     10 O3          3.2830   -0.0770    1.2190 os        1 EUG     -0.349900
     11 O4          1.6910   -0.9220    3.2870 oh        1 EUG     -0.495100
     12 C10        -2.6180   -0.4960   -1.6040 c3        1 EUG     -0.070900
     13 H2          1.8880    0.8920   -0.9530 ha        1 EUG      0.139000
     14 H5         -0.8550   -0.6890    2.9280 ha        1 EUG      0.152000
     15 H6         -1.9690    0.2180    0.8800 ha        1 EUG      0.140000
     16 H7         -0.2090    2.0300   -1.7720 ha        1 EUG      0.123000
     17 H81        -2.1860    1.2130   -2.8840 ha        1 EUG      0.118000
     18 H91         3.9520    1.3850   -0.1240 h1        1 EUG      0.045367
     19 H92         3.8460   -0.3250   -0.7850 h1        1 EUG      0.045367
     20 H93         5.1300    0.0990    0.4630 h1        1 EUG      0.045367
     21 HO4         2.6550   -0.9150    3.1850 ho        1 EUG      0.436000
     22 H10        -3.5290   -0.1770   -1.0360 hc        1 EUG      0.045367
     23 H11        -2.0340   -1.2010   -0.9610 hc        1 EUG      0.045367
     24 H12        -2.9540   -1.0480   -2.5170 hc        1 EUG      0.045367
@<TRIPOS>BOND
     1    1    2 ar  
     2    1    6 ar  
     3    1    7 1   
     4    2    3 ar  
     5    2   13 1   
     6    3    4 ar  
     7    3   10 1   
     8    4    5 ar  
     9    4   11 1   
    10    5    6 ar  
    11    5   14 1   
    12    6   15 1   
    13    7    8 2   
    14    7   16 1   
    15    8   12 1   
    16    8   17 1   
    17    9   10 1   
    18    9   18 1   
    19    9   19 1   
    20    9   20 1   
    21   11   21 1   
    22   12   22 1   
    23   12   23 1   
    24   12   24 1   
@<TRIPOS>SUBSTRUCTURE
     1 EUG         1 TEMP              0 ****  ****    0 ROOT
