@<TRIPOS>MOLECULE
EUG
   24    24     1     0     0
SMALL
bcc


@<TRIPOS>ATOM
      1 C1         -0.0860    0.6140   -0.1800 ca        1 EUG     -0.056800
      2 C2          1.3120    0.5050   -0.0770 ca        1 EUG     -0.154000
      3 C3          1.8830   -0.0260    1.0770 ca        1 EUG      0.042100
      4 C4          1.0630   -0.4460    2.1510 ca        1 EUG      0.112100
      5 C5         -0.3270   -0.3240    2.0490 ca        1 EUG     -0.139000
      6 C6         -0.8900    0.2020    0.8880 ca        1 EUG     -0.116000
      7 C7         -0.6540    1.1880   -1.3900 ce        1 EUG     -0.124200
      8 C8         -1.7440    0.7680   -2.0430 c2        1 EUG     -0.150200
      9 C9          4.0910    0.1740    0.2070 c3        1 EUG      0.121700
     10 O3          3.2430   -0.1860    1.2910 os        1 EUG     -0.349900
     11 O4          1.5680   -0.9740    3.3150 oh        1 EUG     -0.495100
     12 C10        -2.5930   -0.3820   -1.6850 c3        1 EUG     -0.070900
     13 H2          1.9420    0.8380   -0.9140 ha        1 EUG      0.139000
     14 H5         -0.9570   -0.6470    2.8900 ha        1 EUG      0.152000
     15 H6         -1.9840    0.3030    0.8160 ha        1 EUG      0.140000
     16 H7         -0.0890    2.0540   -1.7850 ha        1 EUG      0.123000
     17 H81        -2.0660    1.3120   -2.9500 ha        1 EUG      0.118000
     18 H91         3.9960    1.2640   -0.0190 h1        1 EUG      0.045367
     19 H92         3.8550   -0.4360   -0.6980 h1        1 EUG      0.045367
     20 H93         5.1160   -0.0630    0.5890 h1        1 EUG      0.045367
     21 HO4         2.5340   -1.0010    3.2390 ho        1 EUG      0.436000
     22 H10        -3.5070   -0.0300   -1.1410 hc        1 EUG      0.045367
     23 H11        -2.0530   -1.1090   -1.0290 hc        1 EUG      0.045367
     24 H12        -2.9250   -0.9200   -2.6080 hc        1 EUG      0.045367
@<TRIPOS>BOND
     1    1    2 ar  
     2    1    6 ar  
     3    1    7 1   
     4    2    3 ar  
     5    2   13 1   
     6    3    4 ar  
     7    3   10 1   
     8    4    5 ar  
     9    4   11 1   
    10    5    6 ar  
    11    5   14 1   
    12    6   15 1   
    13    7    8 2   
    14    7   16 1   
    15    8   12 1   
    16    8   17 1   
    17    9   10 1   
    18    9   18 1   
    19    9   19 1   
    20    9   20 1   
    21   11   21 1   
    22   12   22 1   
    23   12   23 1   
    24   12   24 1   
@<TRIPOS>SUBSTRUCTURE
     1 EUG         1 TEMP              0 ****  ****    0 ROOT
