@<TRIPOS>MOLECULE
EUI
   51    54     1     0     0
SMALL
bcc


@<TRIPOS>ATOM
      1 O20         0.3440    1.5180   -0.0700 o         1 EUI     -0.586100
      2 C18         1.4460    0.9330   -0.0600 c         1 EUI      0.658700
      3 C15         2.0980    0.5150    1.2190 ca        1 EUI     -0.169600
      4 C14         3.4250    0.8790    1.4520 ca        1 EUI     -0.070000
      5 C13         4.0690    0.5330    2.6320 ca        1 EUI     -0.168000
      6 C12         3.3700   -0.1890    3.6110 ca        1 EUI      0.125900
      7 F17         3.9810   -0.5370    4.7660 f         1 EUI     -0.117900
      8 C11         2.0120   -0.5480    3.4080 ca        1 EUI      0.071900
      9 F16         1.3680   -1.2150    4.3920 f         1 EUI     -0.109900
     10 C10         1.3520   -0.1960    2.1930 ca        1 EUI      0.170600
     11 N9         -0.0170   -0.4560    2.0200 nh        1 EUI     -0.627000
     12 C5         -0.5320   -1.7520    1.9000 ca        1 EUI      0.152600
     13 C4          0.2260   -2.9140    2.1550 ca        1 EUI     -0.169000
     14 C3         -0.3450   -4.1790    2.0780 ca        1 EUI     -0.071000
     15 C2         -1.6870   -4.3350    1.7340 ca        1 EUI      0.004900
     16 I8         -2.5020   -6.1780    1.6250 i         1 EUI     -0.133900
     17 C6         -1.9070   -1.9300    1.5410 ca        1 EUI      0.069900
     18 F7         -2.6870   -0.8550    1.2640 f         1 EUI     -0.134900
     19 C1         -2.4650   -3.2140    1.4660 ca        1 EUI     -0.097000
     20 N19         2.1560    0.7470   -1.2420 n         1 EUI     -0.433800
     21 C23         1.5010    0.7500   -2.5610 cy        1 EUI      0.050500
     22 C22         2.4060   -0.4550   -2.9920 cy        1 EUI      0.122800
     23 C21         3.0050   -0.4140   -1.5380 cy        1 EUI      0.050500
     24 O24         1.6060   -1.5830   -3.2120 oh        1 EUI     -0.577800
     25 C25         3.4050   -0.1440   -4.1140 c3        1 EUI      0.154500
     26 C30         2.6390    0.0250   -5.4350 c3        1 EUI     -0.074400
     27 C29         3.5890    0.2400   -6.5930 c3        1 EUI     -0.079400
     28 C28         4.6100   -0.8750   -6.6600 c3        1 EUI     -0.079400
     29 C27         5.3290   -1.0330   -5.3220 c3        1 EUI      0.166800
     30 N26         4.4270   -1.1860   -4.1980 n3        1 EUI     -0.827200
     31 H14         3.9740    1.4540    0.6880 ha        1 EUI      0.157000
     32 H13         5.1140    0.8210    2.8140 ha        1 EUI      0.161000
     33 H9         -0.5130    0.2470    1.4980 hn        1 EUI      0.467800
     34 H4          1.2870   -2.8230    2.4370 ha        1 EUI      0.145000
     35 H3          0.2830   -5.0590    2.2920 ha        1 EUI      0.148000
     36 H1         -3.5280   -3.3070    1.1900 ha        1 EUI      0.161000
     37 H231        1.6930    1.6990   -3.1150 h1        1 EUI      0.073950
     38 H232        0.4090    0.5170   -2.5400 h1        1 EUI      0.073950
     39 H211        4.0880   -0.1530   -1.4750 h1        1 EUI      0.073950
     40 H212        2.7860   -1.3290   -0.9380 h1        1 EUI      0.073950
     41 H24         2.1530   -2.2600   -3.6340 ho        1 EUI      0.429000
     42 H25         3.8740    0.8590   -3.8630 h1        1 EUI      0.034700
     43 H301        1.9500    0.9020   -5.3310 hc        1 EUI      0.055700
     44 H302        2.0080   -0.8840   -5.6200 hc        1 EUI      0.055700
     45 H26         4.9510   -1.2090   -3.3420 hn        1 EUI      0.360800
     46 H291        4.1130    1.2240   -6.4730 hc        1 EUI      0.044700
     47 H292        3.0090    0.2820   -7.5510 hc        1 EUI      0.044700
     48 H281        5.3720   -0.6540   -7.4510 hc        1 EUI      0.051200
     49 H282        4.1020   -1.8370   -6.9330 hc        1 EUI      0.051200
     50 H271        6.0180   -0.1460   -5.1880 h1        1 EUI      0.031700
     51 H272        5.9690   -1.9600   -5.3550 h1        1 EUI      0.031700
@<TRIPOS>BOND
     1    1    2 2   
     2    2    3 1   
     3    2   20 1   
     4    3    4 ar  
     5    3   10 ar  
     6    4    5 ar  
     7    4   31 1   
     8    5    6 ar  
     9    5   32 1   
    10    6    7 1   
    11    6    8 ar  
    12    8    9 1   
    13    8   10 ar  
    14   10   11 1   
    15   11   12 1   
    16   11   33 1   
    17   12   13 ar  
    18   12   17 ar  
    19   13   14 ar  
    20   13   34 1   
    21   14   15 ar  
    22   14   35 1   
    23   15   16 1   
    24   15   19 ar  
    25   17   18 1   
    26   17   19 ar  
    27   19   36 1   
    28   20   21 1   
    29   20   23 1   
    30   21   22 1   
    31   21   37 1   
    32   21   38 1   
    33   22   23 1   
    34   22   24 1   
    35   22   25 1   
    36   23   39 1   
    37   23   40 1   
    38   24   41 1   
    39   25   26 1   
    40   25   30 1   
    41   25   42 1   
    42   26   27 1   
    43   26   43 1   
    44   26   44 1   
    45   27   28 1   
    46   27   46 1   
    47   27   47 1   
    48   28   29 1   
    49   28   48 1   
    50   28   49 1   
    51   29   30 1   
    52   29   50 1   
    53   29   51 1   
    54   30   45 1   
@<TRIPOS>SUBSTRUCTURE
     1 EUI         1 TEMP              0 ****  ****    0 ROOT
