@<TRIPOS>MOLECULE
EUI
   52    55     1     0     0
SMALL
bcc


@<TRIPOS>ATOM
      1 O20         0.2330    1.2910   -0.1010 o         1 EUI     -0.641100
      2 C18         1.3750    0.7700   -0.0280 c         1 EUI      0.655700
      3 C15         1.9640    0.4660    1.3180 ca        1 EUI     -0.097600
      4 C14         3.3300    0.6580    1.5360 ca        1 EUI     -0.070000
      5 C13         3.9100    0.4290    2.7800 ca        1 EUI     -0.108000
      6 C12         3.1160    0.0030    3.8550 ca        1 EUI      0.152900
      7 F17         3.6530   -0.2250    5.0670 f         1 EUI     -0.079900
      8 C11         1.7170   -0.1840    3.6660 ca        1 EUI      0.106900
      9 F16         0.9500   -0.5630    4.7100 f         1 EUI     -0.094900
     10 C10         1.1430    0.0510    2.3900 ca        1 EUI     -0.013400
     11 N9         -0.3110   -0.1010    2.2340 n4        1 EUI     -0.505800
     12 C5         -0.7310   -1.4370    1.7970 ca        1 EUI     -0.085400
     13 C4         -0.8060   -1.7390    0.4260 ca        1 EUI     -0.077000
     14 C3         -1.2240   -3.0000    0.0140 ca        1 EUI     -0.091000
     15 C2         -1.5780   -3.9760    0.9500 ca        1 EUI      0.079900
     16 I8         -2.1750   -5.8020    0.3320 i         1 EUI     -0.046900
     17 C6         -1.1050   -2.4210    2.7500 ca        1 EUI      0.157900
     18 F7         -1.0730   -2.1390    4.0710 f         1 EUI     -0.111900
     19 C1         -1.5250   -3.6900    2.3110 ca        1 EUI     -0.114000
     20 N19         2.1180    0.5630   -1.1590 n         1 EUI     -0.419800
     21 C23         1.5400    0.5150   -2.5140 cy        1 EUI      0.051500
     22 C22         2.5410   -0.6390   -2.8720 cy        1 EUI      0.137800
     23 C21         3.1100   -0.4910   -1.4100 cy        1 EUI      0.051500
     24 O24         1.8310   -1.8370   -3.0170 oh        1 EUI     -0.590800
     25 C25         3.5330   -0.3150   -3.9970 c3        1 EUI      0.156500
     26 C30         2.7620   -0.2170   -5.3240 c3        1 EUI     -0.075400
     27 C29         3.7070   -0.0240   -6.4900 c3        1 EUI     -0.081400
     28 C28         4.7470   -1.1220   -6.5170 c3        1 EUI     -0.082400
     29 C27         5.4790   -1.2050   -5.1810 c3        1 EUI      0.163800
     30 N26         4.5940   -1.3160   -4.0360 n3        1 EUI     -0.828200
     31 H14         3.9730    1.0130    0.7100 ha        1 EUI      0.183000
     32 H13         4.9920    0.5860    2.9360 ha        1 EUI      0.192000
     33 H9         -0.6430    0.6020    1.5370 hn        1 EUI      0.491300
     34 H4         -0.5450   -0.9780   -0.3340 ha        1 EUI      0.177000
     35 H3         -1.2720   -3.2170   -1.0680 ha        1 EUI      0.185000
     36 H1         -1.8100   -4.4390    3.0720 ha        1 EUI      0.193000
     37 H231        0.4630    0.2220   -2.5430 h1        1 EUI      0.082950
     38 H232        1.7070    1.4700   -3.0680 h1        1 EUI      0.082950
     39 H211        4.1530   -0.0980   -1.3530 h1        1 EUI      0.082950
     40 H212        2.9950   -1.4060   -0.7820 h1        1 EUI      0.082950
     41 H24         2.3470   -2.4360   -3.5770 ho        1 EUI      0.446000
     42 H25         3.9520    0.7160   -3.7730 h1        1 EUI      0.037700
     43 H301        2.1570   -1.1490   -5.4770 hc        1 EUI      0.053700
     44 H302        2.0510    0.6460   -5.2560 hc        1 EUI      0.053700
     45 H26         5.1300   -1.2660   -3.1890 hn        1 EUI      0.358800
     46 H291        3.1230   -0.0280   -7.4480 hc        1 EUI      0.052700
     47 H292        4.2110    0.9740   -6.4080 hc        1 EUI      0.052700
     48 H281        4.2570   -2.1040   -6.7450 hc        1 EUI      0.059200
     49 H282        5.5000   -0.9210   -7.3230 hc        1 EUI      0.059200
     50 H271        6.1300   -2.1250   -5.1730 h1        1 EUI      0.041200
     51 H272        6.1570   -0.3040   -5.0940 h1        1 EUI      0.041200
     52 H92        -0.7530    0.0940    3.1470 hn        1 EUI      0.491300
@<TRIPOS>BOND
     1    1    2 2   
     2    2    3 1   
     3    2   20 1   
     4    3    4 ar  
     5    3   10 ar  
     6    4    5 ar  
     7    4   31 1   
     8    5    6 ar  
     9    5   32 1   
    10    6    7 1   
    11    6    8 ar  
    12    8    9 1   
    13    8   10 ar  
    14   10   11 1   
    15   11   12 1   
    16   11   33 1   
    17   11   52 1   
    18   12   13 ar  
    19   12   17 ar  
    20   13   14 ar  
    21   13   34 1   
    22   14   15 ar  
    23   14   35 1   
    24   15   16 1   
    25   15   19 ar  
    26   17   18 1   
    27   17   19 ar  
    28   19   36 1   
    29   20   21 1   
    30   20   23 1   
    31   21   22 1   
    32   21   37 1   
    33   21   38 1   
    34   22   23 1   
    35   22   24 1   
    36   22   25 1   
    37   23   39 1   
    38   23   40 1   
    39   24   41 1   
    40   25   26 1   
    41   25   30 1   
    42   25   42 1   
    43   26   27 1   
    44   26   43 1   
    45   26   44 1   
    46   27   28 1   
    47   27   46 1   
    48   27   47 1   
    49   28   29 1   
    50   28   48 1   
    51   28   49 1   
    52   29   30 1   
    53   29   50 1   
    54   29   51 1   
    55   30   45 1   
@<TRIPOS>SUBSTRUCTURE
     1 EUI         1 TEMP              0 ****  ****    0 ROOT
