@<TRIPOS>MOLECULE
EUI
   51    54     1     0     0
SMALL
bcc


@<TRIPOS>ATOM
      1 O20         1.4310    1.5540   -2.6800 o         1 EUI     -0.588100
      2 C18         1.9060    1.6230   -1.5280 c         1 EUI      0.657700
      3 C15         1.4270    2.6360   -0.5410 ca        1 EUI     -0.168600
      4 C14         2.3620    3.4330    0.1200 ca        1 EUI     -0.070000
      5 C13         1.9640    4.4040    1.0300 ca        1 EUI     -0.165000
      6 C12         0.5980    4.5900    1.2850 ca        1 EUI      0.125900
      7 F17         0.1920    5.5270    2.1700 f         1 EUI     -0.116900
      8 C11        -0.3740    3.8080    0.6060 ca        1 EUI      0.075900
      9 F16        -1.6810    4.0420    0.8600 f         1 EUI     -0.108900
     10 C10         0.0360    2.8110   -0.3270 ca        1 EUI      0.165600
     11 N9         -0.9160    2.1000   -1.0780 nh        1 EUI     -0.628000
     12 C5         -1.7620    1.1430   -0.5070 ca        1 EUI      0.149600
     13 C4         -1.9310    0.9930    0.8850 ca        1 EUI     -0.172000
     14 C3         -2.8280    0.0670    1.4060 ca        1 EUI     -0.070000
     15 C2         -3.5810   -0.7490    0.5640 ca        1 EUI      0.002900
     16 I8         -4.8770   -2.0900    1.3350 i         1 EUI     -0.129900
     17 C6         -2.5380    0.2920   -1.3600 ca        1 EUI      0.064900
     18 F7         -2.4080    0.3720   -2.7080 f         1 EUI     -0.134900
     19 C1         -3.4360   -0.6360   -0.8160 ca        1 EUI     -0.097000
     20 N19         2.9710    0.8120   -1.1610 n         1 EUI     -0.444800
     21 C23         3.3280   -0.4240   -1.8730 cy        1 EUI      0.027500
     22 C22         3.6500   -1.1010   -0.4920 cy        1 EUI      0.132800
     23 C21         3.2080    0.2520    0.1740 cy        1 EUI      0.027500
     24 O24         2.8380   -2.1970   -0.1800 oh        1 EUI     -0.549800
     25 C25         5.1260   -1.4800   -0.3030 c3        1 EUI      0.204500
     26 C30         5.4400   -2.7290   -1.1420 c3        1 EUI     -0.073400
     27 C29         6.8810   -3.1510   -0.9560 c3        1 EUI     -0.078400
     28 C28         7.1960   -3.3480    0.5110 c3        1 EUI     -0.078400
     29 C27         6.8250   -2.1060    1.3200 c3        1 EUI      0.168800
     30 N26         5.4590   -1.6710    1.1050 n3        1 EUI     -0.809200
     31 H14         3.4380    3.2960   -0.0840 ha        1 EUI      0.158000
     32 H13         2.7030    5.0310    1.5500 ha        1 EUI      0.163000
     33 H9         -0.6400    1.9120   -2.0280 hn        1 EUI      0.466800
     34 H4         -1.3600    1.6310    1.5770 ha        1 EUI      0.146000
     35 H3         -2.9340   -0.0110    2.5000 ha        1 EUI      0.150000
     36 H1         -4.0190   -1.2670   -1.5070 ha        1 EUI      0.162000
     37 H231        2.4870   -0.8930   -2.4400 h1        1 EUI      0.072700
     38 H232        4.2070   -0.2760   -2.5430 h1        1 EUI      0.072700
     39 H211        4.0170    0.8030    0.7100 h1        1 EUI      0.072700
     40 H212        2.3050    0.1700    0.8260 h1        1 EUI      0.072700
     41 H24         1.9200   -1.9250   -0.3190 ho        1 EUI      0.404000
     42 H25         5.7220   -0.6160   -0.7400 h1        1 EUI      0.021700
     43 H301        4.7520   -3.5610   -0.8370 hc        1 EUI      0.058700
     44 H302        5.2400   -2.4910   -2.2170 hc        1 EUI      0.058700
     45 H26         5.2800   -0.8270    1.6150 hn        1 EUI      0.357800
     46 H291        7.0680   -4.1040   -1.5160 hc        1 EUI      0.041200
     47 H292        7.5630   -2.3700   -1.3860 hc        1 EUI      0.041200
     48 H281        6.6300   -4.2340    0.9020 hc        1 EUI      0.050700
     49 H282        8.2890   -3.5500    0.6490 hc        1 EUI      0.050700
     50 H271        6.9250   -2.3380    2.4180 h1        1 EUI      0.028200
     51 H272        7.5700   -1.2910    1.0730 h1        1 EUI      0.028200
@<TRIPOS>BOND
     1    1    2 2   
     2    2    3 1   
     3    2   20 1   
     4    3    4 ar  
     5    3   10 ar  
     6    4    5 ar  
     7    4   31 1   
     8    5    6 ar  
     9    5   32 1   
    10    6    7 1   
    11    6    8 ar  
    12    8    9 1   
    13    8   10 ar  
    14   10   11 1   
    15   11   12 1   
    16   11   33 1   
    17   12   13 ar  
    18   12   17 ar  
    19   13   14 ar  
    20   13   34 1   
    21   14   15 ar  
    22   14   35 1   
    23   15   16 1   
    24   15   19 ar  
    25   17   18 1   
    26   17   19 ar  
    27   19   36 1   
    28   20   21 1   
    29   20   23 1   
    30   21   22 1   
    31   21   37 1   
    32   21   38 1   
    33   22   23 1   
    34   22   24 1   
    35   22   25 1   
    36   23   39 1   
    37   23   40 1   
    38   24   41 1   
    39   25   26 1   
    40   25   30 1   
    41   25   42 1   
    42   26   27 1   
    43   26   43 1   
    44   26   44 1   
    45   27   28 1   
    46   27   46 1   
    47   27   47 1   
    48   28   29 1   
    49   28   48 1   
    50   28   49 1   
    51   29   30 1   
    52   29   50 1   
    53   29   51 1   
    54   30   45 1   
@<TRIPOS>SUBSTRUCTURE
     1 EUI         1 TEMP              0 ****  ****    0 ROOT
