@<TRIPOS>MOLECULE
EUI
   51    54     1     0     0
SMALL
bcc


@<TRIPOS>ATOM
      1 O20         0.3340    1.5120   -0.0720 o         1 EUI     -0.586100
      2 C18         1.4390    0.9340   -0.0620 c         1 EUI      0.658700
      3 C15         2.0930    0.5210    1.2170 ca        1 EUI     -0.169600
      4 C14         3.4180    0.8930    1.4480 ca        1 EUI     -0.070000
      5 C13         4.0640    0.5530    2.6290 ca        1 EUI     -0.168000
      6 C12         3.3710   -0.1710    3.6100 ca        1 EUI      0.124900
      7 F17         3.9840   -0.5130    4.7650 f         1 EUI     -0.117900
      8 C11         2.0140   -0.5380    3.4080 ca        1 EUI      0.071900
      9 F16         1.3750   -1.2070    4.3940 f         1 EUI     -0.109900
     10 C10         1.3520   -0.1910    2.1930 ca        1 EUI      0.170600
     11 N9         -0.0160   -0.4600    2.0210 nu        1 EUI     -0.627000
     12 C5         -0.5230   -1.7600    1.9030 ca        1 EUI      0.152600
     13 C4          0.2420   -2.9160    2.1590 ca        1 EUI     -0.169000
     14 C3         -0.3220   -4.1840    2.0830 ca        1 EUI     -0.071000
     15 C2         -1.6630   -4.3490    1.7400 ca        1 EUI      0.004900
     16 I8         -2.4670   -6.1970    1.6320 i         1 EUI     -0.133900
     17 C6         -1.8970   -1.9450    1.5440 ca        1 EUI      0.069900
     18 F7         -2.6840   -0.8760    1.2650 f         1 EUI     -0.134900
     19 C1         -2.4480   -3.2330    1.4700 ca        1 EUI     -0.097000
     20 N19         2.1480    0.7490   -1.2440 n         1 EUI     -0.433800
     21 C23         1.4920    0.7460   -2.5630 cy        1 EUI      0.050500
     22 C22         2.4020   -0.4560   -2.9910 cy        1 EUI      0.122800
     23 C21         3.0020   -0.4090   -1.5390 cy        1 EUI      0.050500
     24 O24         1.6070   -1.5880   -3.2090 oh        1 EUI     -0.577800
     25 C25         3.3980   -0.1440   -4.1150 c3        1 EUI      0.154500
     26 C30         2.6300    0.0190   -5.4360 c3        1 EUI     -0.074400
     27 C29         3.5780    0.2350   -6.5950 c3        1 EUI     -0.079400
     28 C28         4.6040   -0.8750   -6.6620 c3        1 EUI     -0.079400
     29 C27         5.3250   -1.0270   -5.3240 c3        1 EUI      0.166800
     30 N26         4.4240   -1.1810   -4.1980 n7        1 EUI     -0.827200
     31 H14         3.9640    1.4700    0.6830 ha        1 EUI      0.157000
     32 H13         5.1090    0.8470    2.8100 ha        1 EUI      0.161000
     33 H9         -0.5160    0.2390    1.4990 hn        1 EUI      0.467800
     34 H4          1.3020   -2.8190    2.4410 ha        1 EUI      0.145000
     35 H3          0.3110   -5.0600    2.2990 ha        1 EUI      0.148000
     36 H1         -3.5100   -3.3320    1.1940 ha        1 EUI      0.161000
     37 H231        0.4010    0.5080   -2.5400 h1        1 EUI      0.074200
     38 H232        1.6790    1.6950   -3.1190 h1        1 EUI      0.074200
     39 H211        2.7880   -1.3240   -0.9360 h1        1 EUI      0.074200
     40 H212        4.0840   -0.1430   -1.4780 h1        1 EUI      0.074200
     41 H24         2.1570   -2.2640   -3.6290 ho        1 EUI      0.429000
     42 H25         3.8640    0.8620   -3.8670 h1        1 EUI      0.034700
     43 H301        1.9370    0.8940   -5.3340 hc        1 EUI      0.055700
     44 H302        2.0030   -0.8930   -5.6180 hc        1 EUI      0.055700
     45 H26         4.9490   -1.2000   -3.3430 hn        1 EUI      0.360800
     46 H291        2.9960    0.2740   -7.5530 hc        1 EUI      0.044700
     47 H292        4.0980    1.2220   -6.4780 hc        1 EUI      0.044700
     48 H281        5.3640   -0.6530   -7.4530 hc        1 EUI      0.051200
     49 H282        4.1000   -1.8390   -6.9320 hc        1 EUI      0.051200
     50 H271        6.0100   -0.1370   -5.1930 h1        1 EUI      0.031700
     51 H272        5.9690   -1.9510   -5.3550 h1        1 EUI      0.031700
@<TRIPOS>BOND
     1    1    2 2   
     2    2    3 1   
     3    2   20 1   
     4    3    4 ar  
     5    3   10 ar  
     6    4    5 ar  
     7    4   31 1   
     8    5    6 ar  
     9    5   32 1   
    10    6    7 1   
    11    6    8 ar  
    12    8    9 1   
    13    8   10 ar  
    14   10   11 1   
    15   11   12 1   
    16   11   33 1   
    17   12   13 ar  
    18   12   17 ar  
    19   13   14 ar  
    20   13   34 1   
    21   14   15 ar  
    22   14   35 1   
    23   15   16 1   
    24   15   19 ar  
    25   17   18 1   
    26   17   19 ar  
    27   19   36 1   
    28   20   21 1   
    29   20   23 1   
    30   21   22 1   
    31   21   37 1   
    32   21   38 1   
    33   22   23 1   
    34   22   24 1   
    35   22   25 1   
    36   23   39 1   
    37   23   40 1   
    38   24   41 1   
    39   25   26 1   
    40   25   30 1   
    41   25   42 1   
    42   26   27 1   
    43   26   43 1   
    44   26   44 1   
    45   27   28 1   
    46   27   46 1   
    47   27   47 1   
    48   28   29 1   
    49   28   48 1   
    50   28   49 1   
    51   29   30 1   
    52   29   50 1   
    53   29   51 1   
    54   30   45 1   
@<TRIPOS>SUBSTRUCTURE
     1 EUI         1 TEMP              0 ****  ****    0 ROOT
