@<TRIPOS>MOLECULE
EUR
   42    44     1     0     0
SMALL
bcc


@<TRIPOS>ATOM
      1 O01        -2.7850    3.9670   -0.6400 oh        1 EUR     -0.596800
      2 C02        -4.0670    3.6550   -0.1380 c3        1 EUR      0.099100
      3 C03        -4.3870    2.2000   -0.3310 cc        1 EUR      0.381800
      4 N04        -5.6170    1.6810   -0.5970 nd        1 EUR     -0.652000
      5 C05        -5.4320    0.2990   -0.6750 cd        1 EUR      0.444300
      6 CL1        -6.6780   -0.7730   -0.9760 cl        1 EUR     -0.080000
      7 C07        -4.0690   -0.0250   -0.4500 cc        1 EUR     -0.274200
      8 N08        -3.4230    1.1920   -0.2160 na        1 EUR     -0.284900
      9 C09        -3.4120   -1.3480   -0.4630 c         1 EUR      0.711700
     10 O10        -3.7330   -2.2320   -1.2780 o         1 EUR     -0.575100
     11 N11        -2.4330   -1.5660    0.4910 n         1 EUR     -0.578900
     12 C12        -1.7010   -2.7980    0.5680 c3        1 EUR      0.140300
     13 C13        -0.2650   -2.6940    0.1300 ca        1 EUR     -0.136300
     14 C14         0.2180   -3.5110   -0.8930 ca        1 EUR     -0.079000
     15 C15         1.5550   -3.4700   -1.2780 ca        1 EUR     -0.131000
     16 C16         2.4460   -2.5950   -0.6460 ca        1 EUR      0.031400
     17 CL2         4.0690   -2.5750   -1.1290 cl        1 EUR     -0.048400
     18 C18         1.9790   -1.7530    0.3750 ca        1 EUR      0.043100
     19 O19         2.8380   -0.9700    1.1400 os        1 EUR     -0.225200
     20 C20         3.2540    0.2320    0.5720 ca        1 EUR      0.123100
     21 C21         2.7020    0.7810   -0.5880 ca        1 EUR     -0.164000
     22 C22         3.1830    2.0160   -1.0370 ca        1 EUR      0.042400
     23 CL3         2.5260    2.6990   -2.4460 cl        1 EUR     -0.073400
     24 C24         4.1900    2.6930   -0.3470 ca        1 EUR     -0.116000
     25 C25         4.7280    2.1210    0.8160 ca        1 EUR      0.023000
     26 C28         4.2700    0.8870    1.2870 ca        1 EUR     -0.109000
     27 C26         5.7550    2.8050    1.5230 cg        1 EUR      0.228800
     28 N27         6.5940    3.3660    2.1010 n1        1 EUR     -0.344800
     29 C29         0.6190   -1.7990    0.7660 ca        1 EUR      0.138900
     30 F30         0.1820   -0.9890    1.7580 f         1 EUR     -0.125900
     31 H01        -2.8440    3.9820   -1.6030 ho        1 EUR      0.412000
     32 H021       -4.0110    3.8830    0.9640 h1        1 EUR      0.082700
     33 H022       -4.8610    4.2860   -0.6180 h1        1 EUR      0.082700
     34 H08        -2.4510    1.3350   -0.1050 hn        1 EUR      0.318700
     35 H11        -2.2030   -0.8610    1.1490 hn        1 EUR      0.319500
     36 H121       -1.7040   -3.1460    1.6440 h1        1 EUR      0.079700
     37 H122       -2.2290   -3.5760   -0.0590 h1        1 EUR      0.079700
     38 H14        -0.4730   -4.2020   -1.4060 ha        1 EUR      0.159000
     39 H15         1.9150   -4.1300   -2.0840 ha        1 EUR      0.162000
     40 H21         1.9110    0.2510   -1.1390 ha        1 EUR      0.162000
     41 H28         4.6840    0.4280    2.1970 ha        1 EUR      0.170000
     42 H24         4.5620    3.6640   -0.7080 ha        1 EUR      0.164000
@<TRIPOS>BOND
     1    1    2 1   
     2    1   31 1   
     3    2    3 1   
     4    2   32 1   
     5    2   33 1   
     6    3    4 2   
     7    3    8 1   
     8    4    5 1   
     9    5    6 1   
    10    5    7 2   
    11    7    8 1   
    12    7    9 1   
    13    8   34 1   
    14    9   10 2   
    15    9   11 1   
    16   11   12 1   
    17   11   35 1   
    18   12   13 1   
    19   12   36 1   
    20   12   37 1   
    21   13   14 ar  
    22   13   29 ar  
    23   14   15 ar  
    24   14   38 1   
    25   15   16 ar  
    26   15   39 1   
    27   16   17 1   
    28   16   18 ar  
    29   18   19 1   
    30   18   29 ar  
    31   19   20 1   
    32   20   21 ar  
    33   20   26 ar  
    34   21   22 ar  
    35   21   40 1   
    36   22   23 1   
    37   22   24 ar  
    38   24   25 ar  
    39   24   42 1   
    40   25   26 ar  
    41   25   27 1   
    42   26   41 1   
    43   27   28 3   
    44   29   30 1   
@<TRIPOS>SUBSTRUCTURE
     1 EUR         1 TEMP              0 ****  ****    0 ROOT
