@<TRIPOS>MOLECULE
EUR
   43    48     1     0     0
SMALL
bcc


@<TRIPOS>ATOM
      1 O01         0.0000    0.0000    0.0000 oh        1 EUR     -0.370000
      2 C02         1.4290    0.0000    0.0000 c3        1 EUR      0.122000
      3 C03         1.9310    0.0000    1.4220 c2        1 EUR     -0.122000
      4 N04         3.1890    0.0010    1.7810 n2        1 EUR     -0.068000
      5 C05         3.2770    0.0000    3.1120 c2        1 EUR     -0.060000
      6 Cl1         4.7430    0.0020    4.0420 cl        1 EUR      0.208000
      7 C07         2.0030   -0.0000    3.6140 c2        1 EUR     -0.444000
      8 N08         1.1560    0.0060    2.5200 na        1 EUR      0.426000
      9 C09         1.6150   -0.0000    5.0280 c2        1 EUR      0.313000
     10 O10         2.4700   -0.0000    5.8940 o         1 EUR     -0.290000
     11 N11         0.3100   -0.0020    5.3680 ny        1 EUR     -0.023000
     12 C12        -0.0770   -0.0020    6.7810 DU        1 EUR     -0.465000
     13 C13        -1.5810   -0.0040    6.8890 c3        1 EUR     -0.095000
     14 C14        -2.2560    1.1750    7.1460 c2        1 EUR     -0.088000
     15 C15        -3.6340    1.1780    7.2470 c2        1 EUR     -0.088000
     16 C16        -4.3430    0.0010    7.0890 c2        1 EUR     -0.107000
     17 Cl2        -6.0750    0.0060    7.2150 cl        1 EUR      0.203000
     18 C18        -3.6700   -1.1840    6.8310 c2        1 EUR      0.088000
     19 O19        -4.3640   -2.3430    6.6760 os        1 EUR     -0.105000
     20 C20        -4.7740   -2.6780    5.4250 ca        1 EUR      0.075000
     21 C21        -4.4830   -1.8450    4.3520 ca        1 EUR     -0.215000
     22 C22        -4.8990   -2.1810    3.0760 ca        1 EUR     -0.066000
     23 Cl3        -4.5290   -1.1340    1.7420 cl        1 EUR      0.088000
     24 C24        -5.6070   -3.3470    2.8610 ca        1 EUR     -0.096000
     25 C25        -5.9050   -4.1900    3.9340 ca        1 EUR      0.120000
     26 C28        -5.4800   -3.8520    5.2190 ca        1 EUR     -0.094000
     27 C26        -6.6390   -5.3990    3.7140 c1        1 EUR     -0.138000
     28 N27        -7.2340   -6.3490    3.5280 n1        1 EUR      0.012000
     29 C29        -2.2840   -1.1830    6.7250 c2        1 EUR      0.067000
     30 F30        -1.6250   -2.3340    6.4680 f         1 EUR     -0.044000
     31 H01        -0.1250    0.0870   -0.9310 ho        1 EUR      0.219000
     32 H021        1.4290    0.8720   -0.6420 h1        1 EUR      0.063000
     33 H022        1.5240   -0.6690   -0.8470 h1        1 EUR      0.063000
     34 H08         0.1600   -0.0030    2.6200 hn        1 EUR      0.091000
     35 H11         0.0480    0.6220    6.1050 DU        1 EUR      0.282500
     36 H121       -0.7440   -0.8250    7.0120 DU        1 EUR      0.294000
     37 H122        0.8580    0.2320    7.2740 hx        1 EUR      0.238000
     38 H14        -2.1380    2.1620    7.5760 ha        1 EUR      0.176000
     39 H15        -4.1680    2.1170    7.3240 ha        1 EUR      0.148000
     40 H21        -4.2850   -0.7920    4.5060 ha        1 EUR      0.120000
     41 H28        -5.5920   -4.3820    6.1580 ha        1 EUR      0.139000
     42 H24        -5.9670   -3.7400    1.9180 ha        1 EUR      0.141000
     43 H112        0.1550    0.8150    5.9250 DU        1 EUR      0.282500
@<TRIPOS>BOND
     1    1    2 1   
     2    1   31 1   
     3    2    3 1   
     4    2   32 1   
     5    2   33 1   
     6    3    4 1   
     7    3    8 1   
     8    4    5 1   
     9    5    6 1   
    10    5    7 1   
    11    7    8 1   
    12    7    9 1   
    13    8   34 1   
    14    9   10 1   
    15    9   11 1   
    16   11   12 1   
    17   11   35 1   
    18   11   43 1   
    19   12   13 1   
    20   12   35 1   
    21   12   36 1   
    22   12   37 1   
    23   12   43 1   
    24   13   14 1   
    25   13   29 1   
    26   13   36 1   
    27   14   15 1   
    28   14   38 1   
    29   15   16 1   
    30   15   39 1   
    31   16   17 1   
    32   16   18 1   
    33   18   19 1   
    34   18   29 1   
    35   19   20 1   
    36   20   21 1   
    37   20   26 1   
    38   21   22 1   
    39   21   40 1   
    40   22   23 1   
    41   22   24 1   
    42   24   25 1   
    43   24   42 1   
    44   25   26 1   
    45   25   27 1   
    46   26   41 1   
    47   27   28 1   
    48   29   30 1   
@<TRIPOS>SUBSTRUCTURE
     1 EUR         1 TEMP              0 ****  ****    0 ROOT
