@<TRIPOS>MOLECULE
EUR
   42    37     1     0     0
SMALL
bcc


@<TRIPOS>ATOM
      1 O01        -5.0470    3.5420   -6.5440 oh        1 EUR     -0.321000
      2 C02        -3.8490    2.8270   -6.7610 c3        1 EUR      0.044000
      3 C03        -3.2270    2.4630   -5.4250 c2        1 EUR     -0.064000
      4 N04        -3.7400    2.7490   -4.2020 n2        1 EUR     -0.131500
      5 C05        -2.9050    2.2600   -3.2780 c1        1 EUR     -0.116500
      6 CL1        -3.1640    2.2730   -1.5590 cl        1 EUR      0.034500
      7 C07        -1.8560    1.6630   -3.9290 c1        1 EUR     -0.116500
      8 N08        -2.0610    1.7910   -5.2450 n2        1 EUR     -0.131500
      9 C09        -0.6820    0.9270   -3.2660 c1        1 EUR      0.379000
     10 O10         0.1880    0.4380   -3.9500 o         1 EUR     -0.390000
     11 N11        -0.6320    0.7920   -1.8280 n3        1 EUR     -0.356000
     12 C12        -0.1110   -0.4200   -1.2340 c3        1 EUR      0.014000
     13 C13         0.7160   -0.0670    0.0070 c2        1 EUR     -0.147000
     14 C14         2.0050    0.4270   -0.1400 c2        1 EUR     -0.078000
     15 C15         2.8070    0.6160    0.9770 c1        1 EUR     -0.137000
     16 C16         2.3210    0.3110    2.2420 c1        1 EUR     -0.042000
     17 CL2         3.2800    0.6670    3.6500 cl        1 EUR      0.027000
     18 C18         1.0360   -0.1820    2.3890 c1        1 EUR     -0.009000
     19 O19         0.5130   -0.4230    3.6880 o         1 EUR     -0.136000
     20 C20         1.2010   -1.5120    4.2820 c2        1 EUR      0.078000
     21 C21         1.0630   -2.7860    3.7560 c2        1 EUR     -0.160000
     22 C22         1.6450   -3.8690    4.4000 c1        1 EUR     -0.037000
     23 CL3         1.4590   -5.4740    3.7460 cl        1 EUR      0.034500
     24 C24         2.3650   -3.6760    5.5680 c2        1 EUR     -0.117000
     25 C25         2.5030   -2.4020    6.0950 c1        1 EUR      0.025000
     26 C28         1.9220   -1.3190    5.4530 c1        1 EUR     -0.109000
     27 C26         3.3190   -2.1870    7.3590 c1        1 EUR     -0.100000
     28 N27         3.9330   -2.0240    8.3090 n1        1 EUR     -0.022000
     29 C29         0.2310   -0.3710    1.2700 c2        1 EUR      0.114000
     30 F30        -0.9990   -0.8720    1.4100 f         1 EUR     -0.084000
     31 H01        -5.5270    3.5490   -7.2910 ho        1 EUR      0.210000
     32 H021       -4.0420    2.0120   -7.2630 h1        1 EUR      0.122500
     33 H022       -3.2270    3.3830   -7.2690 h1        1 EUR      0.122500
     34 H08        -1.5120    1.4810   -5.9080 DU        1 EUR      0.287000
     35 H11        -0.8940    1.4850   -1.2960 hn        1 EUR      0.241000
     36 H121       -0.8550   -1.0040   -0.9750 h1        1 EUR      0.120500
     37 H122        0.4590   -0.8850   -1.8850 h1        1 EUR      0.120500
     38 H14         2.3480    0.6420   -1.0290 ha        1 EUR      0.175000
     39 H15         3.7130    0.9640    0.8740 ha        1 EUR      0.161000
     40 H21         0.5080   -2.9300    2.9570 ha        1 EUR      0.163000
     41 H28         2.0200   -0.4240    5.8230 ha        1 EUR      0.169000
     42 H24         2.7730   -4.4390    6.0200 ha        1 EUR      0.163000
@<TRIPOS>BOND
     1    1    2 1   
     2    1   31 1   
     3    2    3 1   
     4    2   32 1   
     5    2   33 1   
     6    3    4 1   
     7    3    8 1   
     8    4    5 1   
     9    5    7 1   
    10    7    8 1   
    11    9   10 1   
    12    9   11 1   
    13   11   12 1   
    14   11   35 1   
    15   12   13 1   
    16   12   36 1   
    17   12   37 1   
    18   13   14 1   
    19   13   29 1   
    20   14   15 1   
    21   14   38 1   
    22   15   39 1   
    23   16   17 1   
    24   16   18 1   
    25   18   29 1   
    26   19   20 1   
    27   20   21 1   
    28   20   26 1   
    29   21   22 1   
    30   21   40 1   
    31   22   24 1   
    32   24   25 1   
    33   24   42 1   
    34   25   27 1   
    35   26   41 1   
    36   27   28 1   
    37   29   30 1   
@<TRIPOS>SUBSTRUCTURE
     1 EUR         1 TEMP              0 ****  ****    0 ROOT
