@<TRIPOS>MOLECULE
EUR
   43    45     1     0     0
SMALL
bcc


@<TRIPOS>ATOM
      1 O01         0.9840   -0.5910   -0.0170 oh        1 EUR     -0.626800
      2 C02         2.3320   -0.1540    0.0630 c3        1 EUR      0.087100
      3 C03         2.6290    0.1870    1.4980 cc        1 EUR      0.529800
      4 N04         3.8510    0.6330    1.9420 nd        1 EUR     -0.653000
      5 C05         3.7150    0.8280    3.3020 cd        1 EUR      0.552300
      6 CL1         4.9400    1.3690    4.2840 cl        1 EUR     -0.004000
      7 C07         2.3720    0.4980    3.7140 cc        1 EUR     -0.393200
      8 N08         1.7100    0.0980    2.5330 na        1 EUR     -0.288900
      9 C09         1.8440    0.5720    5.0400 c         1 EUR      0.603700
     10 O10         2.4170    0.8930    6.0740 o         1 EUR     -0.432100
     11 N11         0.3670    0.2170    5.1880 n4        1 EUR     -0.684800
     12 C12        -0.0840    0.1950    6.6170 c3        1 EUR      0.177100
     13 C13        -1.5480   -0.0570    6.7440 ca        1 EUR     -0.204300
     14 C14        -2.3470    0.8330    7.4680 ca        1 EUR     -0.067000
     15 C15        -3.6910    0.5560    7.6980 ca        1 EUR     -0.115000
     16 C16        -4.2740   -0.6200    7.2080 ca        1 EUR      0.045400
     17 CL2        -5.8950   -0.9340    7.5430 cl        1 EUR      0.003600
     18 C18        -3.4940   -1.5160    6.4540 ca        1 EUR      0.082100
     19 O19        -3.9330   -2.7620    6.0380 os        1 EUR     -0.223200
     20 C20        -4.9840   -2.7810    5.1140 ca        1 EUR      0.096100
     21 C21        -5.1810   -1.7760    4.1650 ca        1 EUR     -0.162000
     22 C22        -6.2040   -1.9380    3.2240 ca        1 EUR      0.036400
     23 CL3        -6.4650   -0.7280    2.0660 cl        1 EUR     -0.060400
     24 C24        -7.0070   -3.0820    3.2270 ca        1 EUR     -0.097000
     25 C25        -6.7850   -4.0780    4.1890 ca        1 EUR      0.035000
     26 C28        -5.7750   -3.9380    5.1480 ca        1 EUR     -0.094000
     27 C26        -7.5990   -5.2450    4.1940 cg        1 EUR      0.210800
     28 N27        -8.2640   -6.1990    4.1970 n1        1 EUR     -0.309800
     29 C29        -2.1280   -1.2320    6.2200 ca        1 EUR      0.126900
     30 F30        -1.3720   -2.0950    5.5000 f         1 EUR     -0.133900
     31 H01         0.8360   -0.8650   -0.9320 ho        1 EUR      0.447000
     32 H021        2.4840    0.7670   -0.5670 h1        1 EUR      0.091700
     33 H022        3.0360   -0.9670   -0.2690 h1        1 EUR      0.091700
     34 H08         0.7820   -0.2300    2.4330 hn        1 EUR      0.326700
     35 H11        -0.1900    0.9020    4.6690 hn        1 EUR      0.456300
     36 H121        0.4980   -0.6220    7.1390 hx        1 EUR      0.125700
     37 H122        0.2010    1.1820    7.0870 hx        1 EUR      0.125700
     38 H14        -1.9070    1.7560    7.8800 ha        1 EUR      0.162000
     39 H15        -4.3010    1.2640    8.2860 ha        1 EUR      0.182000
     40 H21        -4.5530   -0.8740    4.1640 ha        1 EUR      0.146000
     41 H28        -5.5920   -4.7140    5.9080 ha        1 EUR      0.177000
     42 H24        -7.8100   -3.2030    2.4820 ha        1 EUR      0.175000
     43 H112        0.2000   -0.7130    4.7830 hn        1 EUR      0.456300
@<TRIPOS>BOND
     1    1    2 1   
     2    1   31 1   
     3    2    3 1   
     4    2   32 1   
     5    2   33 1   
     6    3    4 2   
     7    3    8 1   
     8    4    5 1   
     9    5    6 1   
    10    5    7 2   
    11    7    8 1   
    12    7    9 1   
    13    8   34 1   
    14    9   10 2   
    15    9   11 1   
    16   11   12 1   
    17   11   35 1   
    18   11   43 1   
    19   12   13 1   
    20   12   36 1   
    21   12   37 1   
    22   13   14 ar  
    23   13   29 ar  
    24   14   15 ar  
    25   14   38 1   
    26   15   16 ar  
    27   15   39 1   
    28   16   17 1   
    29   16   18 ar  
    30   18   19 1   
    31   18   29 ar  
    32   19   20 1   
    33   20   21 ar  
    34   20   26 ar  
    35   21   22 ar  
    36   21   40 1   
    37   22   23 1   
    38   22   24 ar  
    39   24   25 ar  
    40   24   42 1   
    41   25   26 ar  
    42   25   27 1   
    43   26   41 1   
    44   27   28 3   
    45   29   30 1   
@<TRIPOS>SUBSTRUCTURE
     1 EUR         1 TEMP              0 ****  ****    0 ROOT
