@<TRIPOS>MOLECULE
EUT
   46    45     1     0     0
SMALL
bcc


@<TRIPOS>ATOM
      1 C1         -1.9740    0.2280   -0.2230 c2        1 EUT     -0.225000
      2 C2          4.5360   -0.1310    1.4780 c1        1 EUT     -0.272000
      3 C3         -1.3610    2.6090   -0.1430 c2        1 EUT     -0.129000
      4 C4          4.1620   -0.1520    0.3180 c1        1 EUT      0.030000
      5 C5         -2.3330    1.5190   -0.0670 c2        1 EUT      0.063000
      6 C6          4.9930    0.1570    2.7600 c1        1 EUT      0.207000
      7 C7          3.8210    3.7040   -2.7250 c2        1 EUT     -0.403000
      8 C8          3.2920    3.4780   -1.4560 c2        1 EUT      0.228000
      9 C9          4.2850    2.6130   -3.5390 c2        1 EUT      0.320000
     10 C10         3.7270    1.1530   -1.6270 c2        1 EUT      0.272000
     11 C11         3.7920   -2.6190   -0.9860 c3        1 EUT     -0.227000
     12 C12         4.3480    0.1640   -3.7390 c1        1 EUT     -0.116000
     13 C13         2.3640    4.2740    0.6820 c3        1 EUT     -0.086000
     14 C14         2.4200    5.7460   -1.2900 c3        1 EUT     -0.086000
     15 C15        -0.8610    6.1170   -0.1720 c1        1 EUT     -0.026000
     16 C16        -1.6980    3.9030   -0.0620 c2        1 EUT     -0.144000
     17 C17         3.2740   -1.3240   -1.5960 c3        1 EUT     -0.022000
     18 C18         1.6870   -1.3580   -1.5370 c3        1 EUT      0.376000
     19 N19         3.2840    2.1680   -0.9090 n2        1 EUT     -0.215000
     20 N20         3.8200   -0.1310   -0.9710 nh        1 EUT     -0.118000
     21 N21         2.8080    4.5050   -0.6680 nh        1 EUT     -0.237000
     22 N22         4.1510    1.2500   -3.0090 n         1 EUT     -0.194000
     23 O24        -0.6470    4.8550   -0.1490 os        1 EUT     -0.056000
     24 F25        -3.6280    1.8650    0.1690 f         1 EUT     -0.119000
     25 F26         5.0820   -0.7940    3.6510 f         1 EUT     -0.068000
     26 F27         1.1490   -1.4990   -0.2850 f         1 EUT     -0.167000
     27 F28         1.0790   -0.2380   -2.0440 f         1 EUT     -0.167000
     28 F29         1.1630   -2.3940   -2.2670 f         1 EUT     -0.167000
     29 H1         -2.7020   -0.5890   -0.1660 ha        1 EUT      0.142000
     30 H2         -0.9310   -0.0570   -0.4180 ha        1 EUT      0.142000
     31 H3         -0.3090    2.2990   -0.2770 ha        1 EUT      0.163000
     32 H7          3.9310    4.7050   -3.1600 ha        1 EUT      0.180000
     33 H111        4.9040   -2.6690   -1.0680 hc        1 EUT      0.107667
     34 H112        3.3470   -3.4740   -1.5520 hc        1 EUT      0.107667
     35 H121        3.5010   -2.7070    0.0890 hc        1 EUT      0.107667
     36 H122        4.6890    0.3320   -4.7810 ha        1 EUT      0.107000
     37 H17         3.5580   -1.2860   -2.7110 h1        1 EUT      0.226000
     38 H131        1.3600    3.7680    0.6930 h1        1 EUT      0.097667
     39 H132        3.1050    3.6410    1.2380 h1        1 EUT      0.097667
     40 H151        2.2740    5.2640    1.2040 h1        1 EUT      0.097667
     41 H152       -1.9000    6.5090   -0.1190 ha        1 EUT      0.034000
     42 H141        1.5360    6.1830   -0.7430 h1        1 EUT      0.097667
     43 H142        3.2810    6.4660   -1.2540 h1        1 EUT      0.097667
     44 H161        2.1230    5.5880   -2.3620 h1        1 EUT      0.097667
     45 H162       -2.7090    4.3110    0.0700 h4        1 EUT      0.157000
     46 O23         4.7720    2.7120   -4.6760 o         1 EUT     -0.313000
@<TRIPOS>BOND
     1    1    5 1   
     2    1   29 1   
     3    1   30 1   
     4    2    4 1   
     5    2    6 1   
     6    3    5 1   
     7    3   16 1   
     8    3   31 1   
     9    4   20 1   
    10    5   24 1   
    11    6   25 1   
    12    7    8 1   
    13    7    9 1   
    14    7   32 1   
    15    8   19 1   
    16    8   21 1   
    17    9   22 1   
    18    9   46 1   
    19   10   19 1   
    20   10   20 1   
    21   10   22 1   
    22   11   17 1   
    23   11   33 1   
    24   11   34 1   
    25   11   35 1   
    26   12   22 1   
    27   12   36 1   
    28   13   21 1   
    29   13   38 1   
    30   13   39 1   
    31   13   40 1   
    32   14   21 1   
    33   14   42 1   
    34   14   43 1   
    35   14   44 1   
    36   15   23 1   
    37   15   41 1   
    38   16   23 1   
    39   16   45 1   
    40   17   18 1   
    41   17   20 1   
    42   17   37 1   
    43   18   26 1   
    44   18   27 1   
    45   18   28 1   
@<TRIPOS>SUBSTRUCTURE
     1 EUT         1 TEMP              0 ****  ****    0 ROOT
