@<TRIPOS>MOLECULE
EUT
   46    45     1     0     0
SMALL
bcc


@<TRIPOS>ATOM
      1 C1         -1.6980    0.3530    0.0310 c2        1 EUT     -0.148000
      2 C2          5.1960    0.5190    0.7430 c1        1 EUT     -0.205000
      3 C3         -0.0570    1.1270    1.6860 c1        1 EUT     -0.057000
      4 C4          4.5500   -0.4160   -0.0590 c1        1 EUT      0.087000
      5 C5         -1.4020    0.9840    1.1980 c2        1 EUT     -0.044000
      6 C6          5.8060    1.1860    1.5380 c1        1 EUT      0.055000
      7 C7          3.1080    3.8520   -2.2860 c2        1 EUT     -0.394000
      8 C8          2.6450    3.3530   -1.0740 c2        1 EUT      0.219000
      9 C9          3.8010    3.0070   -3.2290 c2        1 EUT      0.313000
     10 C10         3.4960    1.2000   -1.5840 c2        1 EUT      0.196000
     11 C11         3.7960   -2.6250   -1.4770 c3        1 EUT     -0.211000
     12 C12         4.4340    0.6830   -3.7350 c1        1 EUT     -0.100000
     13 C13         1.3200    3.5760    0.9980 c3        1 EUT     -0.087000
     14 C14         1.6590    5.5040   -0.4840 c3        1 EUT     -0.060000
     15 C15        -1.3260    4.3070   -0.8230 c1        1 EUT     -0.064000
     16 C16         0.4920    5.6320   -1.4670 c3        1 EUT     -0.059000
     17 C17         3.2320   -1.2660   -1.8760 c3        1 EUT      0.013000
     18 C18         1.6540   -1.3260   -1.7180 c3        1 EUT      0.383000
     19 N19         2.8580    1.9870   -0.7440 n2        1 EUT     -0.192000
     20 N20         3.7980   -0.1560   -1.1150 nh        1 EUT     -0.104000
     21 N21         2.0390    4.1580   -0.1140 nh        1 EUT     -0.230000
     22 N22         3.9540    1.5930   -2.8980 n         1 EUT     -0.199000
     23 O24        -0.7560    5.4870   -0.7430 os        1 EUT     -0.183000
     24 F25        -2.3850    1.6190    1.8970 f         1 EUT     -0.107000
     25 F26         6.4780    1.8620    2.4070 f         1 EUT      0.022000
     26 F27         1.1950   -1.5060   -0.4400 f         1 EUT     -0.166000
     27 F28         1.0040   -0.2000   -2.1560 f         1 EUT     -0.166000
     28 F29         1.0930   -2.3450   -2.4430 f         1 EUT     -0.166000
     29 H1         -2.6960    0.3830   -0.4260 ha        1 EUT      0.141000
     30 H2         -0.9190   -0.1900   -0.5260 ha        1 EUT      0.141000
     31 H3          0.6660    0.3970    1.2900 ha        1 EUT      0.066000
     32 H7          2.9870    4.8950   -2.6030 ha        1 EUT      0.171000
     33 H111        4.9050   -2.6330   -1.6060 hc        1 EUT      0.109000
     34 H112        3.3410   -3.4020   -2.1380 hc        1 EUT      0.109000
     35 H121        3.5610   -2.8580   -0.4100 hc        1 EUT      0.109000
     36 H122        4.7760    1.0680   -4.7180 ha        1 EUT      0.097000
     37 H17         3.4360   -1.0840   -2.9810 h1        1 EUT      0.186000
     38 H131        0.2940    3.2350    0.6780 h1        1 EUT      0.104333
     39 H132        1.8730    2.7030    1.4350 h1        1 EUT      0.104333
     40 H151        1.2070    4.3540    1.8000 h1        1 EUT      0.104333
     41 H152       -2.2720    4.3520   -0.2250 ha        1 EUT      0.047000
     42 H141        0.5470    4.8830   -2.2970 h1        1 EUT      0.121000
     43 H142        1.3870    6.0530    0.4650 h1        1 EUT      0.117500
     44 H161        2.5540    6.0230   -0.9340 h1        1 EUT      0.117500
     45 H162        0.4480    6.6780   -1.8710 h1        1 EUT      0.121000
     46 O23         4.2590    3.3810   -4.3200 o         1 EUT     -0.313000
@<TRIPOS>BOND
     1    1    5 1   
     2    1   29 1   
     3    1   30 1   
     4    2    4 1   
     5    2    6 1   
     6    3    5 1   
     7    3   31 1   
     8    4   20 1   
     9    5   24 1   
    10    6   25 1   
    11    7    8 1   
    12    7    9 1   
    13    7   32 1   
    14    8   19 1   
    15    8   21 1   
    16    9   22 1   
    17    9   46 1   
    18   10   19 1   
    19   10   20 1   
    20   10   22 1   
    21   11   17 1   
    22   11   33 1   
    23   11   34 1   
    24   11   35 1   
    25   12   22 1   
    26   12   36 1   
    27   13   21 1   
    28   13   38 1   
    29   13   39 1   
    30   13   40 1   
    31   14   16 1   
    32   14   21 1   
    33   14   43 1   
    34   14   44 1   
    35   15   23 1   
    36   15   41 1   
    37   16   23 1   
    38   16   42 1   
    39   16   45 1   
    40   17   18 1   
    41   17   20 1   
    42   17   37 1   
    43   18   26 1   
    44   18   27 1   
    45   18   28 1   
@<TRIPOS>SUBSTRUCTURE
     1 EUT         1 TEMP              0 ****  ****    0 ROOT
