@<TRIPOS>MOLECULE
EV0
   22    20     1     0     0
SMALL
bcc


@<TRIPOS>ATOM
      1 O11        -3.7250   -0.2930   -1.1690 o         1 EV0     -0.357000
      2 C3         -2.5110   -0.2930   -1.1690 c1        1 EV0      0.344000
      3 C1         -1.7750   -0.2930    0.1050 c1        1 EV0     -0.316000
      4 N5         -1.8010   -0.3760   -2.3950 n3        1 EV0     -0.338000
      5 C6         -0.3400   -0.3800   -2.3940 c2        1 EV0      0.230000
      6 N7          0.3690   -0.3340   -3.6220 n3        1 EV0     -0.334000
      7 N4          0.3920   -0.4620   -1.1320 n1        1 EV0     -0.269000
      8 C2         -0.3070   -0.3750    0.1000 c1        1 EV0      0.080000
      9 C8          0.4500   -0.4640    1.4070 c3        1 EV0     -0.117000
     10 C9          1.1850    0.8350    1.6540 c3        1 EV0     -0.154000
     11 C10         1.9080    0.7620    2.9800 c3        1 EV0     -0.213000
     12 H1         -2.2600   -0.2330    0.9500 ha        1 EV0      0.169000
     13 HN5        -2.2570   -0.4080   -3.1840 hn        1 EV0      0.246000
     14 HN7        -0.0870   -0.2990   -4.4110 hn        1 EV0      0.215500
     15 HN7A        1.2810   -0.3580   -3.6240 hn        1 EV0      0.215500
     16 H8         -0.1780   -0.6260    2.1360 hc        1 EV0      0.099500
     17 H8A         1.0920   -1.1970    1.3610 hc        1 EV0      0.099500
     18 H9          1.8320    0.9840    0.9380 hc        1 EV0      0.088500
     19 H9A         0.5450    1.5720    1.6720 hc        1 EV0      0.088500
     20 H10         2.5010   -0.0130    2.9850 hc        1 EV0      0.073667
     21 H10A        1.2560    0.6770    3.7020 hc        1 EV0      0.073667
     22 H10B        2.4330    1.5740    3.1100 hc        1 EV0      0.073667
@<TRIPOS>BOND
     1    1    2 1   
     2    2    4 1   
     3    3    8 1   
     4    3   12 1   
     5    4    5 1   
     6    4   13 1   
     7    5    6 1   
     8    5    7 1   
     9    6   14 1   
    10    6   15 1   
    11    8    9 1   
    12    9   10 1   
    13    9   16 1   
    14    9   17 1   
    15   10   11 1   
    16   10   18 1   
    17   10   19 1   
    18   11   20 1   
    19   11   21 1   
    20   11   22 1   
@<TRIPOS>SUBSTRUCTURE
     1 EV0         1 TEMP              0 ****  ****    0 ROOT
