@<TRIPOS>MOLECULE
EV0
   23    23     1     0     0
SMALL
bcc


@<TRIPOS>ATOM
      1 O11        -0.1610    0.1840   -0.1060 o         1 EV0     -0.522500
      2 C3          1.0620    0.1030    0.0180 c         1 EV0      0.699700
      3 C1          1.8380    0.0900    1.2600 cc        1 EV0     -0.221200
      4 N5          1.8290    0.0110   -1.1930 n         1 EV0     -0.496400
      5 C6          3.2110   -0.0800   -1.0860 cc        1 EV0      0.531800
      6 N7          4.0070   -0.1730   -2.3590 n4        1 EV0     -0.806600
      7 N4          3.9170   -0.0930    0.0370 nd        1 EV0     -0.577300
      8 C2          3.2040   -0.0060    1.2420 cd        1 EV0      0.187400
      9 C8          4.0060   -0.0160    2.5110 c3        1 EV0     -0.042200
     10 C9          4.6390   -1.3710    2.7690 c3        1 EV0     -0.075400
     11 C10         5.3620   -1.3750    4.0930 c3        1 EV0     -0.100100
     12 H1          1.2530    0.1600    2.1910 ha        1 EV0      0.210000
     13 HN5         1.3470    0.0160   -2.0670 hn        1 EV0      0.353500
     14 HN7         3.8410    0.6630   -2.9310 hn        1 EV0      0.483800
     15 HN7A        3.7290   -1.0140   -2.8780 hn        1 EV0      0.483800
     16 H8          4.8070    0.7710    2.4590 hc        1 EV0      0.082700
     17 H8A         3.3240    0.2520    3.3630 hc        1 EV0      0.082700
     18 H9          3.8450   -2.1640    2.7720 hc        1 EV0      0.048200
     19 H9A         5.3600   -1.6170    1.9470 hc        1 EV0      0.048200
     20 H10         4.6560   -1.1610    4.9320 hc        1 EV0      0.048700
     21 H10A        5.8270   -2.3750    4.2700 hc        1 EV0      0.048700
     22 H10B        6.1690   -0.6030    4.1060 hc        1 EV0      0.048700
     23 H73         5.0130   -0.2330   -2.1320 hn        1 EV0      0.483800
@<TRIPOS>BOND
     1    1    2 2   
     2    2    3 1   
     3    2    4 1   
     4    3    8 2   
     5    3   12 1   
     6    4    5 1   
     7    4   13 1   
     8    5    6 1   
     9    5    7 2   
    10    6   14 1   
    11    6   15 1   
    12    6   23 1   
    13    7    8 1   
    14    8    9 1   
    15    9   10 1   
    16    9   16 1   
    17    9   17 1   
    18   10   11 1   
    19   10   18 1   
    20   10   19 1   
    21   11   20 1   
    22   11   21 1   
    23   11   22 1   
@<TRIPOS>SUBSTRUCTURE
     1 EV0         1 TEMP              0 ****  ****    0 ROOT
