@<TRIPOS>MOLECULE
EV0
   23    23     1     0     0
SMALL
bcc


@<TRIPOS>ATOM
      1 O11        -0.1490    0.2380   -0.1150 o         1 EV0     -0.522500
      2 C3          1.0720    0.1410    0.0130 c         1 EV0      0.699700
      3 C1          1.8440    0.1100    1.2570 cc        1 EV0     -0.221200
      4 N5          1.8410    0.0460   -1.1960 n         1 EV0     -0.496400
      5 C6          3.2220   -0.0630   -1.0840 cc        1 EV0      0.531800
      6 N7          4.0210   -0.1590   -2.3550 n4        1 EV0     -0.806600
      7 N4          3.9240   -0.0920    0.0410 nd        1 EV0     -0.577300
      8 C2          3.2080   -0.0030    1.2430 cd        1 EV0      0.187400
      9 C8          4.0050   -0.0310    2.5150 c3        1 EV0     -0.042200
     10 C9          4.6230   -1.3940    2.7660 c3        1 EV0     -0.075400
     11 C10         5.3400   -1.4150    4.0930 c3        1 EV0     -0.100100
     12 H1          1.2560    0.1830    2.1880 ha        1 EV0      0.210000
     13 HN5         1.3620    0.0620   -2.0710 hn        1 EV0      0.353500
     14 HN7         5.0250   -0.2340   -2.1250 hn        1 EV0      0.483800
     15 HN7A        3.7350   -0.9940   -2.8800 hn        1 EV0      0.483800
     16 H8          4.8140    0.7490    2.4720 hc        1 EV0      0.082700
     17 H8A         3.3230    0.2380    3.3670 hc        1 EV0      0.082700
     18 H9          3.8210   -2.1790    2.7600 hc        1 EV0      0.048200
     19 H9A         5.3450   -1.6420    1.9450 hc        1 EV0      0.048200
     20 H10         6.1550   -0.6510    4.1150 hc        1 EV0      0.048700
     21 H10A        5.7950   -2.4210    4.2640 hc        1 EV0      0.048700
     22 H10B        4.6330   -1.2000    4.9300 hc        1 EV0      0.048700
     23 H73         3.8690    0.6820   -2.9230 hn        1 EV0      0.483800
@<TRIPOS>BOND
     1    1    2 2   
     2    2    3 1   
     3    2    4 1   
     4    3    8 2   
     5    3   12 1   
     6    4    5 1   
     7    4   13 1   
     8    5    6 1   
     9    5    7 2   
    10    6   14 1   
    11    6   15 1   
    12    6   23 1   
    13    7    8 1   
    14    8    9 1   
    15    9   10 1   
    16    9   16 1   
    17    9   17 1   
    18   10   11 1   
    19   10   18 1   
    20   10   19 1   
    21   11   20 1   
    22   11   21 1   
    23   11   22 1   
@<TRIPOS>SUBSTRUCTURE
     1 EV0         1 TEMP              0 ****  ****    0 ROOT
