@<TRIPOS>MOLECULE
EV0
   23    23     1     0     0
SMALL
bcc


@<TRIPOS>ATOM
      1 O11        -0.1600    0.1970   -0.1000 o         1 EV0     -0.522500
      2 C3          1.0620    0.1130    0.0220 c         1 EV0      0.699700
      3 C1          1.8400    0.0950    1.2630 cc        1 EV0     -0.221200
      4 N5          1.8270    0.0190   -1.1900 ns        1 EV0     -0.496400
      5 C6          3.2090   -0.0760   -1.0840 cc        1 EV0      0.531800
      6 N7          4.0030   -0.1700   -2.3590 nz        1 EV0     -0.806600
      7 N4          3.9160   -0.0930    0.0370 nd        1 EV0     -0.577300
      8 C2          3.2050   -0.0050    1.2430 cd        1 EV0      0.187400
      9 C8          4.0090   -0.0200    2.5110 c3        1 EV0     -0.042200
     10 C9          4.6390   -1.3760    2.7660 c3        1 EV0     -0.075400
     11 C10         5.3640   -1.3840    4.0890 c3        1 EV0     -0.100100
     12 H1          1.2560    0.1660    2.1960 ha        1 EV0      0.210000
     13 HN5         1.3430    0.0270   -2.0630 hn        1 EV0      0.353500
     14 HN7         5.0090   -0.2340   -2.1330 hn        1 EV0      0.483800
     15 HN7A        3.7220   -1.0100   -2.8790 hn        1 EV0      0.483800
     16 H8          4.8110    0.7660    2.4600 hc        1 EV0      0.082700
     17 H8A         3.3290    0.2480    3.3650 hc        1 EV0      0.082700
     18 H9          3.8450   -2.1680    2.7680 hc        1 EV0      0.048200
     19 H9A         5.3590   -1.6220    1.9420 hc        1 EV0      0.048200
     20 H10         6.1730   -0.6140    4.1030 hc        1 EV0      0.048700
     21 H10A        5.8270   -2.3850    4.2630 hc        1 EV0      0.048700
     22 H10B        4.6590   -1.1710    4.9290 hc        1 EV0      0.048700
     23 H73         3.8390    0.6670   -2.9290 hn        1 EV0      0.483800
@<TRIPOS>BOND
     1    1    2 2   
     2    2    3 1   
     3    2    4 1   
     4    3    8 2   
     5    3   12 1   
     6    4    5 1   
     7    4   13 1   
     8    5    6 1   
     9    5    7 2   
    10    6   14 1   
    11    6   15 1   
    12    6   23 1   
    13    7    8 1   
    14    8    9 1   
    15    9   10 1   
    16    9   16 1   
    17    9   17 1   
    18   10   11 1   
    19   10   18 1   
    20   10   19 1   
    21   11   20 1   
    22   11   21 1   
    23   11   22 1   
@<TRIPOS>SUBSTRUCTURE
     1 EV0         1 TEMP              0 ****  ****    0 ROOT
