@<TRIPOS>MOLECULE
EV0
   22    22     1     0     0
SMALL
bcc


@<TRIPOS>ATOM
      1 O11        -2.4040   -2.2630    0.0680 o         1 EV0     -0.632500
      2 C3         -1.6320   -1.2880    0.1010 c         1 EV0      0.705700
      3 C1         -0.2020   -1.3230    0.3650 cc        1 EV0     -0.335200
      4 N5         -2.1880   -0.0060   -0.1340 n         1 EV0     -0.498400
      5 C6         -1.3640    1.1320   -0.1310 cc        1 EV0      0.675800
      6 N7         -1.9480    2.3660   -0.4930 nh        1 EV0     -0.895800
      7 N4         -0.0400    1.0850    0.1420 nd        1 EV0     -0.697300
      8 C2          0.5260   -0.1570    0.3710 cd        1 EV0      0.216400
      9 C8          2.0020   -0.1980    0.6540 c3        1 EV0     -0.034200
     10 C9          2.8190    0.2120   -0.5540 c3        1 EV0     -0.076400
     11 C10         4.2950    0.0820   -0.2760 c3        1 EV0     -0.094100
     12 H1          0.2390   -2.3110    0.5460 ha        1 EV0      0.169000
     13 HN5        -3.1540    0.0560   -0.3710 hn        1 EV0      0.332500
     14 HN7        -2.8860    2.5050   -0.1930 hn        1 EV0      0.420300
     15 HN7A       -1.3550    3.1590   -0.3670 hn        1 EV0      0.420300
     16 H8          2.2350    0.4830    1.5160 hc        1 EV0      0.059200
     17 H8A         2.2810   -1.2410    0.9630 hc        1 EV0      0.059200
     18 H9          2.5420   -0.4300   -1.4310 hc        1 EV0      0.051200
     19 H9A         2.5800    1.2730   -0.8290 hc        1 EV0      0.051200
     20 H10         4.5940    0.7290    0.5830 hc        1 EV0      0.034367
     21 H10A        4.5600   -0.9750   -0.0290 hc        1 EV0      0.034367
     22 H10B        4.8840    0.3920   -1.1730 hc        1 EV0      0.034367
@<TRIPOS>BOND
     1    1    2 2   
     2    2    3 1   
     3    2    4 1   
     4    3    8 2   
     5    3   12 1   
     6    4    5 1   
     7    4   13 1   
     8    5    6 1   
     9    5    7 2   
    10    6   14 1   
    11    6   15 1   
    12    7    8 1   
    13    8    9 1   
    14    9   10 1   
    15    9   16 1   
    16    9   17 1   
    17   10   11 1   
    18   10   18 1   
    19   10   19 1   
    20   11   20 1   
    21   11   21 1   
    22   11   22 1   
@<TRIPOS>SUBSTRUCTURE
     1 EV0         1 TEMP              0 ****  ****    0 ROOT
