@<TRIPOS>MOLECULE
EV1
   46    48     1     0     0
SMALL
bcc


@<TRIPOS>ATOM
      1 C25         0.6540    1.5150    0.2000 c3        1 EV1      0.109700
      2 O24         1.9240    0.8740    0.2400 os        1 EV1     -0.305900
      3 C16         2.2800    0.3200    1.4530 ca        1 EV1      0.106100
      4 C15         3.5620   -0.2960    1.4860 ca        1 EV1      0.102100
      5 O22         4.2720   -0.2490    0.3030 os        1 EV1     -0.302900
      6 C23         5.5490   -0.8750    0.3200 c3        1 EV1      0.110700
      7 C14         4.0100   -0.8890    2.6650 ca        1 EV1     -0.180000
      8 C13         3.2030   -0.8720    3.8050 ca        1 EV1     -0.136000
      9 C17         1.4840    0.3260    2.5960 ca        1 EV1     -0.168000
     10 C12         1.9460   -0.2680    3.7800 ca        1 EV1     -0.075300
     11 C11         1.0740   -0.2920    4.9870 c3        1 EV1     -0.089400
     12 C10         0.6280    1.0840    5.4150 ca        1 EV1      0.441600
     13 N9         -0.6180    1.4640    5.1150 nb        1 EV1     -0.679000
     14 C8         -1.0450    2.6870    5.5390 ca        1 EV1      0.385200
     15 C7         -0.2670    3.5640    6.2740 ca        1 EV1     -0.233300
     16 C2          1.0610    3.1860    6.5990 ca        1 EV1     -0.001000
     17 C3          1.5360    1.9250    6.1550 ca        1 EV1     -0.138300
     18 C4          2.8730    1.5470    6.4480 ca        1 EV1     -0.172000
     19 C5          3.6930    2.3820    7.1720 ca        1 EV1      0.115100
     20 O20         5.0010    2.1170    7.5180 os        1 EV1     -0.301900
     21 C21         5.5380    0.8930    7.0300 c3        1 EV1      0.107700
     22 C6          3.2010    3.6550    7.6390 ca        1 EV1      0.137100
     23 C1          1.9130    4.0420    7.3490 ca        1 EV1     -0.202000
     24 O18         4.1150    4.3910    8.3580 os        1 EV1     -0.299900
     25 C19         3.6650    5.6610    8.8220 c3        1 EV1      0.107700
     26 H251        0.6150    2.3640    0.9250 h1        1 EV1      0.045033
     27 H252       -0.1650    0.7850    0.4070 h1        1 EV1      0.045033
     28 H253        0.5900    1.8920   -0.8530 h1        1 EV1      0.045033
     29 H17         0.4880    0.7930    2.5850 ha        1 EV1      0.156000
     30 H14         4.9950   -1.3740    2.7080 ha        1 EV1      0.138000
     31 H231        6.2240   -0.3800    1.0590 h1        1 EV1      0.043033
     32 H232        5.9260   -0.7200   -0.7230 h1        1 EV1      0.043033
     33 H233        5.4540   -1.9650    0.5460 h1        1 EV1      0.043033
     34 H13         3.5680   -1.3500    4.7260 ha        1 EV1      0.127000
     35 H111        1.6080   -0.7720    5.8510 hc        1 EV1      0.068200
     36 H112        0.1780   -0.9370    4.7590 hc        1 EV1      0.068200
     37 H8         -2.0830    2.9340    5.2530 h4        1 EV1      0.020100
     38 H7         -0.6580    4.5350    6.6040 ha        1 EV1      0.141000
     39 H1          1.5160    5.0100    7.6860 ha        1 EV1      0.145000
     40 H4          3.2470    0.5850    6.0650 ha        1 EV1      0.151000
     41 H211        6.5930    0.9080    7.4060 h1        1 EV1      0.046700
     42 H212        4.9810    0.0220    7.4520 h1        1 EV1      0.046700
     43 H213        5.5170    0.8680    5.9130 h1        1 EV1      0.046700
     44 H191        2.8000    5.5420    9.5190 h1        1 EV1      0.047033
     45 H192        3.3890    6.3200    7.9630 h1        1 EV1      0.047033
     46 H193        4.5570    6.0670    9.3640 h1        1 EV1      0.047033
@<TRIPOS>BOND
     1    1    2 1   
     2    1   26 1   
     3    1   27 1   
     4    1   28 1   
     5    2    3 1   
     6    3    4 ar  
     7    3    9 ar  
     8    4    5 1   
     9    4    7 ar  
    10    5    6 1   
    11    6   31 1   
    12    6   32 1   
    13    6   33 1   
    14    7    8 ar  
    15    7   30 1   
    16    8   10 ar  
    17    8   34 1   
    18    9   10 ar  
    19    9   29 1   
    20   10   11 1   
    21   11   12 1   
    22   11   35 1   
    23   11   36 1   
    24   12   13 ar  
    25   12   17 ar  
    26   13   14 ar  
    27   14   15 ar  
    28   14   37 1   
    29   15   16 ar  
    30   15   38 1   
    31   16   17 ar  
    32   16   23 ar  
    33   17   18 ar  
    34   18   19 ar  
    35   18   40 1   
    36   19   20 1   
    37   19   22 ar  
    38   20   21 1   
    39   21   41 1   
    40   21   42 1   
    41   21   43 1   
    42   22   23 ar  
    43   22   24 1   
    44   23   39 1   
    45   24   25 1   
    46   25   44 1   
    47   25   45 1   
    48   25   46 1   
@<TRIPOS>SUBSTRUCTURE
     1 EV1         1 TEMP              0 ****  ****    0 ROOT
