@<TRIPOS>MOLECULE
EV1
   46    48     1     0     0
SMALL
bcc


@<TRIPOS>ATOM
      1 C25         0.6440    1.5190    0.2070 c3        1 EV1      0.109700
      2 O24         1.9180    0.8840    0.2420 os        1 EV1     -0.305900
      3 C16         2.2810    0.3280    1.4520 ca        1 EV1      0.106100
      4 C15         3.5660   -0.2810    1.4790 ca        1 EV1      0.102100
      5 O22         4.2720   -0.2250    0.2940 os        1 EV1     -0.302900
      6 C23         5.5530   -0.8450    0.3050 c3        1 EV1      0.110700
      7 C14         4.0200   -0.8760    2.6550 ca        1 EV1     -0.180000
      8 C13         3.2160   -0.8680    3.7970 ca        1 EV1     -0.136000
      9 C17         1.4870    0.3250    2.5970 ca        1 EV1     -0.168000
     10 C12         1.9560   -0.2710    3.7770 ca        1 EV1     -0.075300
     11 C11         1.0870   -0.3050    4.9870 c3        1 EV1     -0.089400
     12 C10         0.6320    1.0670    5.4200 ca        1 EV1      0.441600
     13 N9         -0.6170    1.4380    5.1250 nb        1 EV1     -0.679000
     14 C8         -1.0520    2.6570    5.5540 ca        1 EV1      0.385200
     15 C7         -0.2780    3.5380    6.2890 ca        1 EV1     -0.233300
     16 C2          1.0540    3.1690    6.6080 ca        1 EV1     -0.001000
     17 C3          1.5370    1.9120    6.1590 ca        1 EV1     -0.138300
     18 C4          2.8780    1.5430    6.4470 ca        1 EV1     -0.172000
     19 C5          3.6940    2.3820    7.1700 ca        1 EV1      0.115100
     20 O20         5.0050    2.1260    7.5110 os        1 EV1     -0.301900
     21 C21         5.5500    0.9080    7.0160 c3        1 EV1      0.107700
     22 C6          3.1950    3.6500    7.6420 ca        1 EV1      0.137100
     23 C1          1.9030    4.0280    7.3580 ca        1 EV1     -0.202000
     24 O18         4.1060    4.3920    8.3600 os        1 EV1     -0.299900
     25 C19         3.6470    5.6560    8.8300 c3        1 EV1      0.107700
     26 H251        0.6030    2.3640    0.9360 h1        1 EV1      0.045033
     27 H252       -0.1700    0.7830    0.4140 h1        1 EV1      0.045033
     28 H253        0.5760    1.8990   -0.8430 h1        1 EV1      0.045033
     29 H17         0.4880    0.7870    2.5910 ha        1 EV1      0.156000
     30 H14         5.0080   -1.3550    2.6940 ha        1 EV1      0.138000
     31 H231        6.2270   -0.3480    1.0450 h1        1 EV1      0.043033
     32 H232        5.9260   -0.6840   -0.7380 h1        1 EV1      0.043033
     33 H233        5.4640   -1.9360    0.5280 h1        1 EV1      0.043033
     34 H13         3.5860   -1.3470    4.7150 ha        1 EV1      0.127000
     35 H111        1.6270   -0.7840    5.8480 hc        1 EV1      0.068200
     36 H112        0.1960   -0.9560    4.7590 hc        1 EV1      0.068200
     37 H8         -2.0930    2.8970    5.2740 h4        1 EV1      0.020100
     38 H7         -0.6750    4.5050    6.6230 ha        1 EV1      0.141000
     39 H1          1.5000    4.9930    7.6990 ha        1 EV1      0.145000
     40 H4          3.2570    0.5850    6.0590 ha        1 EV1      0.151000
     41 H211        6.6060    0.9300    7.3880 h1        1 EV1      0.046700
     42 H212        5.0010    0.0310    7.4380 h1        1 EV1      0.046700
     43 H213        5.5250    0.8860    5.8990 h1        1 EV1      0.046700
     44 H191        2.7860    5.5280    9.5290 h1        1 EV1      0.047033
     45 H192        3.3640    6.3160    7.9740 h1        1 EV1      0.047033
     46 H193        4.5380    6.0670    9.3690 h1        1 EV1      0.047033
@<TRIPOS>BOND
     1    1    2 1   
     2    1   26 1   
     3    1   27 1   
     4    1   28 1   
     5    2    3 1   
     6    3    4 ar  
     7    3    9 ar  
     8    4    5 1   
     9    4    7 ar  
    10    5    6 1   
    11    6   31 1   
    12    6   32 1   
    13    6   33 1   
    14    7    8 ar  
    15    7   30 1   
    16    8   10 ar  
    17    8   34 1   
    18    9   10 ar  
    19    9   29 1   
    20   10   11 1   
    21   11   12 1   
    22   11   35 1   
    23   11   36 1   
    24   12   13 ar  
    25   12   17 ar  
    26   13   14 ar  
    27   14   15 ar  
    28   14   37 1   
    29   15   16 ar  
    30   15   38 1   
    31   16   17 ar  
    32   16   23 ar  
    33   17   18 ar  
    34   18   19 ar  
    35   18   40 1   
    36   19   20 1   
    37   19   22 ar  
    38   20   21 1   
    39   21   41 1   
    40   21   42 1   
    41   21   43 1   
    42   22   23 ar  
    43   22   24 1   
    44   23   39 1   
    45   24   25 1   
    46   25   44 1   
    47   25   45 1   
    48   25   46 1   
@<TRIPOS>SUBSTRUCTURE
     1 EV1         1 TEMP              0 ****  ****    0 ROOT
