@<TRIPOS>MOLECULE
EV1
   46    48     1     0     0
SMALL
bcc


@<TRIPOS>ATOM
      1 C25         4.1190    2.0380    1.4690 c3        1 EV1      0.109700
      2 O24         4.2640    0.6370    1.2580 os        1 EV1     -0.305900
      3 C16         3.4040    0.0740    0.3370 ca        1 EV1      0.106100
      4 C15         3.5430   -1.3300    0.1560 ca        1 EV1      0.102100
      5 O22         4.5150   -1.9330    0.9290 os        1 EV1     -0.302900
      6 C23         4.6740   -3.3340    0.7440 c3        1 EV1      0.110700
      7 C14         2.7230   -1.9900   -0.7580 ca        1 EV1     -0.180000
      8 C13         1.7690   -1.2720   -1.4840 ca        1 EV1     -0.136000
      9 C17         2.4510    0.7770   -0.3960 ca        1 EV1     -0.168000
     10 C12         1.6270    0.1030   -1.3090 ca        1 EV1     -0.075300
     11 C11         0.6370    0.8670   -2.1190 c3        1 EV1     -0.089400
     12 C10        -0.3230    1.6650   -1.2720 ca        1 EV1      0.441600
     13 N9         -0.1210    2.9810   -1.1610 nb        1 EV1     -0.679000
     14 C8         -1.0110    3.7170   -0.4360 ca        1 EV1      0.385200
     15 C7         -2.1240    3.1850    0.1910 ca        1 EV1     -0.233300
     16 C2         -2.3550    1.7880    0.0940 ca        1 EV1     -0.001000
     17 C3         -1.4340    0.9970   -0.6410 ca        1 EV1     -0.138300
     18 C4         -1.6390   -0.4060   -0.7220 ca        1 EV1     -0.172000
     19 C5         -2.7260   -0.9900   -0.1140 ca        1 EV1      0.115100
     20 O20        -3.0250   -2.3360   -0.1300 os        1 EV1     -0.301900
     21 C21        -2.0870   -3.1750   -0.7950 c3        1 EV1      0.107700
     22 C6         -3.6700   -0.1810    0.6160 ca        1 EV1      0.137100
     23 C1         -3.4780    1.1770    0.7160 ca        1 EV1     -0.202000
     24 O18        -4.7180   -0.8830    1.1690 os        1 EV1     -0.299900
     25 C19        -5.6610   -0.1140    1.9090 c3        1 EV1      0.107700
     26 H251        4.3310    2.6030    0.5290 h1        1 EV1      0.045033
     27 H252        3.0950    2.2770    1.8470 h1        1 EV1      0.045033
     28 H253        4.8910    2.2610    2.2480 h1        1 EV1      0.045033
     29 H17         2.3350    1.8650   -0.2720 ha        1 EV1      0.156000
     30 H14         2.8200   -3.0730   -0.9150 ha        1 EV1      0.138000
     31 H231        3.7370   -3.8790    1.0150 h1        1 EV1      0.043033
     32 H232        4.9700   -3.5650   -0.3080 h1        1 EV1      0.043033
     33 H233        5.5000   -3.5950    1.4530 h1        1 EV1      0.043033
     34 H13         1.1340   -1.8070   -2.2060 ha        1 EV1      0.127000
     35 H111        1.2050    1.5520   -2.8110 hc        1 EV1      0.068200
     36 H112        0.0380    0.1730   -2.7690 hc        1 EV1      0.068200
     37 H8         -0.7810    4.7960   -0.3870 h4        1 EV1      0.020100
     38 H7         -2.8200    3.8190    0.7550 ha        1 EV1      0.141000
     39 H1         -4.1780    1.8160    1.2730 ha        1 EV1      0.145000
     40 H4         -0.8980   -1.0190   -1.2590 ha        1 EV1      0.151000
     41 H211       -2.5170   -4.1990   -0.6590 h1        1 EV1      0.046700
     42 H212       -2.0250   -2.9140   -1.8800 h1        1 EV1      0.046700
     43 H213       -1.0800   -3.1010   -0.3170 h1        1 EV1      0.046700
     44 H191       -6.1550    0.6420    1.2510 h1        1 EV1      0.047033
     45 H192       -6.4000   -0.8800    2.2560 h1        1 EV1      0.047033
     46 H193       -5.1690    0.3840    2.7790 h1        1 EV1      0.047033
@<TRIPOS>BOND
     1    1    2 1   
     2    1   26 1   
     3    1   27 1   
     4    1   28 1   
     5    2    3 1   
     6    3    4 ar  
     7    3    9 ar  
     8    4    5 1   
     9    4    7 ar  
    10    5    6 1   
    11    6   31 1   
    12    6   32 1   
    13    6   33 1   
    14    7    8 ar  
    15    7   30 1   
    16    8   10 ar  
    17    8   34 1   
    18    9   10 ar  
    19    9   29 1   
    20   10   11 1   
    21   11   12 1   
    22   11   35 1   
    23   11   36 1   
    24   12   13 ar  
    25   12   17 ar  
    26   13   14 ar  
    27   14   15 ar  
    28   14   37 1   
    29   15   16 ar  
    30   15   38 1   
    31   16   17 ar  
    32   16   23 ar  
    33   17   18 ar  
    34   18   19 ar  
    35   18   40 1   
    36   19   20 1   
    37   19   22 ar  
    38   20   21 1   
    39   21   41 1   
    40   21   42 1   
    41   21   43 1   
    42   22   23 ar  
    43   22   24 1   
    44   23   39 1   
    45   24   25 1   
    46   25   44 1   
    47   25   45 1   
    48   25   46 1   
@<TRIPOS>SUBSTRUCTURE
     1 EV1         1 TEMP              0 ****  ****    0 ROOT
