@<TRIPOS>MOLECULE
EV2
   30    32     1     0     0
SMALL
bcc


@<TRIPOS>ATOM
      1 N12        -0.7780    2.6790    0.7290 nh        1 EV2     -0.919500
      2 C10        -0.0100    1.5870    0.3200 ca        1 EV2      0.548900
      3 N8          1.3260    1.6380    0.4250 nb        1 EV2     -0.716000
      4 C6          2.0450    0.4950    0.1450 ca        1 EV2      0.325300
      5 C4          3.4690    0.5030    0.2600 ca        1 EV2     -0.172300
      6 C2          4.1880   -0.6340   -0.0160 ca        1 EV2     -0.118000
      7 C9         -0.6920    0.3350   -0.1470 ca        1 EV2      0.478900
      8 N7          0.0150   -0.7610   -0.4040 nb        1 EV2     -0.659000
      9 C5          1.3890   -0.7120   -0.2690 ca        1 EV2      0.269300
     10 C3          2.1740   -1.8720   -0.5430 ca        1 EV2     -0.149300
     11 C1          3.5410   -1.8240   -0.4160 ca        1 EV2     -0.140000
     12 N11        -2.1110    0.4120   -0.3460 nh        1 EV2     -0.715300
     13 C16        -2.8730    0.3310    0.9110 c3        1 EV2      0.162800
     14 C14        -3.7580   -0.9270    0.8860 c3        1 EV2     -0.098900
     15 C13        -3.6270   -1.5050   -0.5170 c3        1 EV2     -0.098900
     16 C15        -2.7180   -0.5340   -1.2880 c3        1 EV2      0.162800
     17 HN12       -0.2780    3.5300    0.8780 hn        1 EV2      0.414300
     18 HN1A       -1.6350    2.7950    0.2350 hn        1 EV2      0.414300
     19 H4          3.9750    1.4290    0.5730 ha        1 EV2      0.149000
     20 H2          5.2850   -0.6290    0.0740 ha        1 EV2      0.135000
     21 H3          1.6690   -2.7990   -0.8560 ha        1 EV2      0.147000
     22 H1          4.1480   -2.7170   -0.6270 ha        1 EV2      0.135000
     23 H16        -2.2040    0.3330    1.8120 h1        1 EV2      0.059950
     24 H16A       -3.5140    1.2540    0.9520 h1        1 EV2      0.059950
     25 H14        -3.4160   -1.6610    1.6560 hc        1 EV2      0.051450
     26 H14A       -4.8170   -0.6570    1.1170 hc        1 EV2      0.051450
     27 H13        -3.1700   -2.5250   -0.4860 hc        1 EV2      0.051450
     28 H13A       -4.6210   -1.5890   -1.0180 hc        1 EV2      0.051450
     29 H15        -3.3390    0.0950   -1.9860 h1        1 EV2      0.059950
     30 H15A       -1.9690   -1.0910   -1.9080 h1        1 EV2      0.059950
@<TRIPOS>BOND
     1    1    2 1   
     2    1   17 1   
     3    1   18 1   
     4    2    3 ar  
     5    2    7 ar  
     6    3    4 ar  
     7    4    5 ar  
     8    4    9 ar  
     9    5    6 ar  
    10    5   19 1   
    11    6   11 ar  
    12    6   20 1   
    13    7    8 ar  
    14    7   12 1   
    15    8    9 ar  
    16    9   10 ar  
    17   10   11 ar  
    18   10   21 1   
    19   11   22 1   
    20   12   13 1   
    21   12   16 1   
    22   13   14 1   
    23   13   23 1   
    24   13   24 1   
    25   14   15 1   
    26   14   25 1   
    27   14   26 1   
    28   15   16 1   
    29   15   27 1   
    30   15   28 1   
    31   16   29 1   
    32   16   30 1   
@<TRIPOS>SUBSTRUCTURE
     1 EV2         1 TEMP              0 ****  ****    0 ROOT
