@<TRIPOS>MOLECULE
EV2
   30    28     1     0     0
SMALL
bcc


@<TRIPOS>ATOM
      1 N12        -2.8050   -0.4960    0.4560 n3        1 EV2     -0.317000
      2 C10        -1.3860   -0.4960    0.4560 c2        1 EV2      0.093000
      3 N8         -1.3450   -0.4960    1.8000 n2        1 EV2     -0.190000
      4 C6         -0.2320   -0.0470    2.4490 c1        1 EV2     -0.003000
      5 C4         -0.1900   -0.0400    3.8570 c1        1 EV2     -0.107000
      6 C2          0.9410    0.4230    4.5170 c1        1 EV2     -0.129000
      7 C9         -0.2930   -0.0370   -0.2740 c1        1 EV2      0.023000
      8 N7          0.8040    0.4060    0.3640 n1        1 EV2     -0.133000
      9 C5          0.8470    0.4060    1.7280 c1        1 EV2     -0.059000
     10 C3          1.9940    0.8760    2.3980 c1        1 EV2     -0.084000
     11 C1          2.0340    0.8810    3.7860 c1        1 EV2     -0.129000
     12 N11         0.1040   -0.6770   -1.4770 n3        1 EV2     -0.206000
     13 C16        -0.9340   -0.8250   -2.2540 c3        1 EV2     -0.074000
     14 C14        -0.4010   -0.6230   -3.7680 c3        1 EV2     -0.177500
     15 C13         0.4840    0.3130   -3.7160 c3        1 EV2     -0.177500
     16 C15         1.0580    0.2490   -2.2620 c3        1 EV2     -0.074000
     17 HN12       -3.2610    0.0830   -0.0810 hn        1 EV2      0.209500
     18 HN1A       -3.2610   -1.0340    1.0350 hn        1 EV2      0.209500
     19 H4         -0.9560   -0.3620    4.3700 ha        1 EV2      0.149000
     20 H2          0.9700    0.4270    5.4920 ha        1 EV2      0.135000
     21 H3          2.7610    1.1970    1.8870 ha        1 EV2      0.147000
     22 H1          2.8290    1.2070    4.2500 ha        1 EV2      0.135000
     23 H16        -1.6080   -0.1510   -2.0430 h1        1 EV2      0.099250
     24 H16A       -1.3080   -1.7200   -2.1460 h1        1 EV2      0.099250
     25 H14         0.0030   -1.4500   -4.0940 hc        1 EV2      0.090750
     26 H14A       -1.1380   -0.3570   -4.3500 hc        1 EV2      0.090750
     27 H13         0.0690    1.1820   -3.8790 hc        1 EV2      0.090750
     28 H13A        1.1920    0.1470   -4.3680 hc        1 EV2      0.090750
     29 H15         1.0680    1.1400   -1.8630 h1        1 EV2      0.099250
     30 H15A        1.9600   -0.1270   -2.2720 h1        1 EV2      0.099250
@<TRIPOS>BOND
     1    1    2 1   
     2    1   17 1   
     3    1   18 1   
     4    2    3 1   
     5    2    7 1   
     6    3    4 1   
     7    4    5 1   
     8    5   19 1   
     9    6   11 1   
    10    6   20 1   
    11    7   12 1   
    12    8    9 1   
    13    9   10 1   
    14   10   21 1   
    15   11   22 1   
    16   12   13 1   
    17   12   16 1   
    18   13   14 1   
    19   13   23 1   
    20   13   24 1   
    21   14   15 1   
    22   14   25 1   
    23   14   26 1   
    24   15   16 1   
    25   15   27 1   
    26   15   28 1   
    27   16   29 1   
    28   16   30 1   
@<TRIPOS>SUBSTRUCTURE
     1 EV2         1 TEMP              0 ****  ****    0 ROOT
