@<TRIPOS>MOLECULE
EV2
   31    33     1     0     0
SMALL
bcc


@<TRIPOS>ATOM
      1 N12        -0.0550   -0.0220    0.1420 n4        1 EV2     -0.802300
      2 C10         1.4200   -0.0130    0.0770 ca        1 EV2      0.341900
      3 N8          2.0950    0.0030    1.2270 nb        1 EV2     -0.592000
      4 C6          3.4650    0.0110    1.1490 ca        1 EV2      0.291300
      5 C4          4.2560    0.0290    2.3410 ca        1 EV2     -0.147300
      6 C2          5.6250    0.0370    2.2480 ca        1 EV2     -0.096000
      7 C9          2.0670   -0.0240   -1.2450 ca        1 EV2      0.513900
      8 N7          3.4000   -0.0160   -1.3110 nb        1 EV2     -0.608000
      9 C5          4.1240    0.0010   -0.1410 ca        1 EV2      0.336300
     10 C3          5.5530    0.0100   -0.1810 ca        1 EV2     -0.165300
     11 C1          6.2720    0.0270    0.9890 ca        1 EV2     -0.073000
     12 N11         1.1900   -0.0420   -2.3850 nh        1 EV2     -0.751300
     13 C16         1.3400   -1.2400   -3.2330 c3        1 EV2      0.152800
     14 C14         1.8490   -0.8230   -4.6200 c3        1 EV2     -0.095400
     15 C13         1.8390    0.7000   -4.6370 c3        1 EV2     -0.095400
     16 C15         1.3250    1.1400   -3.2590 c3        1 EV2      0.152800
     17 HN12       -0.4050    0.8060   -0.3540 hn        1 EV2      0.472800
     18 HN1A       -0.3940   -0.8660   -0.3360 hn        1 EV2      0.472800
     19 H4          3.7530    0.0360    3.3220 ha        1 EV2      0.171000
     20 H2          6.2410    0.0500    3.1640 ha        1 EV2      0.169000
     21 H3          6.0620    0.0030   -1.1600 ha        1 EV2      0.177000
     22 H1          7.3760    0.0340    0.9580 ha        1 EV2      0.169000
     23 H16         0.3100   -1.6850   -3.3160 h1        1 EV2      0.063200
     24 H16A        2.0180   -2.0060   -2.7740 h1        1 EV2      0.063200
     25 H14         2.8810   -1.2180   -4.7920 hc        1 EV2      0.069200
     26 H14A        1.1860   -1.2420   -5.4160 hc        1 EV2      0.069200
     27 H13         1.1710    1.0930   -5.4420 hc        1 EV2      0.069200
     28 H13A        2.8660    1.1040   -4.8170 hc        1 EV2      0.069200
     29 H15         1.9940    1.9250   -2.8170 h1        1 EV2      0.063200
     30 H15A        0.2890    1.5710   -3.3510 h1        1 EV2      0.063200
     31 H123       -0.3910   -0.0140    1.1130 hn        1 EV2      0.472800
@<TRIPOS>BOND
     1    1    2 1   
     2    1   17 1   
     3    1   18 1   
     4    1   31 1   
     5    2    3 ar  
     6    2    7 ar  
     7    3    4 ar  
     8    4    5 ar  
     9    4    9 ar  
    10    5    6 ar  
    11    5   19 1   
    12    6   11 ar  
    13    6   20 1   
    14    7    8 ar  
    15    7   12 1   
    16    8    9 ar  
    17    9   10 ar  
    18   10   11 ar  
    19   10   21 1   
    20   11   22 1   
    21   12   13 1   
    22   12   16 1   
    23   13   14 1   
    24   13   23 1   
    25   13   24 1   
    26   14   15 1   
    27   14   25 1   
    28   14   26 1   
    29   15   16 1   
    30   15   27 1   
    31   15   28 1   
    32   16   29 1   
    33   16   30 1   
@<TRIPOS>SUBSTRUCTURE
     1 EV2         1 TEMP              0 ****  ****    0 ROOT
