@<TRIPOS>MOLECULE
EV2
   30    32     1     0     0
SMALL
bcc


@<TRIPOS>ATOM
      1 N12         0.1010   -0.6680   -0.0240 nv        1 EV2     -0.919500
      2 C10         1.4440   -0.2850    0.0050 ca        1 EV2      0.548900
      3 N8          2.1350   -0.3770    1.1510 nb        1 EV2     -0.716000
      4 C6          3.4900   -0.1230    1.1140 ca        1 EV2      0.325300
      5 C4          4.2670   -0.2260    2.3090 ca        1 EV2     -0.172300
      6 C2          5.6170    0.0220    2.2760 ca        1 EV2     -0.118000
      7 C9          2.1210    0.1400   -1.2650 ca        1 EV2      0.478900
      8 N7          3.4300    0.3700   -1.2850 nb        1 EV2     -0.659000
      9 C5          4.1440    0.2490   -0.1080 ca        1 EV2      0.269300
     10 C3          5.5500    0.4960   -0.0990 ca        1 EV2     -0.149300
     11 C1          6.2610    0.3820    1.0710 ca        1 EV2     -0.140000
     12 N11         1.2780    0.3280   -2.4100 nh        1 EV2     -0.715300
     13 C16         0.9020   -0.9380   -3.0620 c3        1 EV2      0.162800
     14 C14         1.4640   -0.9560   -4.4930 c3        1 EV2     -0.098900
     15 C13         2.0460    0.4310   -4.7350 c3        1 EV2     -0.098900
     16 C15         1.7510    1.2380   -3.4590 c3        1 EV2      0.162800
     17 HN12       -0.3350   -0.7880    0.8650 hn        1 EV2      0.414300
     18 HN1A       -0.4590   -0.1790   -0.6870 hn        1 EV2      0.414300
     19 H4          3.7670   -0.5080    3.2490 ha        1 EV2      0.149000
     20 H2          6.2160   -0.0580    3.1960 ha        1 EV2      0.135000
     21 H3          6.0510    0.7770   -1.0380 ha        1 EV2      0.147000
     22 H1          7.3450    0.5710    1.0810 ha        1 EV2      0.135000
     23 H16         1.2520   -1.8310   -2.4810 h1        1 EV2      0.059950
     24 H16A       -0.2220   -0.9570   -3.0870 h1        1 EV2      0.059950
     25 H14         2.2500   -1.7440   -4.5940 hc        1 EV2      0.051450
     26 H14A        0.6510   -1.1880   -5.2240 hc        1 EV2      0.051450
     27 H13         3.1480    0.3750   -4.9140 hc        1 EV2      0.051450
     28 H13A        1.5780    0.9210   -5.6220 hc        1 EV2      0.051450
     29 H15         2.6400    1.8480   -3.1560 h1        1 EV2      0.059950
     30 H15A        0.8970    1.9480   -3.6480 h1        1 EV2      0.059950
@<TRIPOS>BOND
     1    1    2 1   
     2    1   17 1   
     3    1   18 1   
     4    2    3 ar  
     5    2    7 ar  
     6    3    4 ar  
     7    4    5 ar  
     8    4    9 ar  
     9    5    6 ar  
    10    5   19 1   
    11    6   11 ar  
    12    6   20 1   
    13    7    8 ar  
    14    7   12 1   
    15    8    9 ar  
    16    9   10 ar  
    17   10   11 ar  
    18   10   21 1   
    19   11   22 1   
    20   12   13 1   
    21   12   16 1   
    22   13   14 1   
    23   13   23 1   
    24   13   24 1   
    25   14   15 1   
    26   14   25 1   
    27   14   26 1   
    28   15   16 1   
    29   15   27 1   
    30   15   28 1   
    31   16   29 1   
    32   16   30 1   
@<TRIPOS>SUBSTRUCTURE
     1 EV2         1 TEMP              0 ****  ****    0 ROOT
