@<TRIPOS>MOLECULE
EV2
   30    32     1     0     0
SMALL
bcc


@<TRIPOS>ATOM
      1 N12         0.0960   -0.6400   -0.0220 nh        1 EV2     -0.918500
      2 C10         1.4410   -0.2660    0.0050 ca        1 EV2      0.548900
      3 N8          2.1310   -0.3530    1.1520 nb        1 EV2     -0.716000
      4 C6          3.4870   -0.1090    1.1150 ca        1 EV2      0.325300
      5 C4          4.2620   -0.2060    2.3110 ca        1 EV2     -0.172300
      6 C2          5.6140    0.0330    2.2780 ca        1 EV2     -0.118000
      7 C9          2.1220    0.1430   -1.2680 ca        1 EV2      0.478900
      8 N7          3.4330    0.3650   -1.2880 nb        1 EV2     -0.659000
      9 C5          4.1450    0.2490   -0.1100 ca        1 EV2      0.269300
     10 C3          5.5520    0.4860   -0.1010 ca        1 EV2     -0.149300
     11 C1          6.2610    0.3780    1.0700 ca        1 EV2     -0.140000
     12 N11         1.2820    0.3270   -2.4150 nh        1 EV2     -0.715300
     13 C16         0.8970   -0.9420   -3.0560 c3        1 EV2      0.162800
     14 C14         1.4600   -0.9780   -4.4870 c3        1 EV2     -0.098900
     15 C13         2.0520    0.4030   -4.7400 c3        1 EV2     -0.098900
     16 C15         1.7620    1.2240   -3.4730 c3        1 EV2      0.162800
     17 HN12       -0.3420   -0.7500    0.8680 hn        1 EV2      0.414300
     18 HN1A       -0.4600   -0.1530   -0.6900 hn        1 EV2      0.414300
     19 H4          3.7600   -0.4760    3.2530 ha        1 EV2      0.149000
     20 H2          6.2120   -0.0430    3.1990 ha        1 EV2      0.135000
     21 H3          6.0560    0.7560   -1.0420 ha        1 EV2      0.147000
     22 H1          7.3460    0.5600    1.0790 ha        1 EV2      0.135000
     23 H16         1.2400   -1.8330   -2.4670 h1        1 EV2      0.059950
     24 H16A       -0.2270   -0.9530   -3.0820 h1        1 EV2      0.059950
     25 H14         2.2400   -1.7720   -4.5800 hc        1 EV2      0.051450
     26 H14A        0.6460   -1.2100   -5.2150 hc        1 EV2      0.051450
     27 H13         1.5870    0.8880   -5.6320 hc        1 EV2      0.051450
     28 H13A        3.1530    0.3370   -4.9190 hc        1 EV2      0.051450
     29 H15         0.9140    1.9380   -3.6680 h1        1 EV2      0.059950
     30 H15A        2.6560    1.8290   -3.1740 h1        1 EV2      0.059950
@<TRIPOS>BOND
     1    1    2 1   
     2    1   17 1   
     3    1   18 1   
     4    2    3 ar  
     5    2    7 ar  
     6    3    4 ar  
     7    4    5 ar  
     8    4    9 ar  
     9    5    6 ar  
    10    5   19 1   
    11    6   11 ar  
    12    6   20 1   
    13    7    8 ar  
    14    7   12 1   
    15    8    9 ar  
    16    9   10 ar  
    17   10   11 ar  
    18   10   21 1   
    19   11   22 1   
    20   12   13 1   
    21   12   16 1   
    22   13   14 1   
    23   13   23 1   
    24   13   24 1   
    25   14   15 1   
    26   14   25 1   
    27   14   26 1   
    28   15   16 1   
    29   15   27 1   
    30   15   28 1   
    31   16   29 1   
    32   16   30 1   
@<TRIPOS>SUBSTRUCTURE
     1 EV2         1 TEMP              0 ****  ****    0 ROOT
