@<TRIPOS>MOLECULE
EV3
   28    29     1     0     0
SMALL
bcc


@<TRIPOS>ATOM
      1 C1         -0.3710   -0.4110    0.1130 ca        1 EV3      0.005400
      2 C2          1.0210   -0.5800   -0.0980 ca        1 EV3     -0.061000
      3 C3         -0.8930   -0.0790    1.3540 ca        1 EV3     -0.045000
      4 C4          1.9370   -0.4220    0.9250 ca        1 EV3     -0.128000
      5 C5          0.0130    0.0920    2.4190 ca        1 EV3      0.063400
      6 C6          1.4390   -0.0830    2.1950 ca        1 EV3     -0.034200
      7 N7         -0.2250    0.4210    3.7580 nc        1 EV3     -0.473100
      8 C8          1.0130    0.4500    4.3260 cd        1 EV3      0.374700
      9 N9          2.0690    0.1260    3.4270 na        1 EV3     -0.128300
     10 N10         1.2510    0.7580    5.7330 n4        1 EV3     -0.744600
     11 C11         3.4750    0.1540    3.7140 c3        1 EV3      0.026300
     12 C12         4.0480    1.5320    4.0640 c3        1 EV3     -0.122400
     13 C13         4.7970    1.5100    5.3850 c3        1 EV3      0.126400
     14 O14         3.8470    1.2650    6.4200 oh        1 EV3     -0.691800
     15 CL15       -1.4170   -0.6260   -1.2000 cl        1 EV3     -0.034400
     16 H2          1.3790   -0.8460   -1.1090 ha        1 EV3      0.174000
     17 H3         -1.9760    0.0500    1.5170 ha        1 EV3      0.184000
     18 H4          3.0130   -0.5580    0.7490 ha        1 EV3      0.159000
     19 HN10        1.7990    1.6330    5.8040 hn        1 EV3      0.483467
     20 HN1A        1.8040    0.0060    6.1680 hn        1 EV3      0.483467
     21 H11         3.6660   -0.5600    4.5710 h1        1 EV3      0.085200
     22 H11A        4.0080   -0.2520    2.8050 h1        1 EV3      0.085200
     23 H12         4.7710    1.8410    3.2620 hc        1 EV3      0.080200
     24 H12A        3.2500    2.3200    4.1020 hc        1 EV3      0.080200
     25 H13         5.5720    0.6970    5.3980 h1        1 EV3      0.062200
     26 H13A        5.2960    2.5020    5.5580 h1        1 EV3      0.062200
     27 HO14        4.3120    1.3670    7.2610 ho        1 EV3      0.445000
     28 H103        0.3500    0.8620    6.2180 hn        1 EV3      0.483467
@<TRIPOS>BOND
     1    1    2 ar  
     2    1    3 ar  
     3    1   15 1   
     4    2    4 ar  
     5    2   16 1   
     6    3    5 ar  
     7    3   17 1   
     8    4    6 ar  
     9    4   18 1   
    10    5    6 ar  
    11    5    7 1   
    12    6    9 1   
    13    7    8 2   
    14    8    9 1   
    15    8   10 1   
    16    9   11 1   
    17   10   19 1   
    18   10   20 1   
    19   10   28 1   
    20   11   12 1   
    21   11   21 1   
    22   11   22 1   
    23   12   13 1   
    24   12   23 1   
    25   12   24 1   
    26   13   14 1   
    27   13   25 1   
    28   13   26 1   
    29   14   27 1   
@<TRIPOS>SUBSTRUCTURE
     1 EV3         1 TEMP              0 ****  ****    0 ROOT
