@<TRIPOS>MOLECULE
EV3
   27    28     1     0     0
SMALL
bcc


@<TRIPOS>ATOM
      1 C1          0.0160    0.0570    0.0180 ca        1 EV3      0.005400
      2 C2          1.4070   -0.1390   -0.0070 ca        1 EV3     -0.122000
      3 C3         -0.7020    0.1700    1.2070 ca        1 EV3     -0.080000
      4 C4          2.1390   -0.2310    1.1720 ca        1 EV3     -0.116000
      5 C5          0.0110    0.0870    2.4070 ca        1 EV3      0.102400
      6 C6          1.4480   -0.1160    2.3790 ca        1 EV3     -0.083200
      7 N7         -0.4410    0.1560    3.7390 nc        1 EV3     -0.608100
      8 C8          0.6780    0.0200    4.5060 cd        1 EV3      0.593700
      9 N9          1.8670   -0.2290    3.7220 na        1 EV3     -0.173300
     10 N10         0.7270    0.1340    5.9060 nv        1 EV3     -0.854800
     11 C11         3.2090   -0.0040    4.1740 c3        1 EV3      0.045300
     12 C12         3.5870    1.4530    4.4390 c3        1 EV3     -0.118400
     13 C13         5.0320    1.5190    4.9040 c3        1 EV3      0.135400
     14 O14         5.3280    2.8880    5.1280 oh        1 EV3     -0.594800
     15 Cl15       -0.8210    0.1580   -1.4630 cl        1 EV3     -0.099400
     16 H2          1.9280   -0.2200   -0.9730 ha        1 EV3      0.147000
     17 H3         -1.7920    0.3190    1.2120 ha        1 EV3      0.163000
     18 H4          3.2250   -0.3880    1.1470 ha        1 EV3      0.138000
     19 HN10       -0.1790    0.0960    6.3270 hn        1 EV3      0.405800
     20 HN1A        1.3780   -0.4910    6.3340 hn        1 EV3      0.405800
     21 H11         3.3560   -0.5980    5.1220 h1        1 EV3      0.056200
     22 H11A        3.9010   -0.4260    3.3890 h1        1 EV3      0.056200
     23 H12         2.9210    1.8990    5.2230 hc        1 EV3      0.076700
     24 H12A        3.4670    2.0690    3.5110 hc        1 EV3      0.076700
     25 H13         5.1700    0.9370    5.8560 h1        1 EV3      0.019700
     26 H13A        5.7210    1.1000    4.1220 h1        1 EV3      0.019700
     27 HO14        6.2470    2.9270    5.4180 ho        1 EV3      0.402000
@<TRIPOS>BOND
     1    1    2 ar  
     2    1    3 ar  
     3    1   15 1   
     4    2    4 ar  
     5    2   16 1   
     6    3    5 ar  
     7    3   17 1   
     8    4    6 ar  
     9    4   18 1   
    10    5    6 ar  
    11    5    7 1   
    12    6    9 1   
    13    7    8 2   
    14    8    9 1   
    15    8   10 1   
    16    9   11 1   
    17   10   19 1   
    18   10   20 1   
    19   11   12 1   
    20   11   21 1   
    21   11   22 1   
    22   12   13 1   
    23   12   23 1   
    24   12   24 1   
    25   13   14 1   
    26   13   25 1   
    27   13   26 1   
    28   14   27 1   
@<TRIPOS>SUBSTRUCTURE
     1 EV3         1 TEMP              0 ****  ****    0 ROOT
