@<TRIPOS>MOLECULE
EV3
   27    21     1     0     0
SMALL
bcc


@<TRIPOS>ATOM
      1 C1         -2.0760   -0.2990   -3.4610 c1        1 EV3     -0.073000
      2 C2         -0.6870   -0.2990   -3.4610 c1        1 EV3     -0.119000
      3 C3         -2.7710   -0.2990   -2.2600 c1        1 EV3     -0.080000
      4 C4          0.0070   -0.2990   -2.2570 c1        1 EV3     -0.119000
      5 C5         -2.0650   -0.2990   -1.0350 c1        1 EV3     -0.037500
      6 C6         -0.6980   -0.2990   -1.0350 c1        1 EV3     -0.037500
      7 N7         -2.4860   -0.2990    0.2620 n1        1 EV3     -0.190000
      8 C8         -1.3820   -0.2990    1.0630 c1        1 EV3      0.115000
      9 N9         -0.2790   -0.2990    0.2630 n1        1 EV3     -0.190000
     10 N10        -2.1110   -0.3850    2.2940 n2        1 EV3     -0.293000
     11 C11         1.0010   -0.5420    0.8940 c2        1 EV3     -0.014000
     12 C12         1.5980    0.7920    1.3740 c3        1 EV3     -0.197000
     13 C13         2.9800    0.5400    1.9940 c3        1 EV3     -0.015000
     14 O14         3.5700    1.7800    2.3500 oh        1 EV3     -0.322000
     15 CL15       -2.9240    0.0290   -4.9540 cl        1 EV3     -0.021000
     16 H2         -0.1990   -0.2990   -4.3060 ha        1 EV3      0.142500
     17 H3         -3.7470   -0.2990   -2.2610 ha        1 EV3      0.163000
     18 H4          0.9830   -0.2990   -2.2560 ha        1 EV3      0.142500
     19 HN10       -2.2470   -1.1960    2.6880 hn        1 EV3      0.201000
     20 HN1A       -2.4430    0.3710    2.6810 hn        1 EV3      0.201000
     21 H11         0.8790   -1.1370    1.6580 ha        1 EV3      0.095500
     22 H11A        1.6070   -0.9570    0.2510 ha        1 EV3      0.095500
     23 H12         1.0090    1.1900    2.0420 hc        1 EV3      0.116000
     24 H12A        1.6880    1.3990    0.6150 hc        1 EV3      0.116000
     25 H13         2.8830   -0.0150    2.7910 h1        1 EV3      0.059000
     26 H13A        3.5490    0.0830    1.3460 h1        1 EV3      0.059000
     27 HO14        4.3640    1.6340    2.7200 ho        1 EV3      0.201000
@<TRIPOS>BOND
     1    1    3 1   
     2    1   15 1   
     3    2    4 1   
     4    2   16 1   
     5    3   17 1   
     6    4   18 1   
     7    5    6 1   
     8    7    8 1   
     9    8    9 1   
    10   10   19 1   
    11   10   20 1   
    12   11   12 1   
    13   11   21 1   
    14   11   22 1   
    15   12   13 1   
    16   12   23 1   
    17   12   24 1   
    18   13   14 1   
    19   13   25 1   
    20   13   26 1   
    21   14   27 1   
@<TRIPOS>SUBSTRUCTURE
     1 EV3         1 TEMP              0 ****  ****    0 ROOT
