@<TRIPOS>MOLECULE
EV3
   27    28     1     0     0
SMALL
bcc


@<TRIPOS>ATOM
      1 C1          0.0200    0.0550    0.0160 ca        1 EV3      0.005400
      2 C2          1.4120   -0.1370   -0.0080 ca        1 EV3     -0.122000
      3 C3         -0.6990    0.1660    1.2050 ca        1 EV3     -0.080000
      4 C4          2.1430   -0.2280    1.1720 ca        1 EV3     -0.116000
      5 C5          0.0130    0.0830    2.4050 ca        1 EV3      0.102400
      6 C6          1.4500   -0.1170    2.3780 ca        1 EV3     -0.083200
      7 N7         -0.4410    0.1490    3.7370 nc        1 EV3     -0.608100
      8 C8          0.6780    0.0150    4.5050 cd        1 EV3      0.593700
      9 N9          1.8690   -0.2310    3.7210 na        1 EV3     -0.173300
     10 N10         0.7260    0.1270    5.9050 nh        1 EV3     -0.854800
     11 C11         3.2090   -0.0020    4.1750 c3        1 EV3      0.045300
     12 C12         3.5840    1.4560    4.4410 c3        1 EV3     -0.118400
     13 C13         5.0280    1.5240    4.9080 c3        1 EV3      0.135400
     14 O14         5.3210    2.8940    5.1320 oh        1 EV3     -0.594800
     15 CL15       -0.8150    0.1570   -1.4660 cl        1 EV3     -0.099400
     16 H2          1.9340   -0.2160   -0.9740 ha        1 EV3      0.147000
     17 H3         -1.7890    0.3120    1.2080 ha        1 EV3      0.163000
     18 H4          3.2300   -0.3830    1.1470 ha        1 EV3      0.138000
     19 HN10        1.3770   -0.4970    6.3330 hn        1 EV3      0.405800
     20 HN1A       -0.1810    0.0870    6.3250 hn        1 EV3      0.405800
     21 H11         3.3570   -0.5970    5.1220 h1        1 EV3      0.056200
     22 H11A        3.9030   -0.4220    3.3900 h1        1 EV3      0.056200
     23 H12         2.9160    1.8990    5.2250 hc        1 EV3      0.076700
     24 H12A        3.4630    2.0720    3.5130 hc        1 EV3      0.076700
     25 H13         5.1670    0.9420    5.8590 h1        1 EV3      0.019700
     26 H13A        5.7190    1.1080    4.1250 h1        1 EV3      0.019700
     27 HO14        6.2390    2.9350    5.4230 ho        1 EV3      0.402000
@<TRIPOS>BOND
     1    1    2 ar  
     2    1    3 ar  
     3    1   15 1   
     4    2    4 ar  
     5    2   16 1   
     6    3    5 ar  
     7    3   17 1   
     8    4    6 ar  
     9    4   18 1   
    10    5    6 ar  
    11    5    7 1   
    12    6    9 1   
    13    7    8 2   
    14    8    9 1   
    15    8   10 1   
    16    9   11 1   
    17   10   19 1   
    18   10   20 1   
    19   11   12 1   
    20   11   21 1   
    21   11   22 1   
    22   12   13 1   
    23   12   23 1   
    24   12   24 1   
    25   13   14 1   
    26   13   25 1   
    27   13   26 1   
    28   14   27 1   
@<TRIPOS>SUBSTRUCTURE
     1 EV3         1 TEMP              0 ****  ****    0 ROOT
