@<TRIPOS>MOLECULE
EV3
   27    28     1     0     0
SMALL
bcc


@<TRIPOS>ATOM
      1 C1         -2.8310   -0.4880   -0.0780 ca        1 EV3      0.005400
      2 C2         -2.0350   -1.4330    0.5940 ca        1 EV3     -0.122000
      3 C3         -2.3360    0.7480   -0.4900 ca        1 EV3     -0.080000
      4 C4         -0.7010   -1.1700    0.8820 ca        1 EV3     -0.116000
      5 C5         -0.9950    1.0340   -0.2170 ca        1 EV3      0.102400
      6 C6         -0.1750    0.0590    0.4780 ca        1 EV3     -0.083200
      7 N7         -0.2360    2.1870   -0.5010 nc        1 EV3     -0.608100
      8 C8          1.0110    1.9240   -0.0170 cd        1 EV3      0.593700
      9 N9          1.0890    0.6530    0.6690 na        1 EV3     -0.173300
     10 N10         2.1370    2.7520   -0.1700 nh        1 EV3     -0.854800
     11 C11         2.3000   -0.0750    0.9080 c3        1 EV3      0.045300
     12 C12         3.0160   -0.6060   -0.3340 c3        1 EV3     -0.118400
     13 C13         4.2690   -1.3530    0.0900 c3        1 EV3      0.135400
     14 O14         4.8850   -1.8240   -1.0970 oh        1 EV3     -0.594800
     15 CL15       -4.4590   -0.8730   -0.3990 cl        1 EV3     -0.099400
     16 H2         -2.4740   -2.3960    0.8960 ha        1 EV3      0.147000
     17 H3         -2.9710    1.4790   -1.0120 ha        1 EV3      0.163000
     18 H4         -0.0860   -1.9100    1.4110 ha        1 EV3      0.138000
     19 HN10        1.8980    3.6750   -0.4710 hn        1 EV3      0.405800
     20 HN1A        2.7440    2.7500    0.6240 hn        1 EV3      0.405800
     21 H11         3.0030    0.6040    1.4730 h1        1 EV3      0.056200
     22 H11A        2.0410   -0.9430    1.5810 h1        1 EV3      0.056200
     23 H12         2.3480   -1.2970   -0.9110 hc        1 EV3      0.076700
     24 H12A        3.2960    0.2360   -1.0200 hc        1 EV3      0.076700
     25 H13         4.9710   -0.6700    0.6410 h1        1 EV3      0.019700
     26 H13A        4.0090   -2.2180    0.7570 h1        1 EV3      0.019700
     27 HO14        5.6770   -2.3020   -0.8250 ho        1 EV3      0.402000
@<TRIPOS>BOND
     1    1    2 ar  
     2    1    3 ar  
     3    1   15 1   
     4    2    4 ar  
     5    2   16 1   
     6    3    5 ar  
     7    3   17 1   
     8    4    6 ar  
     9    4   18 1   
    10    5    6 ar  
    11    5    7 1   
    12    6    9 1   
    13    7    8 2   
    14    8    9 1   
    15    8   10 1   
    16    9   11 1   
    17   10   19 1   
    18   10   20 1   
    19   11   12 1   
    20   11   21 1   
    21   11   22 1   
    22   12   13 1   
    23   12   23 1   
    24   12   24 1   
    25   13   14 1   
    26   13   25 1   
    27   13   26 1   
    28   14   27 1   
@<TRIPOS>SUBSTRUCTURE
     1 EV3         1 TEMP              0 ****  ****    0 ROOT
