@<TRIPOS>MOLECULE
EV4
   49    51     1     0     0
SMALL
bcc


@<TRIPOS>ATOM
      1 C1          3.4330    0.7430    1.3300 ca        1 EV4     -0.122000
      2 C2          3.3040   -0.3570    0.4770 ca        1 EV4     -0.072200
      3 C3          4.3740   -0.7390   -0.4280 ca        1 EV4      0.096400
      4 C4          5.5620    0.0020   -0.4480 ca        1 EV4     -0.076000
      5 C5          5.6600    1.0920    0.4120 ca        1 EV4      0.001400
      6 C6          4.6210    1.4610    1.2870 ca        1 EV4     -0.119000
      7 CL7         7.0910    2.0180    0.4130 cl        1 EV4     -0.101400
      8 N8          2.2740   -1.2880    0.2830 na        1 EV4     -0.176300
      9 C9          2.7340   -2.1770   -0.7440 cc        1 EV4      0.593700
     10 N10         3.9910   -1.8630   -1.1790 nd        1 EV4     -0.608100
     11 N11         1.9740   -3.2960   -1.1390 nh        1 EV4     -0.854800
     12 C12         0.9930   -1.2990    0.9180 c3        1 EV4      0.046300
     13 C13        -0.1510   -0.7290    0.0750 c3        1 EV4     -0.102400
     14 C14        -1.4280   -0.7330    0.8880 c3        1 EV4     -0.147400
     15 C15        -2.6240   -0.4020    0.0100 c         1 EV4      0.660100
     16 O16        -2.5260   -0.3980   -1.2340 o         1 EV4     -0.610100
     17 N17        -3.8370   -0.1370    0.6320 n         1 EV4     -0.473800
     18 C18        -3.9340   -0.1030    2.0610 c3        1 EV4      0.081300
     19 C19        -4.9970    0.2490   -0.1580 c3        1 EV4      0.098700
     20 C20        -6.1600   -0.7530   -0.0370 c3        1 EV4     -0.088400
     21 C21        -7.2840   -0.3600   -0.9730 c3        1 EV4     -0.076400
     22 C22        -7.7770    1.0440   -0.6900 c3        1 EV4     -0.079400
     23 C23        -6.6400    2.0430   -0.7520 c3        1 EV4     -0.076400
     24 C24        -5.5110    1.6600    0.1810 c3        1 EV4     -0.088400
     25 H1          2.6260    1.0340    2.0150 ha        1 EV4      0.136000
     26 H4          6.3830   -0.2760   -1.1250 ha        1 EV4      0.163000
     27 H6          4.7510    2.3320    1.9470 ha        1 EV4      0.146000
     28 HN11        1.0240   -3.0630   -1.3480 hn        1 EV4      0.404800
     29 HN1A        2.4130   -3.8080   -1.8790 hn        1 EV4      0.404800
     30 H12         0.7450   -2.3650    1.1960 h1        1 EV4      0.063200
     31 H12A        1.0770   -0.7010    1.8710 h1        1 EV4      0.063200
     32 H13         0.0820    0.3170   -0.2540 hc        1 EV4      0.069200
     33 H13A       -0.2980   -1.3370   -0.8560 hc        1 EV4      0.069200
     34 H14        -1.5970   -1.7460    1.3420 hc        1 EV4      0.065200
     35 H14A       -1.3450    0.0100    1.7250 hc        1 EV4      0.065200
     36 H18        -3.4170    0.8040    2.4790 h1        1 EV4      0.038033
     37 H18A       -5.0110   -0.0710    2.3730 h1        1 EV4      0.038033
     38 H18B       -3.4630   -1.0200    2.5090 h1        1 EV4      0.038033
     39 H19        -4.6710    0.2580   -1.2450 h1        1 EV4      0.094700
     40 H20        -5.8020   -1.7820   -0.2960 hc        1 EV4      0.043950
     41 H20A       -6.5410   -0.7780    1.0160 hc        1 EV4      0.043950
     42 H21        -6.9280   -0.4250   -2.0350 hc        1 EV4      0.044700
     43 H21A       -8.1310   -1.0850   -0.8570 hc        1 EV4      0.044700
     44 H22        -8.5640    1.3240   -1.4370 hc        1 EV4      0.041200
     45 H22A       -8.2490    1.0780    0.3270 hc        1 EV4      0.041200
     46 H23        -6.2520    2.1040   -1.8040 hc        1 EV4      0.044700
     47 H23A       -7.0190    3.0620   -0.4750 hc        1 EV4      0.044700
     48 H24        -5.8720    1.6920    1.2420 hc        1 EV4      0.043950
     49 H24A       -4.6780    2.4030    0.0820 hc        1 EV4      0.043950
@<TRIPOS>BOND
     1    1    2 ar  
     2    1    6 ar  
     3    1   25 1   
     4    2    3 ar  
     5    2    8 1   
     6    3    4 ar  
     7    3   10 1   
     8    4    5 ar  
     9    4   26 1   
    10    5    6 ar  
    11    5    7 1   
    12    6   27 1   
    13    8    9 1   
    14    8   12 1   
    15    9   10 2   
    16    9   11 1   
    17   11   28 1   
    18   11   29 1   
    19   12   13 1   
    20   12   30 1   
    21   12   31 1   
    22   13   14 1   
    23   13   32 1   
    24   13   33 1   
    25   14   15 1   
    26   14   34 1   
    27   14   35 1   
    28   15   16 2   
    29   15   17 1   
    30   17   18 1   
    31   17   19 1   
    32   18   36 1   
    33   18   37 1   
    34   18   38 1   
    35   19   20 1   
    36   19   24 1   
    37   19   39 1   
    38   20   21 1   
    39   20   40 1   
    40   20   41 1   
    41   21   22 1   
    42   21   42 1   
    43   21   43 1   
    44   22   23 1   
    45   22   44 1   
    46   22   45 1   
    47   23   24 1   
    48   23   46 1   
    49   23   47 1   
    50   24   48 1   
    51   24   49 1   
@<TRIPOS>SUBSTRUCTURE
     1 EV4         1 TEMP              0 ****  ****    0 ROOT
