@<TRIPOS>MOLECULE
EV4
   49    44     1     0     0
SMALL
bcc


@<TRIPOS>ATOM
      1 C1         -1.5490   -2.3130    4.6270 c1        1 EV4     -0.120500
      2 C2         -0.1680   -2.1100    4.4160 c1        1 EV4     -0.035000
      3 C3          0.6830   -2.0160    5.4880 c1        1 EV4     -0.035000
      4 C4          0.1790   -2.1210    6.7980 c1        1 EV4     -0.076000
      5 C5         -1.1800   -2.3210    7.0060 c1        1 EV4     -0.077000
      6 C6         -2.0450   -2.4170    5.9180 c1        1 EV4     -0.120500
      7 CL7        -1.9150   -2.4240    8.5920 cl        1 EV4     -0.023000
      8 N8          0.5730   -1.9760    3.2770 n1        1 EV4     -0.191500
      9 C9          1.8740   -1.8000    3.6400 c1        1 EV4      0.115000
     10 N10         1.9410   -1.8250    5.0090 n1        1 EV4     -0.191500
     11 N11         3.2800   -1.8780    3.3830 n2        1 EV4     -0.293000
     12 C12         0.2630   -2.1270    1.8650 c2        1 EV4     -0.013000
     13 C13         0.1980   -0.7390    1.2030 c3        1 EV4     -0.181000
     14 C14         0.0980   -0.9040   -0.3310 c3        1 EV4     -0.176000
     15 C15        -0.0130    0.4750   -0.9860 c2        1 EV4      0.305000
     16 O16         0.0180    1.4710   -0.3030 o         1 EV4     -0.371000
     17 N17        -0.1180    0.5870   -2.4270 n         1 EV4     -0.332000
     18 C18        -0.2680   -0.6050   -3.2350 c3        1 EV4     -0.074000
     19 C19        -0.1770    1.7310   -2.9680 c3        1 EV4      0.023000
     20 C20         0.9330    1.9150   -4.0940 c3        1 EV4     -0.166500
     21 C21         0.8670    3.2730   -4.7820 c3        1 EV4     -0.153000
     22 C22        -0.3400    3.8630   -4.6020 c3        1 EV4     -0.159000
     23 C23        -1.5390    3.2190   -4.6200 c3        1 EV4     -0.153000
     24 C24        -1.4560    1.8710   -3.9420 c3        1 EV4     -0.166500
     25 H1         -2.1530   -2.3800    3.8670 ha        1 EV4      0.141000
     26 H4          0.7830   -2.0540    7.5580 ha        1 EV4      0.163000
     27 H6         -2.9990   -2.5570    6.0640 ha        1 EV4      0.141000
     28 HN11        3.8670   -1.9670    4.0760 hn        1 EV4      0.200000
     29 HN1A        3.5910   -1.8660    2.5150 hn        1 EV4      0.200000
     30 H12        -0.5970   -2.5740    1.7660 ha        1 EV4      0.102500
     31 H12A        0.9610   -2.6620    1.4330 ha        1 EV4      0.102500
     32 H13        -0.5870   -0.2590    1.5310 hc        1 EV4      0.109000
     33 H13A        1.0070   -0.2330    1.4250 hc        1 EV4      0.109000
     34 H14         0.8980   -1.3600   -0.6630 hc        1 EV4      0.104500
     35 H14A       -0.6920   -1.4310   -0.5500 hc        1 EV4      0.104500
     36 H18        -1.0900   -1.0740   -2.9750 h1        1 EV4      0.077333
     37 H18A       -0.3200   -0.3530   -4.1830 h1        1 EV4      0.077333
     38 H18B        0.5030   -1.1940   -3.0940 h1        1 EV4      0.077333
     39 H19        -0.1450    2.4520   -2.3080 h1        1 EV4      0.134000
     40 H20         1.8140    1.8140   -3.6860 hc        1 EV4      0.083000
     41 H20A        0.8170    1.2180   -4.7660 hc        1 EV4      0.083000
     42 H21         1.5630    3.8510   -4.4130 hc        1 EV4      0.081000
     43 H21A        1.0260    3.1530   -5.7440 hc        1 EV4      0.081000
     44 H22        -0.2910    4.3140   -3.7390 hc        1 EV4      0.083500
     45 H22A       -0.4010    4.5670   -5.2890 hc        1 EV4      0.083500
     46 H23        -2.2020    3.7680   -4.1570 hc        1 EV4      0.081000
     47 H23A       -1.8220    3.0920   -5.5510 hc        1 EV4      0.081000
     48 H24        -1.4040    1.1740   -4.6330 hc        1 EV4      0.083000
     49 H24A       -2.2670    1.7330   -3.4160 hc        1 EV4      0.083000
@<TRIPOS>BOND
     1    1    6 1   
     2    1   25 1   
     3    2    3 1   
     4    4    5 1   
     5    4   26 1   
     6    5    7 1   
     7    6   27 1   
     8    8    9 1   
     9    9   10 1   
    10   11   28 1   
    11   11   29 1   
    12   12   13 1   
    13   12   30 1   
    14   12   31 1   
    15   13   14 1   
    16   13   32 1   
    17   13   33 1   
    18   14   15 1   
    19   14   34 1   
    20   14   35 1   
    21   15   16 1   
    22   15   17 1   
    23   17   18 1   
    24   17   19 1   
    25   18   36 1   
    26   18   37 1   
    27   18   38 1   
    28   19   20 1   
    29   19   24 1   
    30   19   39 1   
    31   20   21 1   
    32   20   40 1   
    33   20   41 1   
    34   21   22 1   
    35   21   42 1   
    36   21   43 1   
    37   22   23 1   
    38   22   44 1   
    39   22   45 1   
    40   23   24 1   
    41   23   46 1   
    42   23   47 1   
    43   24   48 1   
    44   24   49 1   
@<TRIPOS>SUBSTRUCTURE
     1 EV4         1 TEMP              0 ****  ****    0 ROOT
