@<TRIPOS>MOLECULE
EV4
   51    53     1     0     0
SMALL
bcc


@<TRIPOS>ATOM
      1 C1          0.2710    1.5030   -0.4490 ca        1 EV4     -0.138000
      2 C2          1.4580    0.7720   -0.3160 ca        1 EV4     -0.050200
      3 C3          2.2440    0.8440    0.9030 ca        1 EV4      0.064400
      4 C4          1.8260    1.6580    1.9710 ca        1 EV4     -0.030000
      5 C5          0.6460    2.3760    1.8080 ca        1 EV4      0.007400
      6 C6         -0.1200    2.2940    0.6210 ca        1 EV4     -0.050000
      7 CL7         0.0980    3.3690    3.0590 cl        1 EV4     -0.004400
      8 N8          2.0890   -0.1630   -1.1670 na        1 EV4     -0.133300
      9 C9          3.2700   -0.5440   -0.4400 cc        1 EV4      0.360700
     10 N10         3.3580    0.0020    0.8000 nd        1 EV4     -0.435100
     11 N11         4.1970   -1.5750   -0.9060 n4        1 EV4     -0.747600
     12 C12         1.9000   -0.2020   -2.5890 c3        1 EV4      0.029300
     13 C13         2.4700    0.9880   -3.3710 c3        1 EV4     -0.117400
     14 C14         1.8650    1.0360   -4.7630 c3        1 EV4     -0.154400
     15 C15         2.5630    2.0780   -5.6000 c         1 EV4      0.536100
     16 O16         3.6170    2.6350   -5.3290 o         1 EV4     -0.401100
     17 N17         1.8860    2.4450   -6.9020 n4        1 EV4     -0.592200
     18 C18         2.8770    2.5650   -8.0010 c3        1 EV4      0.081100
     19 C19         1.0580    3.7130   -6.7160 c3        1 EV4      0.135500
     20 C20         1.9050    4.9880   -6.7070 c3        1 EV4     -0.097900
     21 C21         1.0120    6.1700   -6.3780 c3        1 EV4     -0.078900
     22 C22        -0.1260    6.2930   -7.3680 c3        1 EV4     -0.094400
     23 C23        -0.9260    5.0110   -7.4580 c3        1 EV4     -0.078900
     24 C24        -0.0400    3.8200   -7.7820 c3        1 EV4     -0.097900
     25 H1         -0.3460    1.4370   -1.3560 ha        1 EV4      0.150000
     26 H4          2.4160    1.7100    2.9030 ha        1 EV4      0.196000
     27 H6         -1.0590    2.8730    0.5490 ha        1 EV4      0.180000
     28 HN11        4.5780   -1.3160   -1.8220 hn        1 EV4      0.482467
     29 HN1A        3.7050   -2.4770   -0.9690 hn        1 EV4      0.482467
     30 H12         2.3470   -1.1570   -2.9870 h1        1 EV4      0.078200
     31 H12A        0.7810   -0.2490   -2.7550 h1        1 EV4      0.078200
     32 H13         3.5870    0.9080   -3.4440 hc        1 EV4      0.084700
     33 H13A        2.2440    1.9500   -2.8350 hc        1 EV4      0.084700
     34 H14         1.9800    0.0400   -5.2750 hc        1 EV4      0.102200
     35 H14A        0.7660    1.2650   -4.6950 hc        1 EV4      0.102200
     36 H18         3.6920    3.2810   -7.7010 hx        1 EV4      0.113367
     37 H18A        2.3630    2.9480   -8.9230 hx        1 EV4      0.113367
     38 H18B        3.3250    1.5560   -8.2070 hx        1 EV4      0.113367
     39 H19         0.5640    3.5950   -5.7040 hx        1 EV4      0.085700
     40 H20         2.3730    5.1490   -7.7140 hc        1 EV4      0.068450
     41 H20A        2.7280    4.9070   -5.9480 hc        1 EV4      0.068450
     42 H21         1.6340    7.1050   -6.3990 hc        1 EV4      0.070700
     43 H21A        0.6050    6.0620   -5.3380 hc        1 EV4      0.070700
     44 H22         0.2800    6.5570   -8.3800 hc        1 EV4      0.074700
     45 H22A       -0.8040    7.1320   -7.0540 hc        1 EV4      0.074700
     46 H23        -1.7030    5.1070   -8.2640 hc        1 EV4      0.070700
     47 H23A       -1.4660    4.8290   -6.4920 hc        1 EV4      0.070700
     48 H24         0.4150    3.9630   -8.7970 hc        1 EV4      0.068450
     49 H24A       -0.6650    2.8890   -7.8050 hc        1 EV4      0.068450
     50 H113        4.9720   -1.6600   -0.2250 hn        1 EV4      0.482467
     51 H171        1.2270    1.6940   -7.1460 hn        1 EV4      0.449800
@<TRIPOS>BOND
     1    1    2 ar  
     2    1    6 ar  
     3    1   25 1   
     4    2    3 ar  
     5    2    8 1   
     6    3    4 ar  
     7    3   10 1   
     8    4    5 ar  
     9    4   26 1   
    10    5    6 ar  
    11    5    7 1   
    12    6   27 1   
    13    8    9 1   
    14    8   12 1   
    15    9   10 2   
    16    9   11 1   
    17   11   28 1   
    18   11   29 1   
    19   11   50 1   
    20   12   13 1   
    21   12   30 1   
    22   12   31 1   
    23   13   14 1   
    24   13   32 1   
    25   13   33 1   
    26   14   15 1   
    27   14   34 1   
    28   14   35 1   
    29   15   16 2   
    30   15   17 1   
    31   17   18 1   
    32   17   19 1   
    33   17   51 1   
    34   18   36 1   
    35   18   37 1   
    36   18   38 1   
    37   19   20 1   
    38   19   24 1   
    39   19   39 1   
    40   20   21 1   
    41   20   40 1   
    42   20   41 1   
    43   21   22 1   
    44   21   42 1   
    45   21   43 1   
    46   22   23 1   
    47   22   44 1   
    48   22   45 1   
    49   23   24 1   
    50   23   46 1   
    51   23   47 1   
    52   24   48 1   
    53   24   49 1   
@<TRIPOS>SUBSTRUCTURE
     1 EV4         1 TEMP              0 ****  ****    0 ROOT
