@<TRIPOS>MOLECULE
EV4
   50    52     1     0     0
SMALL
bcc


@<TRIPOS>ATOM
      1 C1         -0.0580    0.0470   -0.9600 ca        1 EV4     -0.120000
      2 C2          1.1470    0.7460   -0.9010 ca        1 EV4     -0.111200
      3 C3          1.2910    1.9220   -0.0690 ca        1 EV4      0.100400
      4 C4          0.2080    2.3820    0.6850 ca        1 EV4     -0.073000
      5 C5         -0.9930    1.6750    0.5920 ca        1 EV4      0.010400
      6 C6         -1.1260    0.5280   -0.2080 ca        1 EV4     -0.116000
      7 CL7        -2.3350    2.2120    1.4820 cl        1 EV4     -0.067400
      8 N8          2.4220    0.4750   -1.4660 na        1 EV4     -0.159300
      9 C9          3.2530    1.5930   -1.0180 cc        1 EV4      0.568700
     10 N10         2.6110    2.4190   -0.1570 nd        1 EV4     -0.580100
     11 N11         4.5700    1.7490   -1.4940 nh        1 EV4     -0.857800
     12 C12         2.5600   -0.0860   -2.7770 c3        1 EV4      0.043300
     13 C13         2.3100    0.8980   -3.9330 c3        1 EV4     -0.132400
     14 C14         2.3520    0.1620   -5.2530 c3        1 EV4     -0.157400
     15 C15         2.3100    1.0910   -6.4340 c         1 EV4      0.546100
     16 O16         3.1320    1.1680   -7.3320 o         1 EV4     -0.405100
     17 N17         1.1010    2.0100   -6.5190 n4        1 EV4     -0.597200
     18 C18         0.4910    1.9490   -7.8680 c3        1 EV4      0.082100
     19 C19         1.4860    3.4220   -6.1060 c3        1 EV4      0.129500
     20 C20         2.2150    4.1960   -7.2070 c3        1 EV4     -0.096900
     21 C21         2.6740    5.5310   -6.6510 c3        1 EV4     -0.079900
     22 C22         1.5090    6.3360   -6.1150 c3        1 EV4     -0.091400
     23 C23         0.7240    5.5550   -5.0830 c3        1 EV4     -0.079900
     24 C24         0.2640    4.2150   -5.6260 c3        1 EV4     -0.096900
     25 H1         -0.1640   -0.8670   -1.5590 ha        1 EV4      0.138000
     26 H4          0.3090    3.2650    1.3350 ha        1 EV4      0.175000
     27 H6         -2.0890   -0.0080   -0.2340 ha        1 EV4      0.157000
     28 HN11        5.0750    0.8850   -1.5130 hn        1 EV4      0.410300
     29 HN1A        5.0700    2.4560   -0.9860 hn        1 EV4      0.410300
     30 H12         3.6050   -0.4990   -2.8740 h1        1 EV4      0.073700
     31 H12A        1.8310   -0.9440   -2.8600 h1        1 EV4      0.073700
     32 H13         3.1000    1.6960   -3.9080 hc        1 EV4      0.067700
     33 H13A        1.3140    1.3930   -3.7880 hc        1 EV4      0.067700
     34 H14         3.3100   -0.4290   -5.3350 hc        1 EV4      0.113700
     35 H14A        1.4980   -0.5670   -5.3300 hc        1 EV4      0.113700
     36 H18         1.2750    2.1620   -8.6460 hx        1 EV4      0.107033
     37 H18A       -0.3290    2.7130   -7.9430 hx        1 EV4      0.107033
     38 H18B        0.0700    0.9220   -8.0370 hx        1 EV4      0.107033
     39 H19         2.1910    3.2900   -5.2270 hx        1 EV4      0.099700
     40 H20         1.5260    4.3740   -8.0750 hc        1 EV4      0.065700
     41 H20A        3.0990    3.6130   -7.5760 hc        1 EV4      0.065700
     42 H21         3.4290    5.3640   -5.8380 hc        1 EV4      0.068450
     43 H21A        3.1850    6.1040   -7.4700 hc        1 EV4      0.068450
     44 H22         0.8330    6.6290   -6.9610 hc        1 EV4      0.066700
     45 H22A        1.8930    7.2830   -5.6510 hc        1 EV4      0.066700
     46 H23         1.3540    5.3950   -4.1680 hc        1 EV4      0.068450
     47 H23A       -0.1790    6.1440   -4.7690 hc        1 EV4      0.068450
     48 H24        -0.4490    4.3810   -6.4760 hc        1 EV4      0.065700
     49 H24A       -0.2780    3.6560   -4.8180 hc        1 EV4      0.065700
     50 H171        0.4070    1.6810   -5.8360 hn        1 EV4      0.448800
@<TRIPOS>BOND
     1    1    2 ar  
     2    1    6 ar  
     3    1   25 1   
     4    2    3 ar  
     5    2    8 1   
     6    3    4 ar  
     7    3   10 1   
     8    4    5 ar  
     9    4   26 1   
    10    5    6 ar  
    11    5    7 1   
    12    6   27 1   
    13    8    9 1   
    14    8   12 1   
    15    9   10 2   
    16    9   11 1   
    17   11   28 1   
    18   11   29 1   
    19   12   13 1   
    20   12   30 1   
    21   12   31 1   
    22   13   14 1   
    23   13   32 1   
    24   13   33 1   
    25   14   15 1   
    26   14   34 1   
    27   14   35 1   
    28   15   16 2   
    29   15   17 1   
    30   17   18 1   
    31   17   19 1   
    32   17   50 1   
    33   18   36 1   
    34   18   37 1   
    35   18   38 1   
    36   19   20 1   
    37   19   24 1   
    38   19   39 1   
    39   20   21 1   
    40   20   40 1   
    41   20   41 1   
    42   21   22 1   
    43   21   42 1   
    44   21   43 1   
    45   22   23 1   
    46   22   44 1   
    47   22   45 1   
    48   23   24 1   
    49   23   46 1   
    50   23   47 1   
    51   24   48 1   
    52   24   49 1   
@<TRIPOS>SUBSTRUCTURE
     1 EV4         1 TEMP              0 ****  ****    0 ROOT
