@<TRIPOS>MOLECULE
EV4
   50    52     1     0     0
SMALL
bcc


@<TRIPOS>ATOM
      1 C1         -0.1140   -0.0230   -1.0400 ca        1 EV4     -0.120000
      2 C2          1.0830    0.6830   -0.9400 ca        1 EV4     -0.111200
      3 C3          1.1970    1.8460   -0.0840 ca        1 EV4      0.100400
      4 C4          0.0940    2.2840    0.6510 ca        1 EV4     -0.073000
      5 C5         -1.0990    1.5700    0.5170 ca        1 EV4      0.010400
      6 C6         -1.2040    0.4360   -0.3060 ca        1 EV4     -0.116000
      7 Cl7        -2.4670    2.0810    1.3840 cl        1 EV4     -0.067400
      8 N8          2.3740    0.4330   -1.4780 na        1 EV4     -0.159300
      9 C9          3.1840    1.5490   -0.9910 cc        1 EV4      0.568700
     10 N10         2.5150    2.3550   -0.1320 nd        1 EV4     -0.580100
     11 N11         4.5110    1.7240   -1.4320 nv        1 EV4     -0.857800
     12 C12         2.5470   -0.1040   -2.7960 c3        1 EV4      0.043300
     13 C13         2.3180    0.8980   -3.9400 c3        1 EV4     -0.132400
     14 C14         2.3960    0.1850   -5.2700 c3        1 EV4     -0.157400
     15 C15         2.3760    1.1340   -6.4360 c         1 EV4      0.546100
     16 O16         3.2200    1.2330   -7.3130 o         1 EV4     -0.405100
     17 N17         1.1630    2.0460   -6.5350 nx        1 EV4     -0.597200
     18 C18         0.5860    2.0040   -7.8990 c3        1 EV4      0.082100
     19 C19         1.5270    3.4530   -6.0890 c3        1 EV4      0.129500
     20 C20         2.2760    4.2520   -7.1590 c3        1 EV4     -0.096900
     21 C21         2.7120    5.5800   -6.5690 c3        1 EV4     -0.079900
     22 C22         1.5290    6.3670   -6.0480 c3        1 EV4     -0.091400
     23 C23         0.7250    5.5630   -5.0480 c3        1 EV4     -0.079900
     24 C24         0.2880    4.2290   -5.6250 c3        1 EV4     -0.096900
     25 H1         -0.1990   -0.9280   -1.6570 ha        1 EV4      0.138000
     26 H4          0.1710    3.1560    1.3200 ha        1 EV4      0.175000
     27 H6         -2.1610   -0.1070   -0.3640 ha        1 EV4      0.157000
     28 HN11        4.9930    2.4260   -0.9010 hn        1 EV4      0.410300
     29 HN1A        5.0240    0.8640   -1.4540 hn        1 EV4      0.410300
     30 H12         1.8280   -0.9660   -2.9100 h1        1 EV4      0.073700
     31 H12A        3.5980   -0.5070   -2.8740 h1        1 EV4      0.073700
     32 H13         1.3150    1.3840   -3.8090 hc        1 EV4      0.067700
     33 H13A        3.1010    1.7010   -3.8820 hc        1 EV4      0.067700
     34 H14         3.3600   -0.3980   -5.3400 hc        1 EV4      0.113700
     35 H14A        1.5500   -0.5480   -5.3800 hc        1 EV4      0.113700
     36 H18        -0.2370    2.7630   -7.9800 hx        1 EV4      0.107033
     37 H18A        1.3870    2.2360   -8.6540 hx        1 EV4      0.107033
     38 H18B        0.1760    0.9770   -8.0960 hx        1 EV4      0.107033
     39 H19         2.2120    3.3110   -5.1950 hx        1 EV4      0.099700
     40 H20         1.6080    4.4400   -8.0390 hc        1 EV4      0.065700
     41 H20A        3.1740    3.6810   -7.5150 hc        1 EV4      0.065700
     42 H21         3.4480    5.4040   -5.7400 hc        1 EV4      0.068450
     43 H21A        3.2390    6.1700   -7.3650 hc        1 EV4      0.068450
     44 H22         1.8940    7.3090   -5.5580 hc        1 EV4      0.066700
     45 H22A        0.8710    6.6700   -6.9050 hc        1 EV4      0.066700
     46 H23         1.3330    5.3920   -4.1210 hc        1 EV4      0.068450
     47 H23A       -0.1900    6.1400   -4.7470 hc        1 EV4      0.068450
     48 H24        -0.4060    4.4050   -6.4890 hc        1 EV4      0.065700
     49 H24A       -0.2690    3.6530   -4.8400 hc        1 EV4      0.065700
     50 H171        0.4550    1.7010   -5.8740 hn        1 EV4      0.448800
@<TRIPOS>BOND
     1    1    2 ar  
     2    1    6 ar  
     3    1   25 1   
     4    2    3 ar  
     5    2    8 1   
     6    3    4 ar  
     7    3   10 1   
     8    4    5 ar  
     9    4   26 1   
    10    5    6 ar  
    11    5    7 1   
    12    6   27 1   
    13    8    9 1   
    14    8   12 1   
    15    9   10 2   
    16    9   11 1   
    17   11   28 1   
    18   11   29 1   
    19   12   13 1   
    20   12   30 1   
    21   12   31 1   
    22   13   14 1   
    23   13   32 1   
    24   13   33 1   
    25   14   15 1   
    26   14   34 1   
    27   14   35 1   
    28   15   16 2   
    29   15   17 1   
    30   17   18 1   
    31   17   19 1   
    32   17   50 1   
    33   18   36 1   
    34   18   37 1   
    35   18   38 1   
    36   19   20 1   
    37   19   24 1   
    38   19   39 1   
    39   20   21 1   
    40   20   40 1   
    41   20   41 1   
    42   21   22 1   
    43   21   42 1   
    44   21   43 1   
    45   22   23 1   
    46   22   44 1   
    47   22   45 1   
    48   23   24 1   
    49   23   46 1   
    50   23   47 1   
    51   24   48 1   
    52   24   49 1   
@<TRIPOS>SUBSTRUCTURE
     1 EV4         1 TEMP              0 ****  ****    0 ROOT
