@<TRIPOS>MOLECULE
EV5
   52    54     1     0     0
SMALL
bcc


@<TRIPOS>ATOM
      1 C1          1.8070    0.1800    0.1270 ca        1 EV5     -0.068200
      2 C2          2.3990   -0.4810    1.2090 ca        1 EV5     -0.117000
      3 C3          2.9890   -1.7140    0.9720 ca        1 EV5     -0.116000
      4 C4          2.9930   -2.2840   -0.3160 ca        1 EV5      0.001400
      5 C5          2.4110   -1.6550   -1.4110 ca        1 EV5     -0.076000
      6 C6          1.8080   -0.4080   -1.2000 ca        1 EV5      0.090400
      7 N7          1.1590    0.4490   -2.1030 nc        1 EV5     -0.605100
      8 C8          0.7570    1.5240   -1.3610 cd        1 EV5      0.573700
      9 N9          1.1320    1.4080    0.0180 na        1 EV5     -0.173300
     10 N10        -0.0350    2.5910   -1.8410 nh        1 EV5     -0.856800
     11 CL11        3.7390   -3.8010   -0.5320 cl        1 EV5     -0.098400
     12 C12         0.9400    2.3450    1.0960 c3        1 EV5      0.066000
     13 C13         1.7220    3.6630    0.9410 c3        1 EV5     -0.093400
     14 C14         3.2110    3.4540    0.8830 c3        1 EV5     -0.099100
     15 C15        -0.5320    2.6910    1.3720 c3        1 EV5     -0.172400
     16 C16        -1.3330    1.4520    1.7380 c         1 EV5      0.659100
     17 N17        -1.8440    0.6960    0.7100 n         1 EV5     -0.557900
     18 O18        -1.5020    1.1460    2.9370 o         1 EV5     -0.620100
     19 C19        -2.6390   -0.4800    0.9250 c3        1 EV5      0.089000
     20 C20        -4.0740   -0.3890    0.3800 c3        1 EV5     -0.084700
     21 C21        -4.8540   -1.6040    0.8660 c3        1 EV5     -0.074400
     22 C22        -6.2680   -1.6020    0.3250 c3        1 EV5     -0.075400
     23 C23        -6.2790   -1.5280   -1.1880 c3        1 EV5     -0.077400
     24 C24        -5.5010   -0.3260   -1.6810 c3        1 EV5     -0.075400
     25 C25        -4.0850   -0.3230   -1.1390 c3        1 EV5     -0.074400
     26 H2          2.3950   -0.0480    2.2190 ha        1 EV5      0.144000
     27 H3          3.4600   -2.2570    1.8060 ha        1 EV5      0.149000
     28 H5          2.4170   -2.1110   -2.4120 ha        1 EV5      0.163000
     29 HN10       -0.1790    2.5270   -2.8300 hn        1 EV5      0.399800
     30 HN1A        0.3310    3.4840   -1.5780 hn        1 EV5      0.399800
     31 H12         1.3380    1.8310    2.0290 h1        1 EV5      0.086700
     32 H13         1.3790    4.2210    0.0330 hc        1 EV5      0.047700
     33 H13A        1.4720    4.3010    1.8310 hc        1 EV5      0.047700
     34 H14         3.5630    2.8720    1.7690 hc        1 EV5      0.043367
     35 H14A        3.5090    2.9000   -0.0400 hc        1 EV5      0.043367
     36 H14B        3.7340    4.4410    0.8800 hc        1 EV5      0.043367
     37 H15        -0.5610    3.3750    2.2630 hc        1 EV5      0.080200
     38 H15A       -0.9950    3.2340    0.5100 hc        1 EV5      0.080200
     39 HN17       -1.6990    0.9860   -0.2280 hn        1 EV5      0.322500
     40 H19        -2.1240   -1.3530    0.4290 h1        1 EV5      0.062700
     41 H19A       -2.6880   -0.6850    2.0340 h1        1 EV5      0.062700
     42 H20        -4.5700    0.5370    0.7850 hc        1 EV5      0.056700
     43 H21        -4.3280   -2.5390    0.5390 hc        1 EV5      0.041450
     44 H21A       -4.8810   -1.6050    1.9870 hc        1 EV5      0.041450
     45 H22        -6.7960   -2.5320    0.6600 hc        1 EV5      0.039450
     46 H22A       -6.8280   -0.7260    0.7460 hc        1 EV5      0.039450
     47 H23        -5.8290   -2.4640   -1.6110 hc        1 EV5      0.039700
     48 H23A       -7.3370   -1.4670   -1.5540 hc        1 EV5      0.039700
     49 H24        -5.4710   -0.3310   -2.8010 hc        1 EV5      0.039450
     50 H24A       -6.0240    0.6140   -1.3620 hc        1 EV5      0.039450
     51 H25        -3.5640    0.6080   -1.4860 hc        1 EV5      0.041450
     52 H25A       -3.5230   -1.1990   -1.5550 hc        1 EV5      0.041450
@<TRIPOS>BOND
     1    1    2 ar  
     2    1    6 ar  
     3    1    9 1   
     4    2    3 ar  
     5    2   26 1   
     6    3    4 ar  
     7    3   27 1   
     8    4    5 ar  
     9    4   11 1   
    10    5    6 ar  
    11    5   28 1   
    12    6    7 1   
    13    7    8 2   
    14    8    9 1   
    15    8   10 1   
    16    9   12 1   
    17   10   29 1   
    18   10   30 1   
    19   12   13 1   
    20   12   15 1   
    21   12   31 1   
    22   13   14 1   
    23   13   32 1   
    24   13   33 1   
    25   14   34 1   
    26   14   35 1   
    27   14   36 1   
    28   15   16 1   
    29   15   37 1   
    30   15   38 1   
    31   16   17 1   
    32   16   18 2   
    33   17   19 1   
    34   17   39 1   
    35   19   20 1   
    36   19   40 1   
    37   19   41 1   
    38   20   21 1   
    39   20   25 1   
    40   20   42 1   
    41   21   22 1   
    42   21   43 1   
    43   21   44 1   
    44   22   23 1   
    45   22   45 1   
    46   22   46 1   
    47   23   24 1   
    48   23   47 1   
    49   23   48 1   
    50   24   25 1   
    51   24   49 1   
    52   24   50 1   
    53   25   51 1   
    54   25   52 1   
@<TRIPOS>SUBSTRUCTURE
     1 EV5         1 TEMP              0 ****  ****    0 ROOT
