@<TRIPOS>MOLECULE
EV5
   52    47     1     0     0
SMALL
bcc


@<TRIPOS>ATOM
      1 C1         -1.6620   -3.1530    2.8540 c1        1 EV5     -0.037500
      2 C2         -1.1890   -2.9560    4.1710 c1        1 EV5     -0.117000
      3 C3         -1.7510   -3.6670    5.2260 c1        1 EV5     -0.117000
      4 C4         -2.7800   -4.5710    4.9850 c1        1 EV5     -0.075000
      5 C5         -3.2460   -4.7650    3.6900 c1        1 EV5     -0.079000
      6 C6         -2.6740   -4.0430    2.6170 c1        1 EV5     -0.037500
      7 N7         -2.9920   -3.9750    1.2950 n1        1 EV5     -0.191000
      8 C8         -2.1800   -3.0460    0.7120 c1        1 EV5      0.104000
      9 N9         -1.3590   -2.5380    1.6760 n1        1 EV5     -0.191000
     10 N10        -2.7930   -3.5200   -0.4930 n2        1 EV5     -0.293000
     11 CL11       -3.5070   -5.5350    6.2490 cl        1 EV5     -0.023000
     12 C12        -0.3540   -1.6040    1.2930 c2        1 EV5      0.043000
     13 C13         0.6730   -2.2960    0.4180 c3        1 EV5     -0.170000
     14 C14         2.0500   -2.2250    1.0920 c3        1 EV5     -0.220000
     15 C15        -0.9930   -0.4600    0.5170 c3        1 EV5     -0.204000
     16 C16        -0.0680    0.7650    0.5570 c2        1 EV5      0.302000
     17 N17        -0.0890    1.7200   -0.5230 n         1 EV5     -0.371000
     18 O18         0.6940    0.9240    1.4960 o         1 EV5     -0.379000
     19 C19         0.9310    2.7360   -0.6050 c3        1 EV5     -0.030000
     20 C20         0.9230    3.2850   -1.8350 c3        1 EV5     -0.125000
     21 C21         1.8830    2.5060   -2.8420 c3        1 EV5     -0.153000
     22 C22         1.9150    3.1250   -4.2410 c3        1 EV5     -0.153500
     23 C23         1.4730    4.4080   -4.2280 c3        1 EV5     -0.155000
     24 C24         1.7410    5.3240   -3.2530 c3        1 EV5     -0.153500
     25 C25         1.7140    4.6940   -1.8730 c3        1 EV5     -0.153000
     26 H2         -0.4650   -2.3190    4.3410 ha        1 EV5      0.148000
     27 H3         -1.4220   -3.5300    6.1420 ha        1 EV5      0.148000
     28 H5         -3.9710   -5.4030    3.5200 ha        1 EV5      0.162000
     29 HN10       -2.3000   -3.9920   -1.1010 hn        1 EV5      0.196500
     30 HN1A       -3.6900   -3.3830   -0.6360 hn        1 EV5      0.196500
     31 H12         0.0860   -1.2500    2.0950 ha        1 EV5      0.145000
     32 H13         0.4170   -3.2370    0.2950 hc        1 EV5      0.085000
     33 H13A        0.7120   -1.8500   -0.4570 hc        1 EV5      0.085000
     34 H14         2.1480   -1.3590    1.5440 hc        1 EV5      0.084667
     35 H14A        2.1300   -2.9500    1.7510 hc        1 EV5      0.084667
     36 H14B        2.7540   -2.3210    0.4100 hc        1 EV5      0.084667
     37 H15        -1.1340   -0.7340   -0.4160 hc        1 EV5      0.120500
     38 H15A       -1.8590   -0.2300    0.9260 hc        1 EV5      0.120500
     39 HN17       -0.7930    1.7280   -1.1130 hn        1 EV5      0.220000
     40 H19         0.7540    3.4330    0.0660 h1        1 EV5      0.103500
     41 H19A        1.8110    2.3310   -0.4320 h1        1 EV5      0.103500
     42 H20         0.0110    3.3700   -2.1960 hc        1 EV5      0.084000
     43 H21         1.5740    1.5740   -2.9150 hc        1 EV5      0.083500
     44 H21A        2.7950    2.5090   -2.4740 hc        1 EV5      0.083500
     45 H22         2.8410    3.1070   -4.5790 hc        1 EV5      0.079250
     46 H22A        1.3430    2.5930   -4.8410 hc        1 EV5      0.079250
     47 H23         0.4920    4.3560   -4.2870 hc        1 EV5      0.078000
     48 H23A        1.7870    4.8120   -5.0720 hc        1 EV5      0.078000
     49 H24         1.0690    6.0410   -3.2920 hc        1 EV5      0.079250
     50 H24A        2.6330    5.7110   -3.4120 hc        1 EV5      0.079250
     51 H25         2.6390    4.5450   -1.5760 hc        1 EV5      0.083500
     52 H25A        1.2780    5.3180   -1.2500 hc        1 EV5      0.083500
@<TRIPOS>BOND
     1    1    6 1   
     2    2    3 1   
     3    2   26 1   
     4    3   27 1   
     5    4    5 1   
     6    4   11 1   
     7    5   28 1   
     8    7    8 1   
     9    8    9 1   
    10   10   29 1   
    11   10   30 1   
    12   12   13 1   
    13   12   15 1   
    14   12   31 1   
    15   13   14 1   
    16   13   32 1   
    17   13   33 1   
    18   14   34 1   
    19   14   35 1   
    20   14   36 1   
    21   15   16 1   
    22   15   37 1   
    23   15   38 1   
    24   16   17 1   
    25   16   18 1   
    26   17   19 1   
    27   17   39 1   
    28   19   20 1   
    29   19   40 1   
    30   19   41 1   
    31   20   21 1   
    32   20   25 1   
    33   20   42 1   
    34   21   22 1   
    35   21   43 1   
    36   21   44 1   
    37   22   23 1   
    38   22   45 1   
    39   22   46 1   
    40   23   24 1   
    41   23   47 1   
    42   23   48 1   
    43   24   25 1   
    44   24   49 1   
    45   24   50 1   
    46   25   51 1   
    47   25   52 1   
@<TRIPOS>SUBSTRUCTURE
     1 EV5         1 TEMP              0 ****  ****    0 ROOT
