@<TRIPOS>MOLECULE
EV5
   53    55     1     0     0
SMALL
bcc


@<TRIPOS>ATOM
      1 C1          0.1400    0.0740   -0.0660 ca        1 EV5     -0.092200
      2 C2          1.4270   -0.4650   -0.1100 ca        1 EV5     -0.121000
      3 C3          1.9780   -0.9230    1.0820 ca        1 EV5     -0.093000
      4 C4          1.2680   -0.8480    2.2950 ca        1 EV5      0.010400
      5 C5         -0.0190   -0.3140    2.3660 ca        1 EV5     -0.058000
      6 C6         -0.5940    0.1500    1.1790 ca        1 EV5      0.079400
      7 N7         -1.8620    0.7290    0.9530 nc        1 EV5     -0.541100
      8 C8         -1.9120    0.9990   -0.3710 cd        1 EV5      0.503700
      9 N9         -0.6670    0.6850   -1.0600 na        1 EV5     -0.207300
     10 N10        -2.9570    1.6860   -1.0470 nh        1 EV5     -0.880800
     11 CL11        2.0010   -1.4270    3.7090 cl        1 EV5     -0.048400
     12 C12        -0.5390    0.3690   -2.4630 c3        1 EV5      0.049000
     13 C13        -1.4520   -0.7460   -3.0000 c3        1 EV5     -0.094400
     14 C14        -1.0610   -2.0990   -2.4670 c3        1 EV5     -0.106100
     15 C15        -0.7410    1.6120   -3.3600 c3        1 EV5     -0.169400
     16 C16         0.0090    2.8030   -2.8340 c         1 EV5      0.559100
     17 N17        -0.7100    3.6310   -1.7940 n4        1 EV5     -0.667800
     18 O18         1.1370    3.1510   -3.1450 o         1 EV5     -0.412100
     19 C19        -0.3050    5.0680   -1.7770 c3        1 EV5      0.099800
     20 C20        -0.8970    5.8900   -2.9240 c3        1 EV5     -0.085700
     21 C21        -0.2150    7.2560   -2.9200 c3        1 EV5     -0.078400
     22 C22        -0.7720    8.1380   -4.0180 c3        1 EV5     -0.077900
     23 C23        -2.2750    8.2860   -3.8980 c3        1 EV5     -0.083400
     24 C24        -2.9590    6.9350   -3.8820 c3        1 EV5     -0.077900
     25 C25        -2.4040    6.0470   -2.7850 c3        1 EV5     -0.078400
     26 H2          1.9970   -0.5340   -1.0470 ha        1 EV5      0.147000
     27 H3          2.9920   -1.3580    1.0740 ha        1 EV5      0.167000
     28 H5         -0.5700   -0.2580    3.3180 ha        1 EV5      0.180000
     29 HN10       -3.6650    1.9810   -0.3950 hn        1 EV5      0.405300
     30 HN1A       -3.3670    1.1000   -1.7520 hn        1 EV5      0.405300
     31 H12         0.5340    0.0240   -2.6070 h1        1 EV5      0.098700
     32 H13        -2.5240   -0.5360   -2.7500 hc        1 EV5      0.056700
     33 H13A       -1.3670   -0.7500   -4.1200 hc        1 EV5      0.056700
     34 H14        -1.7460   -2.8800   -2.8800 hc        1 EV5      0.056033
     35 H14A       -0.0160   -2.3570   -2.7650 hc        1 EV5      0.056033
     36 H14B       -1.1270   -2.1300   -1.3520 hc        1 EV5      0.056033
     37 H15        -0.3170    1.3730   -4.3770 hc        1 EV5      0.111200
     38 H15A       -1.8310    1.8370   -3.4910 hc        1 EV5      0.111200
     39 HN17       -0.5110    3.2190   -0.8720 hn        1 EV5      0.474300
     40 H19        -0.6450    5.4980   -0.7900 hx        1 EV5      0.111200
     41 H19A        0.8230    5.1090   -1.8240 hx        1 EV5      0.111200
     42 H20        -0.6670    5.3860   -3.9050 hc        1 EV5      0.066700
     43 H21         0.8890    7.1250   -3.0680 hc        1 EV5      0.046200
     44 H21A       -0.3720    7.7480   -1.9250 hc        1 EV5      0.046200
     45 H22        -0.2880    9.1480   -3.9570 hc        1 EV5      0.056200
     46 H22A       -0.5140    7.7020   -5.0190 hc        1 EV5      0.056200
     47 H23        -2.6610    8.8890   -4.7610 hc        1 EV5      0.058700
     48 H23A       -2.5250    8.8460   -2.9590 hc        1 EV5      0.058700
     49 H24        -2.8220    6.4330   -4.8760 hc        1 EV5      0.056200
     50 H24A       -4.0600    7.0720   -3.7210 hc        1 EV5      0.056200
     51 H25        -2.6430    6.4980   -1.7850 hc        1 EV5      0.046200
     52 H25A       -2.9100    5.0480   -2.8390 hc        1 EV5      0.046200
     53 H172       -1.7240    3.5650   -1.9600 hn        1 EV5      0.474300
@<TRIPOS>BOND
     1    1    2 ar  
     2    1    6 ar  
     3    1    9 1   
     4    2    3 ar  
     5    2   26 1   
     6    3    4 ar  
     7    3   27 1   
     8    4    5 ar  
     9    4   11 1   
    10    5    6 ar  
    11    5   28 1   
    12    6    7 1   
    13    7    8 2   
    14    8    9 1   
    15    8   10 1   
    16    9   12 1   
    17   10   29 1   
    18   10   30 1   
    19   12   13 1   
    20   12   15 1   
    21   12   31 1   
    22   13   14 1   
    23   13   32 1   
    24   13   33 1   
    25   14   34 1   
    26   14   35 1   
    27   14   36 1   
    28   15   16 1   
    29   15   37 1   
    30   15   38 1   
    31   16   17 1   
    32   16   18 2   
    33   17   19 1   
    34   17   39 1   
    35   17   53 1   
    36   19   20 1   
    37   19   40 1   
    38   19   41 1   
    39   20   21 1   
    40   20   25 1   
    41   20   42 1   
    42   21   22 1   
    43   21   43 1   
    44   21   44 1   
    45   22   23 1   
    46   22   45 1   
    47   22   46 1   
    48   23   24 1   
    49   23   47 1   
    50   23   48 1   
    51   24   25 1   
    52   24   49 1   
    53   24   50 1   
    54   25   51 1   
    55   25   52 1   
@<TRIPOS>SUBSTRUCTURE
     1 EV5         1 TEMP              0 ****  ****    0 ROOT
