@<TRIPOS>MOLECULE
EV5
   54    56     1     0     0
SMALL
bcc


@<TRIPOS>ATOM
      1 C1          0.0470    0.2040    0.0250 ca        1 EV5     -0.045200
      2 C2          1.3770    0.5690   -0.2270 ca        1 EV5     -0.152000
      3 C3          2.2270    0.6940    0.8600 ca        1 EV5     -0.045000
      4 C4          1.7830    0.4720    2.1880 ca        1 EV5      0.007400
      5 C5          0.4730    0.1020    2.4680 ca        1 EV5     -0.032000
      6 C6         -0.4090   -0.0430    1.3810 ca        1 EV5      0.066400
      7 N7         -1.7500   -0.4350    1.3640 nc        1 EV5     -0.441100
      8 C8         -2.1050   -0.4290    0.0510 cd        1 EV5      0.371700
      9 N9         -1.0550   -0.0130   -0.8290 na        1 EV5     -0.159300
     10 N10        -3.4340   -0.8580   -0.3800 n4        1 EV5     -0.750600
     11 CL11        2.8850    0.6570    3.4520 cl        1 EV5      0.000600
     12 C12        -0.9950    0.0740   -2.2650 c3        1 EV5      0.049000
     13 C13        -1.7890   -0.9850   -3.0460 c3        1 EV5     -0.102400
     14 C14        -1.4120   -2.3970   -2.6810 c3        1 EV5     -0.120100
     15 C15        -1.4000    1.4810   -2.7990 c3        1 EV5     -0.183400
     16 C16        -0.1920    2.3010   -3.1570 c         1 EV5      0.544100
     17 N17        -0.4520    3.6800   -3.7070 n4        1 EV5     -0.678800
     18 O18         0.9830    1.9780   -3.0750 o         1 EV5     -0.398100
     19 C19        -0.4620    4.7170   -2.6210 c3        1 EV5      0.108800
     20 C20        -0.6580    6.1360   -3.1640 c3        1 EV5     -0.092700
     21 C21        -0.4560    7.1060   -2.0020 c3        1 EV5     -0.077400
     22 C22        -0.6570    8.5360   -2.4630 c3        1 EV5     -0.079400
     23 C23        -2.0180    8.7270   -3.0970 c3        1 EV5     -0.086400
     24 C24        -2.2360    7.7520   -4.2350 c3        1 EV5     -0.079400
     25 C25        -2.0360    6.3180   -3.7810 c3        1 EV5     -0.077400
     26 H2          1.7510    0.7330   -1.2490 ha        1 EV5      0.160000
     27 H3          3.2850    0.9660    0.6900 ha        1 EV5      0.184000
     28 H5          0.1270   -0.0820    3.5000 ha        1 EV5      0.198000
     29 HN10       -3.3450   -1.6820   -0.9960 hn        1 EV5      0.483133
     30 HN1A       -3.9110   -0.0990   -0.8760 hn        1 EV5      0.483133
     31 H12         0.1020   -0.1010   -2.5280 h1        1 EV5      0.127700
     32 H13        -2.8920   -0.8150   -2.9480 hc        1 EV5      0.057700
     33 H13A       -1.5470   -0.8330   -4.1360 hc        1 EV5      0.057700
     34 H14        -0.3310   -2.5850   -2.9040 hc        1 EV5      0.067033
     35 H14A       -2.0150   -3.1190   -3.2890 hc        1 EV5      0.067033
     36 H14B       -1.5750   -2.6230   -1.6000 hc        1 EV5      0.067033
     37 H15        -2.0280    1.3540   -3.7250 hc        1 EV5      0.109700
     38 H15A       -2.0120    2.0490   -2.0460 hc        1 EV5      0.109700
     39 HN17       -1.3490    3.7080   -4.2060 hn        1 EV5      0.470300
     40 H19         0.5260    4.6490   -2.0810 hx        1 EV5      0.105200
     41 H19A       -1.2960    4.4600   -1.9090 hx        1 EV5      0.105200
     42 H20         0.1270    6.3570   -3.9430 hc        1 EV5      0.081700
     43 H21         0.5780    6.9880   -1.5860 hc        1 EV5      0.042700
     44 H21A       -1.1880    6.8700   -1.1850 hc        1 EV5      0.042700
     45 H22         0.1460    8.8110   -3.1980 hc        1 EV5      0.066200
     46 H22A       -0.5520    9.2210   -1.5810 hc        1 EV5      0.066200
     47 H23        -2.1040    9.7760   -3.4860 hc        1 EV5      0.065700
     48 H23A       -2.8180    8.5910   -2.3230 hc        1 EV5      0.065700
     49 H24        -3.2780    7.8680   -4.6360 hc        1 EV5      0.066200
     50 H24A       -1.5250    7.9830   -5.0710 hc        1 EV5      0.066200
     51 H25        -2.1630    5.6400   -4.6660 hc        1 EV5      0.042700
     52 H25A       -2.8240    6.0540   -3.0280 hc        1 EV5      0.042700
     53 H103       -3.9870   -1.1180    0.4560 hn        1 EV5      0.483133
     54 H172        0.2970    3.9250   -4.3750 hn        1 EV5      0.470300
@<TRIPOS>BOND
     1    1    2 ar  
     2    1    6 ar  
     3    1    9 1   
     4    2    3 ar  
     5    2   26 1   
     6    3    4 ar  
     7    3   27 1   
     8    4    5 ar  
     9    4   11 1   
    10    5    6 ar  
    11    5   28 1   
    12    6    7 1   
    13    7    8 2   
    14    8    9 1   
    15    8   10 1   
    16    9   12 1   
    17   10   29 1   
    18   10   30 1   
    19   10   53 1   
    20   12   13 1   
    21   12   15 1   
    22   12   31 1   
    23   13   14 1   
    24   13   32 1   
    25   13   33 1   
    26   14   34 1   
    27   14   35 1   
    28   14   36 1   
    29   15   16 1   
    30   15   37 1   
    31   15   38 1   
    32   16   17 1   
    33   16   18 2   
    34   17   19 1   
    35   17   39 1   
    36   17   54 1   
    37   19   20 1   
    38   19   40 1   
    39   19   41 1   
    40   20   21 1   
    41   20   25 1   
    42   20   42 1   
    43   21   22 1   
    44   21   43 1   
    45   21   44 1   
    46   22   23 1   
    47   22   45 1   
    48   22   46 1   
    49   23   24 1   
    50   23   47 1   
    51   23   48 1   
    52   24   25 1   
    53   24   49 1   
    54   24   50 1   
    55   25   51 1   
    56   25   52 1   
@<TRIPOS>SUBSTRUCTURE
     1 EV5         1 TEMP              0 ****  ****    0 ROOT
