@<TRIPOS>MOLECULE
EV5
   53    55     1     0     0
SMALL
bcc


@<TRIPOS>ATOM
      1 C1          0.1340    0.0600   -0.0770 ca        1 EV5     -0.092200
      2 C2          1.4290   -0.4620   -0.0990 ca        1 EV5     -0.121000
      3 C3          1.9590   -0.9290    1.0990 ca        1 EV5     -0.093000
      4 C4          1.2210   -0.8780    2.2960 ca        1 EV5      0.010400
      5 C5         -0.0730   -0.3600    2.3460 ca        1 EV5     -0.058000
      6 C6         -0.6280    0.1120    1.1520 ca        1 EV5      0.079400
      7 N7         -1.8970    0.6780    0.9050 nc        1 EV5     -0.541100
      8 C8         -1.9220    0.9650   -0.4160 cd        1 EV5      0.503700
      9 N9         -0.6590    0.6740   -1.0810 na        1 EV5     -0.207300
     10 N10        -2.9600    1.6470   -1.1060 nv        1 EV5     -0.880800
     11 Cl11        1.9300   -1.4650    3.7190 cl        1 EV5     -0.048400
     12 C12        -0.4960    0.3770   -2.4850 c3        1 EV5      0.049000
     13 C13        -1.3830   -0.7430   -3.0550 c3        1 EV5     -0.094400
     14 C14        -0.9860   -2.0970   -2.5300 c3        1 EV5     -0.106100
     15 C15        -0.6940    1.6290   -3.3710 c3        1 EV5     -0.169400
     16 C16         0.0290    2.8220   -2.8150 c         1 EV5      0.559100
     17 N17        -0.7220    3.6280   -1.7810 ny        1 EV5     -0.667800
     18 O18         1.1600    3.1870   -3.0970 o         1 EV5     -0.412100
     19 C19        -0.3360    5.0690   -1.7370 c3        1 EV5      0.099800
     20 C20        -0.9120    5.8990   -2.8880 c3        1 EV5     -0.085700
     21 C21        -0.2470    7.2720   -2.8520 c3        1 EV5     -0.078400
     22 C22        -0.7920    8.1610   -3.9510 c3        1 EV5     -0.077900
     23 C23        -2.2980    8.2890   -3.8630 c3        1 EV5     -0.083400
     24 C24        -2.9650    6.9300   -3.8780 c3        1 EV5     -0.077900
     25 C25        -2.4230    6.0350   -2.7800 c3        1 EV5     -0.078400
     26 H2          2.0200   -0.5120   -1.0240 ha        1 EV5      0.147000
     27 H3          2.9780   -1.3510    1.1080 ha        1 EV5      0.167000
     28 H5         -0.6460   -0.3230    3.2860 ha        1 EV5      0.180000
     29 HN10       -3.3480    1.0650   -1.8280 hn        1 EV5      0.405300
     30 HN1A       -3.6860    1.9250   -0.4670 hn        1 EV5      0.405300
     31 H12         0.5850    0.0460   -2.6090 h1        1 EV5      0.098700
     32 H13        -2.4620   -0.5490   -2.8260 hc        1 EV5      0.056700
     33 H13A       -1.2730   -0.7310   -4.1730 hc        1 EV5      0.056700
     34 H14         0.0690   -2.3390   -2.8090 hc        1 EV5      0.056033
     35 H14A       -1.0750   -2.1430   -1.4170 hc        1 EV5      0.056033
     36 H14B       -1.6520   -2.8810   -2.9670 hc        1 EV5      0.056033
     37 H15        -1.7840    1.8420   -3.5230 hc        1 EV5      0.111200
     38 H15A       -0.2450    1.4070   -4.3810 hc        1 EV5      0.111200
     39 HN17       -0.5380    3.2080   -0.8590 hn        1 EV5      0.474300
     40 H19        -0.7020    5.4830   -0.7530 hx        1 EV5      0.111200
     41 H19A        0.7920    5.1250   -1.7600 hx        1 EV5      0.111200
     42 H20        -0.6540    5.4090   -3.8690 hc        1 EV5      0.066700
     43 H21         0.8610    7.1570   -2.9780 hc        1 EV5      0.046200
     44 H21A       -0.4330    7.7510   -1.8550 hc        1 EV5      0.046200
     45 H22        -0.3220    9.1760   -3.8670 hc        1 EV5      0.056200
     46 H22A       -0.5070    7.7400   -4.9510 hc        1 EV5      0.056200
     47 H23        -2.5750    8.8340   -2.9220 hc        1 EV5      0.058700
     48 H23A       -2.6730    8.8980   -4.7270 hc        1 EV5      0.058700
     49 H24        -4.0720    7.0520   -3.7400 hc        1 EV5      0.056200
     50 H24A       -2.8010    6.4410   -4.8740 hc        1 EV5      0.056200
     51 H25        -2.9160    5.0310   -2.8570 hc        1 EV5      0.046200
     52 H25A       -2.6900    6.4710   -1.7800 hc        1 EV5      0.046200
     53 H172       -1.7310    3.5520   -1.9700 hn        1 EV5      0.474300
@<TRIPOS>BOND
     1    1    2 ar  
     2    1    6 ar  
     3    1    9 1   
     4    2    3 ar  
     5    2   26 1   
     6    3    4 ar  
     7    3   27 1   
     8    4    5 ar  
     9    4   11 1   
    10    5    6 ar  
    11    5   28 1   
    12    6    7 1   
    13    7    8 2   
    14    8    9 1   
    15    8   10 1   
    16    9   12 1   
    17   10   29 1   
    18   10   30 1   
    19   12   13 1   
    20   12   15 1   
    21   12   31 1   
    22   13   14 1   
    23   13   32 1   
    24   13   33 1   
    25   14   34 1   
    26   14   35 1   
    27   14   36 1   
    28   15   16 1   
    29   15   37 1   
    30   15   38 1   
    31   16   17 1   
    32   16   18 2   
    33   17   19 1   
    34   17   39 1   
    35   17   53 1   
    36   19   20 1   
    37   19   40 1   
    38   19   41 1   
    39   20   21 1   
    40   20   25 1   
    41   20   42 1   
    42   21   22 1   
    43   21   43 1   
    44   21   44 1   
    45   22   23 1   
    46   22   45 1   
    47   22   46 1   
    48   23   24 1   
    49   23   47 1   
    50   23   48 1   
    51   24   25 1   
    52   24   49 1   
    53   24   50 1   
    54   25   51 1   
    55   25   52 1   
@<TRIPOS>SUBSTRUCTURE
     1 EV5         1 TEMP              0 ****  ****    0 ROOT
