@<TRIPOS>MOLECULE
EV6
   57    61     1     0     0
SMALL
bcc


@<TRIPOS>ATOM
      1 C1          2.0670    0.3120   -0.3280 ca        1 EV6     -0.072200
      2 C2          2.1880   -0.8450    0.4510 ca        1 EV6     -0.112000
      3 C3          2.4970   -2.0310   -0.1990 ca        1 EV6     -0.119000
      4 C4          2.6770   -2.0720   -1.5950 ca        1 EV6      0.001400
      5 C5          2.5480   -0.9430   -2.3970 ca        1 EV6     -0.079000
      6 C6          2.2360    0.2700   -1.7680 ca        1 EV6      0.089400
      7 N7          2.0470    1.5520   -2.3100 nc        1 EV6     -0.608100
      8 C8          1.7590    2.3570   -1.2460 cd        1 EV6      0.575700
      9 N9          1.7870    1.6490    0.0010 na        1 EV6     -0.171300
     10 N10         1.3940    3.7210   -1.3250 nh        1 EV6     -0.850800
     11 CL11        3.0610   -3.5650   -2.3230 cl        1 EV6     -0.103400
     12 C12         1.4710    2.1270    1.3230 c3        1 EV6      0.068000
     13 C13         2.2600    3.3670    1.7790 c3        1 EV6     -0.094400
     14 C14         3.7350    3.2850    1.4910 c3        1 EV6     -0.096100
     15 C15        -0.0300    2.4210    1.5180 c3        1 EV6     -0.174400
     16 C16        -0.8010    1.1190    1.6690 c         1 EV6      0.660100
     17 N17        -1.9690    0.9810    0.9550 n         1 EV6     -0.551900
     18 O18        -0.4000    0.2400    2.4620 o         1 EV6     -0.627100
     19 C19        -2.7590   -0.2280    0.9750 c3        1 EV6      0.102700
     20 C20        -4.2530    0.0430    1.2850 c3        1 EV6     -0.074200
     21 C21        -4.9430   -1.3020    1.4960 c3        1 EV6     -0.069900
     22 C22        -4.8520   -2.1360    0.2220 c3        1 EV6     -0.064700
     23 C23        -5.5280   -1.3900   -0.9230 c3        1 EV6     -0.069400
     24 C24        -4.8320   -0.0500   -1.1410 c3        1 EV6     -0.064700
     25 C25        -4.9250    0.7810    0.1340 c3        1 EV6     -0.069900
     26 C26        -2.6830   -1.0380   -0.3450 c3        1 EV6     -0.074200
     27 C27        -3.3660   -0.2910   -1.4840 c3        1 EV6     -0.069900
     28 C28        -3.3850   -2.3740   -0.1220 c3        1 EV6     -0.069900
     29 H2          2.0180   -0.8240    1.5380 ha        1 EV6      0.157000
     30 H3          2.5970   -2.9570    0.3880 ha        1 EV6      0.149000
     31 H5          2.6840   -0.9890   -3.4870 ha        1 EV6      0.161000
     32 HN10        1.4100    4.0480   -2.2720 hn        1 EV6      0.396800
     33 HN1A        1.9660    4.2920   -0.7330 hn        1 EV6      0.396800
     34 H12         1.7450    1.2800    2.0310 h1        1 EV6      0.098700
     35 H13         1.8250    4.2960    1.3310 hc        1 EV6      0.050200
     36 H13A        2.1060    3.4450    2.8910 hc        1 EV6      0.050200
     37 H14         4.1570    2.3190    1.8580 hc        1 EV6      0.041700
     38 H14A        3.9390    3.3630    0.3960 hc        1 EV6      0.041700
     39 H14B        4.2690    4.1220    2.0050 hc        1 EV6      0.041700
     40 H15        -0.1590    2.9870    2.4790 hc        1 EV6      0.079700
     41 H15A       -0.4170    3.0620    0.6860 hc        1 EV6      0.079700
     42 HN17       -2.1890    1.6490    0.2550 hn        1 EV6      0.310500
     43 H19        -2.3460   -0.8820    1.8040 h1        1 EV6      0.089700
     44 H20        -4.3380    0.6540    2.2230 hc        1 EV6      0.060700
     45 H21        -4.4610   -1.8490    2.3450 hc        1 EV6      0.042700
     46 H21A       -6.0180   -1.1310    1.7610 hc        1 EV6      0.042700
     47 H22        -5.3640   -3.1220    0.3830 hc        1 EV6      0.049700
     48 H23        -5.4740   -2.0020   -1.8600 hc        1 EV6      0.041700
     49 H23A       -6.6090   -1.2220   -0.6820 hc        1 EV6      0.041700
     50 H24        -5.3290    0.4990   -1.9840 hc        1 EV6      0.049700
     51 H25        -6.0020    0.9610    0.3870 hc        1 EV6      0.042700
     52 H25A       -4.4470    1.7800   -0.0250 hc        1 EV6      0.042700
     53 H26        -1.6080   -1.2240   -0.6100 hc        1 EV6      0.060700
     54 H27        -3.2950   -0.9000   -2.4220 hc        1 EV6      0.042700
     55 H27A       -2.8530    0.6840   -1.6790 hc        1 EV6      0.042700
     56 H28        -2.8850   -2.9340    0.7080 hc        1 EV6      0.042700
     57 H28A       -3.3100   -2.9940   -1.0510 hc        1 EV6      0.042700
@<TRIPOS>BOND
     1    1    2 ar  
     2    1    6 ar  
     3    1    9 1   
     4    2    3 ar  
     5    2   29 1   
     6    3    4 ar  
     7    3   30 1   
     8    4    5 ar  
     9    4   11 1   
    10    5    6 ar  
    11    5   31 1   
    12    6    7 1   
    13    7    8 2   
    14    8    9 1   
    15    8   10 1   
    16    9   12 1   
    17   10   32 1   
    18   10   33 1   
    19   12   13 1   
    20   12   15 1   
    21   12   34 1   
    22   13   14 1   
    23   13   35 1   
    24   13   36 1   
    25   14   37 1   
    26   14   38 1   
    27   14   39 1   
    28   15   16 1   
    29   15   40 1   
    30   15   41 1   
    31   16   17 1   
    32   16   18 2   
    33   17   19 1   
    34   17   42 1   
    35   19   20 1   
    36   19   26 1   
    37   19   43 1   
    38   20   21 1   
    39   20   25 1   
    40   20   44 1   
    41   21   22 1   
    42   21   45 1   
    43   21   46 1   
    44   22   23 1   
    45   22   28 1   
    46   22   47 1   
    47   23   24 1   
    48   23   48 1   
    49   23   49 1   
    50   24   25 1   
    51   24   27 1   
    52   24   50 1   
    53   25   51 1   
    54   25   52 1   
    55   26   27 1   
    56   26   28 1   
    57   26   53 1   
    58   27   54 1   
    59   27   55 1   
    60   28   56 1   
    61   28   57 1   
@<TRIPOS>SUBSTRUCTURE
     1 EV6         1 TEMP              0 ****  ****    0 ROOT
