@<TRIPOS>MOLECULE
EV6
   58    62     1     0     0
SMALL
bcc


@<TRIPOS>ATOM
      1 C1         -0.2670    0.2220   -0.0100 ca        1 EV6     -0.090200
      2 C2          0.8610   -0.3620    0.5710 ca        1 EV6     -0.121000
      3 C3          0.8690   -0.5200    1.9520 ca        1 EV6     -0.093000
      4 C4         -0.2190   -0.1060    2.7440 ca        1 EV6      0.009400
      5 C5         -1.3560    0.4810    2.1890 ca        1 EV6     -0.060000
      6 C6         -1.3880    0.6470    0.8000 ca        1 EV6      0.080400
      7 N7         -2.3920    1.2000   -0.0230 nc        1 EV6     -0.545100
      8 C8         -1.9160    1.1210   -1.2870 cd        1 EV6      0.507700
      9 N9         -0.5630    0.5880   -1.3480 na        1 EV6     -0.206300
     10 N10        -2.5370    1.6510   -2.4500 nv        1 EV6     -0.879800
     11 Cl11       -0.1410   -0.3300    4.4230 cl        1 EV6     -0.050400
     12 C12         0.0370   -0.0680   -2.4850 c3        1 EV6      0.050000
     13 C13        -0.7480   -1.2440   -3.0890 c3        1 EV6     -0.094400
     14 C14        -0.7710   -2.4370   -2.1680 c3        1 EV6     -0.106100
     15 C15         0.3510    0.9230   -3.6290 c3        1 EV6     -0.170400
     16 C16         1.0030    2.1750   -3.1130 c         1 EV6      0.560100
     17 N17         0.0700    3.2670   -2.6610 ny        1 EV6     -0.665800
     18 O18         2.2040    2.3740   -3.0060 o         1 EV6     -0.417100
     19 C19         0.6370    4.6540   -2.7980 c3        1 EV6      0.120500
     20 C20         0.6750    5.1300   -4.2650 c3        1 EV6     -0.074700
     21 C21         1.4300    6.4600   -4.2880 c3        1 EV6     -0.078650
     22 C22         0.6890    7.4890   -3.4420 c3        1 EV6     -0.069200
     23 C23        -0.7180    7.6900   -3.9960 c3        1 EV6     -0.075400
     24 C24        -1.4730    6.3640   -3.9620 c3        1 EV6     -0.069200
     25 C25        -0.7310    5.3410   -4.8150 c3        1 EV6     -0.078650
     26 C26        -0.1620    5.6720   -1.9540 c3        1 EV6     -0.074700
     27 C27        -1.5610    5.8690   -2.5230 c3        1 EV6     -0.078650
     28 C28         0.6020    6.9950   -2.0020 c3        1 EV6     -0.078650
     29 H2          1.7190   -0.6940   -0.0310 ha        1 EV6      0.147000
     30 H3          1.7450   -0.9840    2.4360 ha        1 EV6      0.166000
     31 H5         -2.2040    0.8030    2.8140 ha        1 EV6      0.179000
     32 HN10       -2.7390    0.9190   -3.1080 hn        1 EV6      0.404800
     33 HN1A       -3.3840    2.1360   -2.2090 hn        1 EV6      0.404800
     34 H12         1.0310   -0.4790   -2.1170 h1        1 EV6      0.097700
     35 H13        -1.7960   -0.9360   -3.3360 hc        1 EV6      0.056200
     36 H13A       -0.2480   -1.5300   -4.0530 hc        1 EV6      0.056200
     37 H14         0.2650   -2.8000   -1.9620 hc        1 EV6      0.056033
     38 H14A       -1.3460   -3.2690   -2.6440 hc        1 EV6      0.056033
     39 H14B       -1.2580   -2.1870   -1.1940 hc        1 EV6      0.056033
     40 H15         1.0870    0.4240   -4.3220 hc        1 EV6      0.109700
     41 H15A       -0.5720    1.1530   -4.2230 hc        1 EV6      0.109700
     42 HN17       -0.8050    3.2100   -3.2000 hn        1 EV6      0.471300
     43 H19         1.6980    4.6030   -2.4030 hx        1 EV6      0.117700
     44 H20         1.2280    4.3800   -4.8930 hc        1 EV6      0.064200
     45 H21         2.4710    6.3180   -3.9000 hc        1 EV6      0.059575
     46 H21A        1.5040    6.8190   -5.3470 hc        1 EV6      0.059575
     47 H22         1.2470    8.4640   -3.4680 hc        1 EV6      0.079700
     48 H23        -1.2630    8.4530   -3.3840 hc        1 EV6      0.062200
     49 H23A       -0.6620    8.0680   -5.0490 hc        1 EV6      0.062200
     50 H24        -2.5090    6.5110   -4.3710 hc        1 EV6      0.079700
     51 H25        -0.6550    5.7170   -5.8700 hc        1 EV6      0.059575
     52 H25A       -1.3020    4.3790   -4.8510 hc        1 EV6      0.059575
     53 H26        -0.2270    5.3240   -0.8870 hc        1 EV6      0.064200
     54 H27        -2.1490    4.9160   -2.4760 hc        1 EV6      0.059575
     55 H27A       -2.1060    6.6260   -1.8990 hc        1 EV6      0.059575
     56 H28         0.0620    7.7490   -1.3710 hc        1 EV6      0.059575
     57 H28A        1.6290    6.8630   -1.5760 hc        1 EV6      0.059575
     58 H172       -0.1600    3.1070   -1.6700 hn        1 EV6      0.471300
@<TRIPOS>BOND
     1    1    2 ar  
     2    1    6 ar  
     3    1    9 1   
     4    2    3 ar  
     5    2   29 1   
     6    3    4 ar  
     7    3   30 1   
     8    4    5 ar  
     9    4   11 1   
    10    5    6 ar  
    11    5   31 1   
    12    6    7 1   
    13    7    8 2   
    14    8    9 1   
    15    8   10 1   
    16    9   12 1   
    17   10   32 1   
    18   10   33 1   
    19   12   13 1   
    20   12   15 1   
    21   12   34 1   
    22   13   14 1   
    23   13   35 1   
    24   13   36 1   
    25   14   37 1   
    26   14   38 1   
    27   14   39 1   
    28   15   16 1   
    29   15   40 1   
    30   15   41 1   
    31   16   17 1   
    32   16   18 2   
    33   17   19 1   
    34   17   42 1   
    35   17   58 1   
    36   19   20 1   
    37   19   26 1   
    38   19   43 1   
    39   20   21 1   
    40   20   25 1   
    41   20   44 1   
    42   21   22 1   
    43   21   45 1   
    44   21   46 1   
    45   22   23 1   
    46   22   28 1   
    47   22   47 1   
    48   23   24 1   
    49   23   48 1   
    50   23   49 1   
    51   24   25 1   
    52   24   27 1   
    53   24   50 1   
    54   25   51 1   
    55   25   52 1   
    56   26   27 1   
    57   26   28 1   
    58   26   53 1   
    59   27   54 1   
    60   27   55 1   
    61   28   56 1   
    62   28   57 1   
@<TRIPOS>SUBSTRUCTURE
     1 EV6         1 TEMP              0 ****  ****    0 ROOT
