@<TRIPOS>MOLECULE
EV6
   58    62     1     0     0
SMALL
bcc


@<TRIPOS>ATOM
      1 C1         -0.2780    0.2220   -0.0120 ca        1 EV6     -0.090200
      2 C2          0.8470   -0.3610    0.5760 ca        1 EV6     -0.121000
      3 C3          0.8490   -0.5190    1.9570 ca        1 EV6     -0.093000
      4 C4         -0.2430   -0.1040    2.7430 ca        1 EV6      0.009400
      5 C5         -1.3780    0.4820    2.1820 ca        1 EV6     -0.060000
      6 C6         -1.4030    0.6480    0.7930 ca        1 EV6      0.080400
      7 N7         -2.4030    1.1990   -0.0350 nc        1 EV6     -0.545100
      8 C8         -1.9210    1.1200   -1.2960 cd        1 EV6      0.507700
      9 N9         -0.5680    0.5880   -1.3510 na        1 EV6     -0.206300
     10 N10        -2.5360    1.6490   -2.4630 nh        1 EV6     -0.879800
     11 CL11       -0.1730   -0.3270    4.4220 cl        1 EV6     -0.050400
     12 C12         0.0380   -0.0680   -2.4840 c3        1 EV6      0.050000
     13 C13        -0.7430   -1.2460   -3.0920 c3        1 EV6     -0.094400
     14 C14        -0.7710   -2.4370   -2.1720 c3        1 EV6     -0.106100
     15 C15         0.3580    0.9220   -3.6280 c3        1 EV6     -0.170400
     16 C16         1.0070    2.1750   -3.1080 c         1 EV6      0.560100
     17 N17         0.0710    3.2670   -2.6620 n4        1 EV6     -0.665800
     18 O18         2.2080    2.3740   -2.9960 o         1 EV6     -0.417100
     19 C19         0.6400    4.6540   -2.7940 c3        1 EV6      0.120500
     20 C20         0.6870    5.1310   -4.2610 c3        1 EV6     -0.074700
     21 C21         1.4430    6.4600   -4.2780 c3        1 EV6     -0.078650
     22 C22         0.6970    7.4890   -3.4350 c3        1 EV6     -0.069200
     23 C23        -0.7060    7.6900   -3.9980 c3        1 EV6     -0.075400
     24 C24        -1.4620    6.3650   -3.9700 c3        1 EV6     -0.069200
     25 C25        -0.7150    5.3420   -4.8190 c3        1 EV6     -0.078650
     26 C26        -0.1640    5.6710   -1.9540 c3        1 EV6     -0.074700
     27 C27        -1.5590    5.8680   -2.5320 c3        1 EV6     -0.078650
     28 C28         0.6000    6.9940   -1.9960 c3        1 EV6     -0.078650
     29 H2          1.7080   -0.6930   -0.0220 ha        1 EV6      0.147000
     30 H3          1.7220   -0.9820    2.4450 ha        1 EV6      0.166000
     31 H5         -2.2290    0.8040    2.8030 ha        1 EV6      0.179000
     32 HN10       -3.3850    2.1350   -2.2260 hn        1 EV6      0.404800
     33 HN1A       -2.7350    0.9180   -3.1220 hn        1 EV6      0.404800
     34 H12         1.0310   -0.4790   -2.1120 h1        1 EV6      0.097700
     35 H13        -1.7900   -0.9370   -3.3450 hc        1 EV6      0.056200
     36 H13A       -0.2390   -1.5310   -4.0540 hc        1 EV6      0.056200
     37 H14        -1.3420   -3.2700   -2.6510 hc        1 EV6      0.056033
     38 H14A        0.2650   -2.8000   -1.9600 hc        1 EV6      0.056033
     39 H14B       -1.2630   -2.1880   -1.2000 hc        1 EV6      0.056033
     40 H15        -0.5620    1.1520   -4.2260 hc        1 EV6      0.109700
     41 H15A        1.0970    0.4230   -4.3170 hc        1 EV6      0.109700
     42 HN17       -0.1640    3.1060   -1.6720 hn        1 EV6      0.471300
     43 H19         1.6990    4.6020   -2.3920 hx        1 EV6      0.117700
     44 H20         1.2430    4.3810   -4.8850 hc        1 EV6      0.064200
     45 H21         2.4810    6.3170   -3.8830 hc        1 EV6      0.059575
     46 H21A        1.5240    6.8190   -5.3360 hc        1 EV6      0.059575
     47 H22         1.2550    8.4630   -3.4570 hc        1 EV6      0.079700
     48 H23        -1.2550    8.4530   -3.3890 hc        1 EV6      0.062200
     49 H23A       -0.6440    8.0690   -5.0510 hc        1 EV6      0.062200
     50 H24        -2.4950    6.5120   -4.3850 hc        1 EV6      0.079700
     51 H25        -0.6330    5.7190   -5.8730 hc        1 EV6      0.059575
     52 H25A       -1.2860    4.3800   -4.8590 hc        1 EV6      0.059575
     53 H26        -0.2350    5.3220   -0.8880 hc        1 EV6      0.064200
     54 H27        -2.1480    4.9160   -2.4890 hc        1 EV6      0.059575
     55 H27A       -2.1080    6.6250   -1.9110 hc        1 EV6      0.059575
     56 H28         1.6250    6.8610   -1.5640 hc        1 EV6      0.059575
     57 H28A        0.0570    7.7470   -1.3690 hc        1 EV6      0.059575
     58 H172       -0.8000    3.2100   -3.2050 hn        1 EV6      0.471300
@<TRIPOS>BOND
     1    1    2 ar  
     2    1    6 ar  
     3    1    9 1   
     4    2    3 ar  
     5    2   29 1   
     6    3    4 ar  
     7    3   30 1   
     8    4    5 ar  
     9    4   11 1   
    10    5    6 ar  
    11    5   31 1   
    12    6    7 1   
    13    7    8 2   
    14    8    9 1   
    15    8   10 1   
    16    9   12 1   
    17   10   32 1   
    18   10   33 1   
    19   12   13 1   
    20   12   15 1   
    21   12   34 1   
    22   13   14 1   
    23   13   35 1   
    24   13   36 1   
    25   14   37 1   
    26   14   38 1   
    27   14   39 1   
    28   15   16 1   
    29   15   40 1   
    30   15   41 1   
    31   16   17 1   
    32   16   18 2   
    33   17   19 1   
    34   17   42 1   
    35   17   58 1   
    36   19   20 1   
    37   19   26 1   
    38   19   43 1   
    39   20   21 1   
    40   20   25 1   
    41   20   44 1   
    42   21   22 1   
    43   21   45 1   
    44   21   46 1   
    45   22   23 1   
    46   22   28 1   
    47   22   47 1   
    48   23   24 1   
    49   23   48 1   
    50   23   49 1   
    51   24   25 1   
    52   24   27 1   
    53   24   50 1   
    54   25   51 1   
    55   25   52 1   
    56   26   27 1   
    57   26   28 1   
    58   26   53 1   
    59   27   54 1   
    60   27   55 1   
    61   28   56 1   
    62   28   57 1   
@<TRIPOS>SUBSTRUCTURE
     1 EV6         1 TEMP              0 ****  ****    0 ROOT
