@<TRIPOS>MOLECULE
EV6
   59    63     1     0     0
SMALL
bcc


@<TRIPOS>ATOM
      1 C1          0.2030    0.2090   -0.1540 ca        1 EV6     -0.044200
      2 C2          1.4970    0.5260   -0.5920 ca        1 EV6     -0.150000
      3 C3          2.4790    0.6880    0.3710 ca        1 EV6     -0.047000
      4 C4          2.2030    0.5510    1.7540 ca        1 EV6      0.006400
      5 C5          0.9330    0.2320    2.2190 ca        1 EV6     -0.033000
      6 C6         -0.0840    0.0510    1.2610 ca        1 EV6      0.066400
      7 N7         -1.4230   -0.3040    1.4350 nc        1 EV6     -0.443100
      8 C8         -1.9420   -0.3590    0.1780 cd        1 EV6      0.371700
      9 N9         -0.9990   -0.0370   -0.8490 na        1 EV6     -0.156300
     10 N10        -3.3210   -0.7790   -0.0590 n4        1 EV6     -0.749600
     11 CL11        3.4610    0.7750    2.8570 cl        1 EV6     -0.001400
     12 C12        -1.1300    0.0320   -2.2820 c3        1 EV6      0.048000
     13 C13        -2.0690   -1.0000   -2.9260 c3        1 EV6     -0.102400
     14 C14        -1.7010   -2.4230   -2.5990 c3        1 EV6     -0.120100
     15 C15        -1.5330    1.4490   -2.7850 c3        1 EV6     -0.186400
     16 C16        -0.3740    2.1470   -3.4460 c         1 EV6      0.543100
     17 N17        -0.6710    3.4550   -4.1220 n4        1 EV6     -0.678800
     18 O18         0.7850    1.7610   -3.5020 o         1 EV6     -0.406100
     19 C19        -0.5550    4.6370   -3.1770 c3        1 EV6      0.133500
     20 C20         0.9150    5.0310   -2.9220 c3        1 EV6     -0.077200
     21 C21         0.9050    6.1060   -1.8340 c3        1 EV6     -0.080150
     22 C22         0.1290    7.3250   -2.3200 c3        1 EV6     -0.071200
     23 C23         0.7820    7.8800   -3.5810 c3        1 EV6     -0.078400
     24 C24         0.7800    6.8100   -4.6690 c3        1 EV6     -0.071200
     25 C25         1.5630    5.5970   -4.1810 c3        1 EV6     -0.080150
     26 C26        -1.3260    5.8580   -3.7240 c3        1 EV6     -0.077200
     27 C27        -0.6570    6.4050   -4.9790 c3        1 EV6     -0.080150
     28 C28        -1.3090    6.9240   -2.6270 c3        1 EV6     -0.080150
     29 H2          1.7390    0.6250   -1.6610 ha        1 EV6      0.161000
     30 H3          3.5130    0.9220    0.0540 ha        1 EV6      0.182000
     31 H5          0.7180    0.1130    3.2940 ha        1 EV6      0.197000
     32 HN10       -3.8490   -0.0250   -0.5110 hn        1 EV6      0.483133
     33 HN1A       -3.3270   -1.6210   -0.6550 hn        1 EV6      0.483133
     34 H12        -0.0860   -0.2040   -2.6810 h1        1 EV6      0.127700
     35 H13        -3.1390   -0.7840   -2.6750 hc        1 EV6      0.056200
     36 H13A       -1.9800   -0.8660   -4.0420 hc        1 EV6      0.056200
     37 H14        -2.4160   -3.1240   -3.1000 hc        1 EV6      0.066700
     38 H14A       -0.6730   -2.6590   -2.9740 hc        1 EV6      0.066700
     39 H14B       -1.7120   -2.6310   -1.5020 hc        1 EV6      0.066700
     40 H15        -2.3720    1.3520   -3.5290 hc        1 EV6      0.108700
     41 H15A       -1.8990    2.1000   -1.9440 hc        1 EV6      0.108700
     42 HN17       -1.6150    3.4430   -4.5190 hn        1 EV6      0.467800
     43 H19        -1.0290    4.3050   -2.2060 hx        1 EV6      0.084700
     44 H20         1.4930    4.1360   -2.5640 hc        1 EV6      0.062200
     45 H21         1.9630    6.3960   -1.6020 hc        1 EV6      0.064950
     46 H21A        0.4460    5.7030   -0.8960 hc        1 EV6      0.064950
     47 H22         0.1320    8.1120   -1.5170 hc        1 EV6      0.093200
     48 H23         0.2220    8.7840   -3.9350 hc        1 EV6      0.072700
     49 H23A        1.8340    8.1950   -3.3600 hc        1 EV6      0.072700
     50 H24         1.2620    7.2180   -5.5990 hc        1 EV6      0.093200
     51 H25         1.6310    4.8240   -4.9890 hc        1 EV6      0.064950
     52 H25A        2.6150    5.9040   -3.9380 hc        1 EV6      0.064950
     53 H26        -2.3910    5.5760   -3.9470 hc        1 EV6      0.062200
     54 H27        -1.2300    7.3020   -5.3350 hc        1 EV6      0.064950
     55 H27A       -0.6790    5.6490   -5.8050 hc        1 EV6      0.064950
     56 H28        -1.8110    6.5370   -1.7040 hc        1 EV6      0.064950
     57 H28A       -1.8870    7.8170   -2.9830 hc        1 EV6      0.064950
     58 H103       -3.7610   -1.0040    0.8510 hn        1 EV6      0.483133
     59 H172        0.0070    3.6020   -4.8890 hn        1 EV6      0.467800
@<TRIPOS>BOND
     1    1    2 ar  
     2    1    6 ar  
     3    1    9 1   
     4    2    3 ar  
     5    2   29 1   
     6    3    4 ar  
     7    3   30 1   
     8    4    5 ar  
     9    4   11 1   
    10    5    6 ar  
    11    5   31 1   
    12    6    7 1   
    13    7    8 2   
    14    8    9 1   
    15    8   10 1   
    16    9   12 1   
    17   10   32 1   
    18   10   33 1   
    19   10   58 1   
    20   12   13 1   
    21   12   15 1   
    22   12   34 1   
    23   13   14 1   
    24   13   35 1   
    25   13   36 1   
    26   14   37 1   
    27   14   38 1   
    28   14   39 1   
    29   15   16 1   
    30   15   40 1   
    31   15   41 1   
    32   16   17 1   
    33   16   18 2   
    34   17   19 1   
    35   17   42 1   
    36   17   59 1   
    37   19   20 1   
    38   19   26 1   
    39   19   43 1   
    40   20   21 1   
    41   20   25 1   
    42   20   44 1   
    43   21   22 1   
    44   21   45 1   
    45   21   46 1   
    46   22   23 1   
    47   22   28 1   
    48   22   47 1   
    49   23   24 1   
    50   23   48 1   
    51   23   49 1   
    52   24   25 1   
    53   24   27 1   
    54   24   50 1   
    55   25   51 1   
    56   25   52 1   
    57   26   27 1   
    58   26   28 1   
    59   26   53 1   
    60   27   54 1   
    61   27   55 1   
    62   28   56 1   
    63   28   57 1   
@<TRIPOS>SUBSTRUCTURE
     1 EV6         1 TEMP              0 ****  ****    0 ROOT
