@<TRIPOS>MOLECULE
EVA
   21    21     1     0     0
SMALL
bcc


@<TRIPOS>ATOM
      1 C           2.3720    0.4950   -0.1470 c         1 EVA      0.914600
      2 N           0.0960    1.3980    0.4060 n         1 EVA     -0.497900
      3 O           2.7560    1.6850   -0.2840 o         1 EVA     -0.820300
      4 CA          0.9490    0.2360    0.4750 c3        1 EVA     -0.094300
      5 CB          0.3600   -1.0540   -0.1380 c3        1 EVA      0.172100
      6 CG         -1.1370   -1.1780    0.1870 c3        1 EVA      0.142100
      7 OG          0.9990   -2.1760    0.4420 oh        1 EVA     -0.623800
      8 CAE        -1.2070    1.3770    0.0230 c         1 EVA      0.657500
      9 OAJ        -3.2040    0.0010    0.1360 oh        1 EVA     -0.619800
     10 OAK        -1.9090    2.4210   -0.0130 o         1 EVA     -0.718500
     11 CD1        -1.8740    0.0550   -0.3540 c3        1 EVA      0.037100
     12 OD2        -1.6340   -2.3380   -0.4610 oh        1 EVA     -0.587800
     13 OXT         3.0440   -0.5340   -0.4340 o         1 EVA     -0.820300
     14 HN          0.5900    2.2700    0.3970 hn        1 EVA      0.345500
     15 HA          1.1310    0.0290    1.5740 h1        1 EVA      0.055700
     16 HB          0.5140   -1.0620   -1.2510 h1        1 EVA      0.056700
     17 HG         -1.2890   -1.2680    1.2970 h1        1 EVA      0.055700
     18 HOG         1.9440   -2.0930    0.2170 ho        1 EVA      0.452000
     19 HOAJ       -3.5490    0.9060    0.1230 ho        1 EVA      0.428000
     20 HD1        -1.9070    0.0070   -1.4820 h1        1 EVA      0.066700
     21 HOD2       -2.5700   -2.3880   -0.2300 ho        1 EVA      0.398000
@<TRIPOS>BOND
     1    1    3 1   
     2    1    4 1   
     3    1   13 1   
     4    2    4 1   
     5    2    8 1   
     6    2   14 1   
     7    4    5 1   
     8    4   15 1   
     9    5    6 1   
    10    5    7 1   
    11    5   16 1   
    12    6   11 1   
    13    6   12 1   
    14    6   17 1   
    15    7   18 1   
    16    8   10 2   
    17    8   11 1   
    18    9   11 1   
    19    9   19 1   
    20   11   20 1   
    21   12   21 1   
@<TRIPOS>SUBSTRUCTURE
     1 EVA         1 TEMP              0 ****  ****    0 ROOT
