@<TRIPOS>MOLECULE
EVA
   21    21     1     0     0
SMALL
bcc


@<TRIPOS>ATOM
      1 C          -0.0880    0.1670    0.1470 c         1 EVA      0.914600
      2 N           2.0400    1.2360   -0.6450 ns        1 EVA     -0.497900
      3 O          -0.7020    0.9020   -0.6680 o         1 EVA     -0.820300
      4 CA          1.4830    0.1100    0.0650 c3        1 EVA     -0.094300
      5 CB          2.0520   -0.1260    1.4820 c3        1 EVA      0.172100
      6 CG          3.5670    0.1290    1.5110 c3        1 EVA      0.142100
      7 OG          1.8570   -1.4820    1.8390 oh        1 EVA     -0.623800
      8 CAE         3.1190    1.9510   -0.2320 c         1 EVA      0.657500
      9 OAJ         5.2490    1.7000    0.9050 oh        1 EVA     -0.619800
     10 OAK         3.5690    2.9220   -0.8940 o         1 EVA     -0.718500
     11 CD1         3.8450    1.5680    1.0570 c3        1 EVA      0.037100
     12 OD2         4.0150   -0.0320    2.8480 oh        1 EVA     -0.587800
     13 OXT        -0.6220   -0.5730    1.0190 o         1 EVA     -0.820300
     14 HN          1.4240    1.6380   -1.3260 hn        1 EVA      0.345500
     15 HA          1.7220   -0.8130   -0.5480 h1        1 EVA      0.055700
     16 HB          1.5350    0.5410    2.2250 h1        1 EVA      0.056700
     17 HG          4.0980   -0.6010    0.8410 h1        1 EVA      0.055700
     18 HOG         0.8940   -1.6270    1.8310 ho        1 EVA      0.452000
     19 HOAJ        5.4020    2.4340    0.2910 ho        1 EVA      0.428000
     20 HD1         3.5030    2.2870    1.8580 h1        1 EVA      0.066700
     21 HOD2        4.9670    0.1280    2.8260 ho        1 EVA      0.398000
@<TRIPOS>BOND
     1    1    3 1   
     2    1    4 1   
     3    1   13 1   
     4    2    4 1   
     5    2    8 1   
     6    2   14 1   
     7    4    5 1   
     8    4   15 1   
     9    5    6 1   
    10    5    7 1   
    11    5   16 1   
    12    6   11 1   
    13    6   12 1   
    14    6   17 1   
    15    7   18 1   
    16    8   10 2   
    17    8   11 1   
    18    9   11 1   
    19    9   19 1   
    20   11   20 1   
    21   12   21 1   
@<TRIPOS>SUBSTRUCTURE
     1 EVA         1 TEMP              0 ****  ****    0 ROOT
