@<TRIPOS>MOLECULE
EVA
   21    21     1     0     0
SMALL
bcc


@<TRIPOS>ATOM
      1 C          -0.0980    0.2080    0.1620 c         1 EVA      0.914600
      2 N           2.0380    1.2600   -0.6330 n         1 EVA     -0.497900
      3 O          -0.7090    0.9610   -0.6380 o         1 EVA     -0.820300
      4 CA          1.4710    0.1320    0.0670 c3        1 EVA     -0.094300
      5 CB          2.0480   -0.1290    1.4760 c3        1 EVA      0.172100
      6 CG          3.5660    0.1060    1.4970 c3        1 EVA      0.142100
      7 OG          1.8390   -1.4860    1.8190 oh        1 EVA     -0.623800
      8 CAE         3.1290    1.9560   -0.2200 c         1 EVA      0.657500
      9 OAJ         5.2640    1.6630    0.8970 oh        1 EVA     -0.619800
     10 OAK         3.5860    2.9290   -0.8740 o         1 EVA     -0.718500
     11 CD1         3.8590    1.5480    1.0580 c3        1 EVA      0.037100
     12 OD2         4.0230   -0.0770    2.8280 oh        1 EVA     -0.587800
     13 OXT        -0.6350   -0.5350    1.0290 o         1 EVA     -0.820300
     14 HN          1.4210    1.6780   -1.3040 hn        1 EVA      0.345500
     15 HA          1.6930   -0.7860   -0.5580 h1        1 EVA      0.055700
     16 HB          1.5460    0.5350    2.2320 h1        1 EVA      0.056700
     17 HG          4.0820   -0.6220    0.8140 h1        1 EVA      0.055700
     18 HOG         0.8730   -1.6190    1.8160 ho        1 EVA      0.452000
     19 HOAJ        5.4210    2.4030    0.2910 ho        1 EVA      0.428000
     20 HD1         3.5340    2.2610    1.8710 h1        1 EVA      0.066700
     21 HOD2        4.9770    0.0710    2.8010 ho        1 EVA      0.398000
@<TRIPOS>BOND
     1    1    3 1   
     2    1    4 1   
     3    1   13 1   
     4    2    4 1   
     5    2    8 1   
     6    2   14 1   
     7    4    5 1   
     8    4   15 1   
     9    5    6 1   
    10    5    7 1   
    11    5   16 1   
    12    6   11 1   
    13    6   12 1   
    14    6   17 1   
    15    7   18 1   
    16    8   10 2   
    17    8   11 1   
    18    9   11 1   
    19    9   19 1   
    20   11   20 1   
    21   12   21 1   
@<TRIPOS>SUBSTRUCTURE
     1 EVA         1 TEMP              0 ****  ****    0 ROOT
