@<TRIPOS>MOLECULE
EVA
   21    20     1     0     0
SMALL
bcc


@<TRIPOS>ATOM
      1 C          -1.8370   -1.0820   -0.9250 c1        1 EVA      0.327000
      2 N           0.2300    0.0890   -1.6970 n         1 EVA     -0.311000
      3 O          -2.4670   -0.1340   -1.4700 o         1 EVA     -0.541000
      4 CA         -0.3170   -1.0820   -0.9250 c3        1 EVA     -0.121000
      5 CB          0.2310   -1.0820    0.4800 c3        1 EVA      0.005000
      6 CG          0.0610    0.2480    1.1930 c3        1 EVA      0.029000
      7 OG          1.6280   -1.3990    0.4270 oh        1 EVA     -0.340000
      8 CAE         0.0780    1.3720   -1.0170 c2        1 EVA      0.257000
      9 OAJ         2.0950    1.4000    0.4990 oh        1 EVA     -0.333000
     10 OAK         0.0550    2.4050   -1.6620 o         1 EVA     -0.428000
     11 CD1         0.6210    1.3780    0.4510 c3        1 EVA     -0.013000
     12 OD2        -1.3600    0.4860    1.4020 oh        1 EVA     -0.352000
     13 OXT        -2.4670   -2.0650   -0.4470 os        1 EVA     -0.571000
     14 HN          0.2660    0.0580   -2.6080 hn        1 EVA      0.233000
     15 HA         -0.1270   -1.9250   -1.3790 h1        1 EVA      0.105000
     16 HB         -0.2280   -1.7730    0.9940 h1        1 EVA      0.154000
     17 HG          0.5020    0.1960    2.0630 h1        1 EVA      0.122000
     18 HOG         1.7630   -2.2010    0.7820 ho        1 EVA      0.195000
     19 HOAJ        2.3730    2.2220    0.6870 ho        1 EVA      0.215000
     20 HD1         0.4060    2.2210    0.8930 h1        1 EVA      0.115000
     21 HOD2       -1.5070    0.6690    2.2580 ho        1 EVA      0.253000
@<TRIPOS>BOND
     1    1    3 1   
     2    1    4 1   
     3    2    4 1   
     4    2    8 1   
     5    2   14 1   
     6    4    5 1   
     7    4   15 1   
     8    5    6 1   
     9    5    7 1   
    10    5   16 1   
    11    6   11 1   
    12    6   12 1   
    13    6   17 1   
    14    7   18 1   
    15    8   10 1   
    16    8   11 1   
    17    9   11 1   
    18    9   19 1   
    19   11   20 1   
    20   12   21 1   
@<TRIPOS>SUBSTRUCTURE
     1 EVA         1 TEMP              0 ****  ****    0 ROOT
