@<TRIPOS>MOLECULE
EVA
   21    21     1     0     0
SMALL
bcc


@<TRIPOS>ATOM
      1 C          -0.0830    0.1360    0.1380 c         1 EVA      0.914600
      2 N           2.0420    1.2050   -0.6620 n         1 EVA     -0.497900
      3 O          -0.6980    0.8500   -0.6950 o         1 EVA     -0.820300
      4 CA          1.4890    0.0880    0.0670 c3        1 EVA     -0.094300
      5 CB          2.0500   -0.1160    1.4910 c3        1 EVA      0.172100
      6 CG          3.5630    0.1510    1.5240 c3        1 EVA      0.142100
      7 OG          1.8630   -1.4650    1.8750 oh        1 EVA     -0.623800
      8 CAE         3.1130    1.9350   -0.2570 c         1 EVA      0.657500
      9 OAJ         5.2380    1.7220    0.8970 oh        1 EVA     -0.619800
     10 OAK         3.5600    2.8970   -0.9350 o         1 EVA     -0.718500
     11 CD1         3.8340    1.5840    1.0440 c3        1 EVA      0.037100
     12 OD2         4.0050    0.0200    2.8670 oh        1 EVA     -0.587800
     13 OXT        -0.6170   -0.5910    1.0220 o         1 EVA     -0.820300
     14 HN          1.4270    1.5880   -1.3540 hn        1 EVA      0.345500
     15 HA          1.7380   -0.8440   -0.5260 h1        1 EVA      0.055700
     16 HB          1.5250    0.5620    2.2180 h1        1 EVA      0.056700
     17 HG          4.1040   -0.5880    0.8720 h1        1 EVA      0.055700
     18 HOG         0.9010   -1.6170    1.8630 ho        1 EVA      0.452000
     19 HOAJ        5.3890    2.4450    0.2700 ho        1 EVA      0.428000
     20 HD1         3.4830    2.3150    1.8290 h1        1 EVA      0.066700
     21 HOD2        4.9560    0.1860    2.8480 ho        1 EVA      0.398000
@<TRIPOS>BOND
     1    1    3 1   
     2    1    4 1   
     3    1   13 1   
     4    2    4 1   
     5    2    8 1   
     6    2   14 1   
     7    4    5 1   
     8    4   15 1   
     9    5    6 1   
    10    5    7 1   
    11    5   16 1   
    12    6   11 1   
    13    6   12 1   
    14    6   17 1   
    15    7   18 1   
    16    8   10 2   
    17    8   11 1   
    18    9   11 1   
    19    9   19 1   
    20   11   20 1   
    21   12   21 1   
@<TRIPOS>SUBSTRUCTURE
     1 EVA         1 TEMP              0 ****  ****    0 ROOT
