@<TRIPOS>MOLECULE
EVD
   20    16     1     0     0
SMALL
bcc


@<TRIPOS>ATOM
      1 N          -2.7750    2.5730    1.2670 n3        1 EVD     -1.006500
      2 O          -0.1620    0.0050    1.1870 os        1 EVD     -0.131200
      3 S          -1.1510    2.4060    1.4440 s4        1 EVD      1.749700
      4 O1         -0.7940    2.2080    2.8220 o         1 EVD     -0.533900
      5 C2         -0.5550    1.0800    0.4290 c1        1 EVD     -0.707400
      6 O2         -0.4650    3.6340    1.1530 o         1 EVD     -0.533900
      7 C3         -0.1570    0.8530   -0.8750 cg        1 EVD     -0.012000
      8 C4          1.0850   -1.0870   -1.9720 c1        1 EVD     -0.001500
      9 C5          1.6720   -2.3210   -1.7290 c1        1 EVD     -0.065500
     10 C6          1.6700   -2.8510   -0.4450 c1        1 EVD     -0.065500
     11 C7          1.0810   -2.1470    0.5960 c1        1 EVD     -0.076500
     12 C8          0.4860   -0.8980    0.3510 c1        1 EVD      0.081600
     13 C9          0.4880   -0.3740   -0.9190 cg        1 EVD     -0.135000
     14 HN         -3.3440    2.1250    1.8250 hn        1 EVD      0.453800
     15 HNA        -3.1100    3.1120    0.6090 hn        1 EVD      0.453800
     16 H3         -0.3030    1.4510   -1.6330 DU        1 EVD      0.182000
     17 H4          1.0860   -0.7150   -2.8740 ha        1 EVD      0.086500
     18 H5          2.0860   -2.8160   -2.4610 ha        1 EVD      0.082000
     19 H6          2.0830   -3.7190   -0.2740 ha        1 EVD      0.082000
     20 H7          1.0790   -2.5190    1.4980 ha        1 EVD      0.097500
@<TRIPOS>BOND
     1    1    3 1   
     2    1   14 1   
     3    1   15 1   
     4    2    5 1   
     5    2   12 1   
     6    3    4 1   
     7    3    6 1   
     8    5    7 3   
     9    7   13 1   
    10    8   13 3   
    11    8   17 1   
    12    9   10 3   
    13    9   18 1   
    14   10   19 1   
    15   11   12 3   
    16   11   20 1   
@<TRIPOS>SUBSTRUCTURE
     1 EVD         1 TEMP              0 ****  ****    0 ROOT
