@<TRIPOS>MOLECULE
EVD
   20    21     1     0     0
SMALL
bcc


@<TRIPOS>ATOM
      1 N           2.6800    0.5120   -1.3550 n3        1 EVD     -1.023700
      2 O          -0.0930    0.8820   -0.2490 os        1 EVD     -0.163200
      3 S           2.3510   -0.1260    0.0670 sy        1 EVD      1.540800
      4 O1          2.6990    0.7640    1.0930 o         1 EVD     -0.646300
      5 C2          0.6570   -0.2840    0.0340 cc        1 EVD     -0.241000
      6 O2          2.8640   -1.4360    0.1410 o         1 EVD     -0.646300
      7 C3         -0.1790   -1.3580    0.2650 cd        1 EVD     -0.000200
      8 C4         -2.8080   -1.4550    0.2480 ca        1 EVD     -0.059000
      9 C5         -3.9160   -0.6420    0.0450 ca        1 EVD     -0.158000
     10 C6         -3.7830    0.7240   -0.2660 ca        1 EVD     -0.088000
     11 C7         -2.5360    1.3290   -0.3870 ca        1 EVD     -0.134000
     12 C8         -1.4290    0.5060   -0.1820 ca        1 EVD      0.098100
     13 C9         -1.5390   -0.8830    0.1350 ca        1 EVD     -0.146800
     14 HN          2.9170   -0.0210   -2.1540 hn        1 EVD      0.453800
     15 HNA         2.6300    1.4820   -1.5450 hn        1 EVD      0.453800
     16 H3          0.1210   -2.3800    0.5040 ha        1 EVD      0.182000
     17 H4         -2.9210   -2.5210    0.4930 ha        1 EVD      0.144000
     18 H5         -4.9260   -1.0710    0.1290 ha        1 EVD      0.139000
     19 H6         -4.6910    1.3280   -0.4160 ha        1 EVD      0.140000
     20 H7         -2.4220    2.3940   -0.6250 ha        1 EVD      0.155000
@<TRIPOS>BOND
     1    1    3 1   
     2    1   14 1   
     3    1   15 1   
     4    2    5 1   
     5    2   12 1   
     6    3    4 2   
     7    3    5 1   
     8    3    6 2   
     9    5    7 2   
    10    7   13 1   
    11    7   16 1   
    12    8    9 ar  
    13    8   13 ar  
    14    8   17 1   
    15    9   10 ar  
    16    9   18 1   
    17   10   11 ar  
    18   10   19 1   
    19   11   12 ar  
    20   11   20 1   
    21   12   13 ar  
@<TRIPOS>SUBSTRUCTURE
     1 EVD         1 TEMP              0 ****  ****    0 ROOT
