@<TRIPOS>MOLECULE
EVD
   21    22     1     0     0
SMALL
bcc


@<TRIPOS>ATOM
      1 N           0.0510   -0.3600    0.2100 n4        1 EVD     -0.787500
      2 O           2.1990   -2.4680   -0.0810 os        1 EVD     -0.167200
      3 S           1.8570    0.0730   -0.2310 sy        1 EVD      1.516800
      4 O1          2.3540    0.2970    1.0280 o         1 EVD     -0.558800
      5 C2          2.2270   -1.3110   -0.9220 cc        1 EVD     -0.487000
      6 O2          1.6770    1.0970   -1.1340 o         1 EVD     -0.558800
      7 C3          2.6640   -1.6730   -2.2050 cd        1 EVD      0.149800
      8 C4          3.4130   -4.0000   -3.1360 ca        1 EVD     -0.022000
      9 C5          3.5680   -5.3160   -2.7350 ca        1 EVD     -0.148000
     10 C6          3.2700   -5.7320   -1.4190 ca        1 EVD     -0.021000
     11 C7          2.8010   -4.8470   -0.4540 ca        1 EVD     -0.150000
     12 C8          2.6460   -3.5220   -0.8620 ca        1 EVD      0.151100
     13 C9          2.9420   -3.0720   -2.1920 ca        1 EVD     -0.184800
     14 HN         -0.1260   -0.1810    1.1980 hn        1 EVD      0.459800
     15 HNA        -0.6040    0.2020   -0.3310 hn        1 EVD      0.459800
     16 H3          2.7800   -0.9990   -3.0620 ha        1 EVD      0.200000
     17 H4          3.6510   -3.6810   -4.1630 ha        1 EVD      0.168000
     18 H5          3.9390   -6.0660   -3.4550 ha        1 EVD      0.171000
     19 H6          3.4180   -6.7930   -1.1490 ha        1 EVD      0.171000
     20 H7          2.5750   -5.1640    0.5740 ha        1 EVD      0.179000
     21 HN3        -0.1540   -1.3410    0.0330 hn        1 EVD      0.459800
@<TRIPOS>BOND
     1    1    3 1   
     2    1   14 1   
     3    1   15 1   
     4    1   21 1   
     5    2    5 1   
     6    2   12 1   
     7    3    4 2   
     8    3    5 1   
     9    3    6 2   
    10    5    7 2   
    11    7   13 1   
    12    7   16 1   
    13    8    9 ar  
    14    8   13 ar  
    15    8   17 1   
    16    9   10 ar  
    17    9   18 1   
    18   10   11 ar  
    19   10   19 1   
    20   11   12 ar  
    21   11   20 1   
    22   12   13 ar  
@<TRIPOS>SUBSTRUCTURE
     1 EVD         1 TEMP              0 ****  ****    0 ROOT
