@<TRIPOS>MOLECULE
EVD
   21    22     1     0     0
SMALL
bcc


@<TRIPOS>ATOM
      1 N           0.0660   -0.3790    0.2650 nz        1 EVD     -0.787500
      2 O           2.2370   -2.4550   -0.0820 os        1 EVD     -0.167200
      3 S           1.8470    0.0780   -0.2500 sy        1 EVD      1.516800
      4 O1          2.3880    0.3270    0.9860 o         1 EVD     -0.558800
      5 C2          2.2140   -1.3090   -0.9380 cc        1 EVD     -0.487000
      6 O2          1.6150    1.0870   -1.1590 o         1 EVD     -0.558800
      7 C3          2.6080   -1.6790   -2.2320 cd        1 EVD      0.149800
      8 C4          3.3610   -4.0060   -3.1620 ca        1 EVD     -0.022000
      9 C5          3.5540   -5.3140   -2.7500 ca        1 EVD     -0.148000
     10 C6          3.3130   -5.7180   -1.4190 ca        1 EVD     -0.021000
     11 C7          2.8660   -4.8270   -0.4480 ca        1 EVD     -0.150000
     12 C8          2.6730   -3.5110   -0.8660 ca        1 EVD      0.151100
     13 C9          2.9100   -3.0730   -2.2120 ca        1 EVD     -0.184800
     14 HN         -0.0750   -0.1900    1.2560 hn        1 EVD      0.459800
     15 HNA        -0.6180    0.1650   -0.2580 hn        1 EVD      0.459800
     16 H3          2.6800   -1.0150   -3.1010 ha        1 EVD      0.200000
     17 H4          3.5540   -3.6970   -4.2010 ha        1 EVD      0.168000
     18 H5          3.9090   -6.0670   -3.4740 ha        1 EVD      0.171000
     19 H6          3.4890   -6.7720   -1.1420 ha        1 EVD      0.171000
     20 H7          2.6850   -5.1350    0.5920 ha        1 EVD      0.179000
     21 HN3        -0.1280   -1.3650    0.1080 hn        1 EVD      0.459800
@<TRIPOS>BOND
     1    1    3 1   
     2    1   14 1   
     3    1   15 1   
     4    1   21 1   
     5    2    5 1   
     6    2   12 1   
     7    3    4 2   
     8    3    5 1   
     9    3    6 2   
    10    5    7 2   
    11    7   13 1   
    12    7   16 1   
    13    8    9 ar  
    14    8   13 ar  
    15    8   17 1   
    16    9   10 ar  
    17    9   18 1   
    18   10   11 ar  
    19   10   19 1   
    20   11   12 ar  
    21   11   20 1   
    22   12   13 ar  
@<TRIPOS>SUBSTRUCTURE
     1 EVD         1 TEMP              0 ****  ****    0 ROOT
