@<TRIPOS>MOLECULE
EVE
   21    22     1     0     0
SMALL
bcc


@<TRIPOS>ATOM
      1 N           0.0340   -0.3440    0.3160 n4        1 EVE     -0.789500
      2 S           1.8040    0.0710   -0.2010 sy        1 EVE      1.449000
      3 N1          2.5570   -1.6640   -2.1510 na        1 EVE     -0.153300
      4 O1          2.3480    0.3940    1.0140 o         1 EVE     -0.556800
      5 C2          2.1880   -1.3780   -0.8100 cc        1 EVE     -0.088800
      6 N2          2.2390   -2.5250   -0.0330 nd        1 EVE     -0.428100
      7 O2          1.6020    1.0060   -1.1930 o         1 EVE     -0.556800
      8 C4          3.3210   -3.8340   -3.2600 ca        1 EVE     -0.160000
      9 C5          3.5410   -5.1580   -2.9600 ca        1 EVE     -0.029000
     10 C6          3.3340   -5.6890   -1.6530 ca        1 EVE     -0.133000
     11 C7          2.9030   -4.9150   -0.6090 ca        1 EVE     -0.043000
     12 C8          2.6580   -3.5320   -0.8550 ca        1 EVE      0.057400
     13 C9          2.8750   -2.9990   -2.2070 ca        1 EVE      0.012800
     14 HN         -0.2260   -1.3040    0.0940 hn        1 EVE      0.464467
     15 HNA        -0.6360    0.2720   -0.1430 hn        1 EVE      0.464467
     16 H4          3.4850   -3.4310   -4.2690 ha        1 EVE      0.169000
     17 H5          3.8920   -5.8440   -3.7510 ha        1 EVE      0.169000
     18 H6          3.5370   -6.7630   -1.4940 ha        1 EVE      0.170000
     19 H7          2.7500   -5.3230    0.4020 ha        1 EVE      0.175000
     20 HN3        -0.0760   -0.2260    1.3250 hn        1 EVE      0.464467
     21 HN1         2.6300   -0.9930   -2.8780 hn        1 EVE      0.343700
@<TRIPOS>BOND
     1    1    2 1   
     2    1   14 1   
     3    1   15 1   
     4    1   20 1   
     5    2    4 2   
     6    2    5 1   
     7    2    7 2   
     8    3    5 1   
     9    3   13 1   
    10    3   21 1   
    11    5    6 2   
    12    6   12 1   
    13    8    9 ar  
    14    8   13 ar  
    15    8   16 1   
    16    9   10 ar  
    17    9   17 1   
    18   10   11 ar  
    19   10   18 1   
    20   11   12 ar  
    21   11   19 1   
    22   12   13 ar  
@<TRIPOS>SUBSTRUCTURE
     1 EVE         1 TEMP              0 ****  ****    0 ROOT
