@<TRIPOS>MOLECULE
EVE
   20    21     1     0     0
SMALL
bcc


@<TRIPOS>ATOM
      1 N           2.7620    0.4570   -1.3670 n3        1 EVE     -1.019700
      2 S           2.3560   -0.2420   -0.0040 sy        1 EVE      1.482000
      3 N1         -0.2230   -1.2460    0.2070 na        1 EVE     -0.205300
      4 O1          2.8130    0.4850    1.0980 o         1 EVE     -0.645800
      5 C2          0.6260   -0.1490   -0.0320 cc        1 EVE      0.160200
      6 N2         -0.0660    0.9890   -0.2660 nd        1 EVE     -0.491100
      7 O2          2.6490   -1.6190   -0.0430 o         1 EVE     -0.645800
      8 C4         -2.7800   -1.3970    0.2660 ca        1 EVE     -0.139000
      9 C5         -3.9000   -0.6050    0.1130 ca        1 EVE     -0.094000
     10 C6         -3.8070    0.7750   -0.1770 ca        1 EVE     -0.158000
     11 C7         -2.5900    1.4110   -0.3240 ca        1 EVE     -0.053000
     12 C8         -1.4170    0.6440   -0.1780 ca        1 EVE      0.048400
     13 C9         -1.5260   -0.7760    0.1210 ca        1 EVE     -0.051200
     14 HN          2.7990    1.4400   -1.4890 hn        1 EVE      0.459800
     15 HNA         2.9280   -0.0350   -2.2100 hn        1 EVE      0.459800
     16 H4         -2.8580   -2.4690    0.4940 ha        1 EVE      0.142000
     17 H5         -4.9000   -1.0540    0.2190 ha        1 EVE      0.136000
     18 H6         -4.7390    1.3520   -0.2850 ha        1 EVE      0.137000
     19 H7         -2.5230    2.4860   -0.5460 ha        1 EVE      0.150000
     20 HN1         0.0760   -2.1730    0.3790 hn        1 EVE      0.326700
@<TRIPOS>BOND
     1    1    2 1   
     2    1   14 1   
     3    1   15 1   
     4    2    4 2   
     5    2    5 1   
     6    2    7 2   
     7    3    5 1   
     8    3   13 1   
     9    3   20 1   
    10    5    6 2   
    11    6   12 1   
    12    8    9 ar  
    13    8   13 ar  
    14    8   16 1   
    15    9   10 ar  
    16    9   17 1   
    17   10   11 ar  
    18   10   18 1   
    19   11   12 ar  
    20   11   19 1   
    21   12   13 ar  
@<TRIPOS>SUBSTRUCTURE
     1 EVE         1 TEMP              0 ****  ****    0 ROOT
