@<TRIPOS>MOLECULE
EVE
   20    16     1     0     0
SMALL
bcc


@<TRIPOS>ATOM
      1 N          -2.6220    2.7810    1.0310 n3        1 EVE     -1.002500
      2 S          -1.0510    2.4690    1.3950 s4        1 EVE      1.747700
      3 N1         -0.1140    0.8180   -0.8250 ne        1 EVE     -0.385400
      4 O1         -0.8740    2.2600    2.8050 o         1 EVE     -0.533400
      5 C2         -0.4700    1.0790    0.4610 c1        1 EVE     -0.233200
      6 N2         -0.1150    0.0100    1.2220 ne        1 EVE     -0.385400
      7 O2         -0.2260    3.6250    1.1780 o         1 EVE     -0.533400
      8 C4          1.0030   -1.1680   -1.9150 c1        1 EVE     -0.038500
      9 C5          1.5370   -2.4220   -1.6640 c1        1 EVE     -0.068500
     10 C6          1.5360   -2.9310   -0.3750 c1        1 EVE     -0.068500
     11 C7          1.0020   -2.1850    0.6640 c1        1 EVE     -0.038500
     12 C8          0.4600   -0.9110    0.4100 cg        1 EVE      0.003500
     13 C9          0.4600   -0.4100   -0.8600 cg        1 EVE      0.003500
     14 HN         -2.8290    3.2970    0.3060 hn        1 EVE      0.459800
     15 HNA        -3.2890    2.4330    1.5500 hn        1 EVE      0.459800
     16 H4          1.0040   -0.8100   -2.8230 ha        1 EVE      0.088500
     17 H5          1.9130   -2.9480   -2.3960 ha        1 EVE      0.079000
     18 H6          1.9130   -3.8140   -0.1990 ha        1 EVE      0.079000
     19 H7          1.0020   -2.5430    1.5720 ha        1 EVE      0.088500
     20 HN1        -0.2410    1.3700   -1.5390 DU        1 EVE      0.277000
@<TRIPOS>BOND
     1    1    2 1   
     2    1   14 1   
     3    1   15 1   
     4    2    4 1   
     5    2    7 1   
     6    3    5 2   
     7    3   13 1   
     8    5    6 2   
     9    6   12 1   
    10    8   13 3   
    11    8   16 1   
    12    9   10 3   
    13    9   17 1   
    14   10   18 1   
    15   11   12 3   
    16   11   19 1   
@<TRIPOS>SUBSTRUCTURE
     1 EVE         1 TEMP              0 ****  ****    0 ROOT
