@<TRIPOS>MOLECULE
EVE
   21    22     1     0     0
SMALL
bcc


@<TRIPOS>ATOM
      1 N           0.0390   -0.2700    0.2100 n4        1 EVE     -0.789500
      2 S           1.8300    0.1000   -0.2710 sy        1 EVE      1.449000
      3 N1          2.5980   -1.6920   -2.1620 na        1 EVE     -0.153300
      4 O1          2.3490    0.4410    0.9500 o         1 EVE     -0.556800
      5 C2          2.2010   -1.3690   -0.8380 cc        1 EVE     -0.088800
      6 N2          2.2100   -2.4980   -0.0340 nd        1 EVE     -0.428100
      7 O2          1.6700    1.0160   -1.2880 o         1 EVE     -0.556800
      8 C4          3.3480   -3.9000   -3.2030 ca        1 EVE     -0.160000
      9 C5          3.5350   -5.2200   -2.8690 ca        1 EVE     -0.029000
     10 C6          3.2860   -5.7180   -1.5560 ca        1 EVE     -0.133000
     11 C7          2.8430   -4.9130   -0.5400 ca        1 EVE     -0.043000
     12 C8          2.6310   -3.5310   -0.8230 ca        1 EVE      0.057400
     13 C9          2.8920   -3.0330   -2.1810 ca        1 EVE      0.012800
     14 HN         -0.6070    0.3470   -0.2800 hn        1 EVE      0.464467
     15 HNA        -0.0930   -0.1270    1.2130 hn        1 EVE      0.464467
     16 H4          3.5450   -3.5230   -4.2170 ha        1 EVE      0.169000
     17 H5          3.8930   -5.9310   -3.6350 ha        1 EVE      0.169000
     18 H6          3.4640   -6.7920   -1.3680 ha        1 EVE      0.170000
     19 H7          2.6570   -5.2950    0.4750 ha        1 EVE      0.175000
     20 HN3        -0.2330   -1.2300    0.0030 hn        1 EVE      0.464467
     21 HN1         2.7020   -1.0380   -2.9020 hn        1 EVE      0.343700
@<TRIPOS>BOND
     1    1    2 1   
     2    1   14 1   
     3    1   15 1   
     4    1   20 1   
     5    2    4 2   
     6    2    5 1   
     7    2    7 2   
     8    3    5 1   
     9    3   13 1   
    10    3   21 1   
    11    5    6 2   
    12    6   12 1   
    13    8    9 ar  
    14    8   13 ar  
    15    8   16 1   
    16    9   10 ar  
    17    9   17 1   
    18   10   11 ar  
    19   10   18 1   
    20   11   12 ar  
    21   11   19 1   
    22   12   13 ar  
@<TRIPOS>SUBSTRUCTURE
     1 EVE         1 TEMP              0 ****  ****    0 ROOT
