@<TRIPOS>MOLECULE
EVE
   21    22     1     0     0
SMALL
bcc


@<TRIPOS>ATOM
      1 N           0.0530   -0.2620    0.2180 nz        1 EVE     -0.789500
      2 S           1.8310    0.1130   -0.3070 sy        1 EVE      1.449000
      3 N1          2.5710   -1.7060   -2.1840 na        1 EVE     -0.153300
      4 O1          2.3730    0.4770    0.8970 o         1 EVE     -0.556800
      5 C2          2.2000   -1.3630   -0.8570 cc        1 EVE     -0.088800
      6 N2          2.2340   -2.4790   -0.0360 nd        1 EVE     -0.428100
      7 O2          1.6430    1.0110   -1.3350 o         1 EVE     -0.556800
      8 C4          3.3150   -3.9260   -3.2040 ca        1 EVE     -0.160000
      9 C5          3.5180   -5.2390   -2.8520 ca        1 EVE     -0.029000
     10 C6          3.3000   -5.7170   -1.5260 ca        1 EVE     -0.133000
     11 C7          2.8730   -4.8970   -0.5150 ca        1 EVE     -0.043000
     12 C8          2.6450   -3.5220   -0.8160 ca        1 EVE      0.057400
     13 C9          2.8740   -3.0450   -2.1870 ca        1 EVE      0.012800
     14 HN         -0.6070    0.3430   -0.2690 hn        1 EVE      0.464467
     15 HNA        -0.0590   -0.1020    1.2200 hn        1 EVE      0.464467
     16 H4          3.4880   -3.5640   -4.2280 ha        1 EVE      0.169000
     17 H5          3.8640   -5.9600   -3.6140 ha        1 EVE      0.169000
     18 H6          3.4900   -6.7850   -1.3250 ha        1 EVE      0.170000
     19 H7          2.7110   -5.2640    0.5100 ha        1 EVE      0.175000
     20 HN3        -0.2160   -1.2260    0.0320 hn        1 EVE      0.464467
     21 HN1         2.6550   -1.0640   -2.9370 hn        1 EVE      0.343700
@<TRIPOS>BOND
     1    1    2 1   
     2    1   14 1   
     3    1   15 1   
     4    1   20 1   
     5    2    4 2   
     6    2    5 1   
     7    2    7 2   
     8    3    5 1   
     9    3   13 1   
    10    3   21 1   
    11    5    6 2   
    12    6   12 1   
    13    8    9 ar  
    14    8   13 ar  
    15    8   16 1   
    16    9   10 ar  
    17    9   17 1   
    18   10   11 ar  
    19   10   18 1   
    20   11   12 ar  
    21   11   19 1   
    22   12   13 ar  
@<TRIPOS>SUBSTRUCTURE
     1 EVE         1 TEMP              0 ****  ****    0 ROOT
