@<TRIPOS>MOLECULE
EVF
   19    20     1     0     0
SMALL
bcc


@<TRIPOS>ATOM
      1 N           2.7420    1.4910    0.4270 n3        1 EVF     -1.017700
      2 S           2.3890    0.1600   -0.3640 sy        1 EVF      1.479000
      3 O1          2.9630   -0.9500    0.2860 o         1 EVF     -0.644800
      4 S1         -0.1670   -1.3950    0.2930 ss        1 EVF      0.191900
      5 C2          0.6750    0.0160   -0.1520 cc        1 EVF      0.040600
      6 O2          2.6380    0.2980   -1.7330 o         1 EVF     -0.644800
      7 N3         -0.0960    1.0830   -0.3900 nd        1 EVF     -0.451100
      8 C4         -2.5440    1.6120   -0.3710 ca        1 EVF     -0.060000
      9 C5         -3.8110    1.1140   -0.1520 ca        1 EVF     -0.136000
     10 C6         -4.0130   -0.2300    0.2290 ca        1 EVF     -0.102000
     11 C7         -2.9470   -1.0920    0.3940 ca        1 EVF     -0.098000
     12 C8         -1.6430   -0.6210    0.1790 ca        1 EVF     -0.112100
     13 C9         -1.4330    0.7490   -0.2080 ca        1 EVF      0.064400
     14 HN          2.5590    2.4010    0.0810 hn        1 EVF      0.456800
     15 HNA         3.1040    1.5000    1.3490 hn        1 EVF      0.456800
     16 H4         -2.3820    2.6590   -0.6710 ha        1 EVF      0.153000
     17 H5         -4.6870    1.7690   -0.2750 ha        1 EVF      0.141000
     18 H6         -5.0400   -0.5890    0.3940 ha        1 EVF      0.140000
     19 H7         -3.1100   -2.1400    0.6890 ha        1 EVF      0.143000
@<TRIPOS>BOND
     1    1    2 1   
     2    1   14 1   
     3    1   15 1   
     4    2    3 2   
     5    2    5 1   
     6    2    6 2   
     7    4    5 1   
     8    4   12 1   
     9    5    7 2   
    10    7   13 1   
    11    8    9 ar  
    12    8   13 ar  
    13    8   16 1   
    14    9   10 ar  
    15    9   17 1   
    16   10   11 ar  
    17   10   18 1   
    18   11   12 ar  
    19   11   19 1   
    20   12   13 ar  
@<TRIPOS>SUBSTRUCTURE
     1 EVF         1 TEMP              0 ****  ****    0 ROOT
