@<TRIPOS>MOLECULE
EVF
   20    21     1     0     0
SMALL
bcc


@<TRIPOS>ATOM
      1 N           0.1600   -0.3420    0.5160 n4        1 EVF     -0.783500
      2 S           1.7290    0.0720   -0.4630 sy        1 EVF      1.460000
      3 O1          2.5030    0.6570    0.5150 o         1 EVF     -0.560300
      4 S1          3.7080   -2.1560   -0.5930 ss        1 EVF      0.393900
      5 C2          2.1950   -1.4290   -0.8300 cc        1 EVF     -0.242400
      6 O2          1.1920    0.8170   -1.4820 o         1 EVF     -0.560300
      7 N3          1.3040   -2.2360   -1.5030 nd        1 EVF     -0.430100
      8 C4          1.2870   -4.5070   -2.5290 ca        1 EVF     -0.049000
      9 C5          2.0340   -5.6300   -2.7710 ca        1 EVF     -0.116000
     10 C6          3.3820   -5.7340   -2.3320 ca        1 EVF     -0.036000
     11 C7          3.9940   -4.7090   -1.6460 ca        1 EVF     -0.121000
     12 C8          3.2710   -3.5320   -1.3730 ca        1 EVF     -0.103100
     13 C9          1.8900   -3.4190   -1.8190 ca        1 EVF      0.077400
     14 HN          0.1620    0.1340    1.4170 hn        1 EVF      0.462133
     15 HNA        -0.6640   -0.0320   -0.0000 hn        1 EVF      0.462133
     16 H4          0.2440   -4.4160   -2.8720 ha        1 EVF      0.174000
     17 H5          1.5930   -6.4800   -3.3210 ha        1 EVF      0.171000
     18 H6          3.9400   -6.6600   -2.5540 ha        1 EVF      0.170000
     19 H7          5.0400   -4.7990   -1.3130 ha        1 EVF      0.168000
     20 HN3         0.0510   -1.3380    0.6940 hn        1 EVF      0.462133
@<TRIPOS>BOND
     1    1    2 1   
     2    1   14 1   
     3    1   15 1   
     4    1   20 1   
     5    2    3 2   
     6    2    5 1   
     7    2    6 2   
     8    4    5 1   
     9    4   12 1   
    10    5    7 2   
    11    7   13 1   
    12    8    9 ar  
    13    8   13 ar  
    14    8   16 1   
    15    9   10 ar  
    16    9   17 1   
    17   10   11 ar  
    18   10   18 1   
    19   11   12 ar  
    20   11   19 1   
    21   12   13 ar  
@<TRIPOS>SUBSTRUCTURE
     1 EVF         1 TEMP              0 ****  ****    0 ROOT
