@<TRIPOS>MOLECULE
EVF
   19    16     1     0     0
SMALL
bcc


@<TRIPOS>ATOM
      1 N          -2.6500    2.0550    2.4420 n3        1 EVF     -1.000500
      2 S          -1.2130    2.4750    1.6490 s4        1 EVF      1.744700
      3 O1         -0.2390    2.9600    2.5660 o         1 EVF     -0.532400
      4 S1          0.9390    0.8870    0.6100 ss        1 EVF      0.192800
      5 C2         -0.6080    1.1100    0.7330 c1        1 EVF     -0.428100
      6 O2         -1.3970    3.6280    0.8060 o         1 EVF     -0.532400
      7 N3         -1.2570    0.1250   -0.0590 n1        1 EVF     -0.429600
      8 C4         -0.2440   -1.8900   -1.5960 c1        1 EVF     -0.002500
      9 C5          0.9400   -2.5430   -2.0610 c1        1 EVF     -0.061500
     10 C6          2.2460   -2.0680   -1.6460 c1        1 EVF     -0.061500
     11 C7          2.3500   -0.9640   -0.7830 c1        1 EVF     -0.040500
     12 C8          1.1600   -0.3070   -0.3140 c1        1 EVF     -0.113900
     13 C9         -0.1450   -0.7870   -0.7340 cg        1 EVF      0.004800
     14 HN         -2.6220    1.7460    3.3200 hn        1 EVF      0.456800
     15 HNA        -3.4590    2.2430    2.0490 hn        1 EVF      0.456800
     16 H4         -1.0130   -2.1730   -1.8420 ha        1 EVF      0.095500
     17 H5          0.8630   -3.3600   -2.6900 ha        1 EVF      0.083000
     18 H6          3.0540   -2.5140   -1.9700 ha        1 EVF      0.083000
     19 H7          3.2940   -0.6220   -0.4810 ha        1 EVF      0.085500
@<TRIPOS>BOND
     1    1    2 1   
     2    1   14 1   
     3    1   15 1   
     4    2    3 1   
     5    2    6 1   
     6    4    5 1   
     7    4   12 1   
     8    5    7 3   
     9    7   13 1   
    10    8   13 3   
    11    8   16 1   
    12    9   10 3   
    13    9   17 1   
    14   10   18 1   
    15   11   12 3   
    16   11   19 1   
@<TRIPOS>SUBSTRUCTURE
     1 EVF         1 TEMP              0 ****  ****    0 ROOT
