@<TRIPOS>MOLECULE
EVF
   20    21     1     0     0
SMALL
bcc


@<TRIPOS>ATOM
      1 N           0.1390   -0.2860    0.4100 n4        1 EVF     -0.783500
      2 S           1.7440    0.0890   -0.5260 sy        1 EVF      1.460000
      3 O1          2.4940    0.6830    0.4650 o         1 EVF     -0.560300
      4 S1          3.6960   -2.1670   -0.5480 ss        1 EVF      0.393900
      5 C2          2.2000   -1.4250   -0.8490 cc        1 EVF     -0.242400
      6 O2          1.2500    0.8200   -1.5750 o         1 EVF     -0.560300
      7 N3          1.3220   -2.2330   -1.5340 nd        1 EVF     -0.430100
      8 C4          1.3070   -4.5240   -2.5170 ca        1 EVF     -0.049000
      9 C5          2.0450   -5.6610   -2.7130 ca        1 EVF     -0.116000
     10 C6          3.3770   -5.7730   -2.2290 ca        1 EVF     -0.036000
     11 C7          3.9800   -4.7430   -1.5430 ca        1 EVF     -0.121000
     12 C8          3.2650   -3.5520   -1.3160 ca        1 EVF     -0.103100
     13 C9          1.9010   -3.4300   -1.8090 ca        1 EVF      0.077400
     14 HN         -0.6640    0.0250   -0.1370 hn        1 EVF      0.462133
     15 HNA         0.1190    0.2070    1.3030 hn        1 EVF      0.462133
     16 H4          0.2760   -4.4260   -2.8960 ha        1 EVF      0.174000
     17 H5          1.6110   -6.5150   -3.2600 ha        1 EVF      0.171000
     18 H6          3.9290   -6.7110   -2.4150 ha        1 EVF      0.170000
     19 H7          5.0140   -4.8400   -1.1750 ha        1 EVF      0.168000
     20 HN3         0.0110   -1.2760    0.6030 hn        1 EVF      0.462133
@<TRIPOS>BOND
     1    1    2 1   
     2    1   14 1   
     3    1   15 1   
     4    1   20 1   
     5    2    3 2   
     6    2    5 1   
     7    2    6 2   
     8    4    5 1   
     9    4   12 1   
    10    5    7 2   
    11    7   13 1   
    12    8    9 ar  
    13    8   13 ar  
    14    8   16 1   
    15    9   10 ar  
    16    9   17 1   
    17   10   11 ar  
    18   10   18 1   
    19   11   12 ar  
    20   11   19 1   
    21   12   13 ar  
@<TRIPOS>SUBSTRUCTURE
     1 EVF         1 TEMP              0 ****  ****    0 ROOT
