@<TRIPOS>MOLECULE
EVF
   20    21     1     0     0
SMALL
bcc


@<TRIPOS>ATOM
      1 N           0.1650    0.1350   -0.5470 nz        1 EVF     -0.783500
      2 S           1.7340   -0.3190    0.4140 sy        1 EVF      1.460000
      3 O1          1.1980   -0.5790    1.6490 o         1 EVF     -0.560300
      4 S1          3.7090   -1.9060   -1.1600 ss        1 EVF      0.393900
      5 C2          2.1970   -1.5950   -0.4580 cc        1 EVF     -0.242400
      6 O2          2.5100    0.7980    0.1950 o         1 EVF     -0.560300
      7 N3          1.3060   -2.6340   -0.6080 nd        1 EVF     -0.430100
      8 C4          1.2840   -4.9140   -1.6130 ca        1 EVF     -0.049000
      9 C5          2.0280   -5.8460   -2.2880 ca        1 EVF     -0.116000
     10 C6          3.3760   -5.5900   -2.6600 ca        1 EVF     -0.036000
     11 C7          3.9900   -4.3960   -2.3560 ca        1 EVF     -0.121000
     12 C8          3.2690   -3.4050   -1.6620 ca        1 EVF     -0.103100
     13 C9          1.8880   -3.6600   -1.2780 ca        1 EVF      0.077400
     14 HN          0.0550   -0.3970   -1.4060 hn        1 EVF      0.462133
     15 HNA         0.1680    1.1240   -0.7940 hn        1 EVF      0.462133
     16 H4          0.2410   -5.1070   -1.3140 ha        1 EVF      0.174000
     17 H5          1.5860   -6.8220   -2.5530 ha        1 EVF      0.171000
     18 H6          3.9330   -6.3750   -3.2020 ha        1 EVF      0.170000
     19 H7          5.0370   -4.2100   -2.6470 ha        1 EVF      0.168000
     20 HN3        -0.6590   -0.0410    0.0300 hn        1 EVF      0.462133
@<TRIPOS>BOND
     1    1    2 1   
     2    1   14 1   
     3    1   15 1   
     4    1   20 1   
     5    2    3 2   
     6    2    5 1   
     7    2    6 2   
     8    4    5 1   
     9    4   12 1   
    10    5    7 2   
    11    7   13 1   
    12    8    9 ar  
    13    8   13 ar  
    14    8   16 1   
    15    9   10 ar  
    16    9   17 1   
    17   10   11 ar  
    18   10   18 1   
    19   11   12 ar  
    20   11   19 1   
    21   12   13 ar  
@<TRIPOS>SUBSTRUCTURE
     1 EVF         1 TEMP              0 ****  ****    0 ROOT
