@<TRIPOS>MOLECULE
EVG
   15    15     1     0     0
SMALL
bcc


@<TRIPOS>ATOM
      1 O           0.2090   -0.2120   -0.1440 os        1 EVG     -0.306800
      2 S           2.5200    0.2110   -1.2270 sy        1 EVG      1.451800
      3 O1          3.8560    0.3250   -0.9180 o         1 EVG     -0.554800
      4 C2          1.5950    0.0230    0.0530 cc        1 EVG     -0.289400
      5 O2          1.9560    0.8510   -2.3020 o         1 EVG     -0.554800
      6 C3          1.8210    0.1320    1.4420 cd        1 EVG      0.020700
      7 C4          0.5680   -0.0190    2.0970 cd        1 EVG     -0.291300
      8 C5         -0.3820   -0.2240    1.0950 cc        1 EVG      0.412600
      9 NH          2.4420   -1.5930   -1.8510 nz        1 EVG     -0.788500
     10 H3          2.7870    0.3130    1.9270 ha        1 EVG      0.207000
     11 H4          0.3890    0.0250    3.1740 ha        1 EVG      0.213000
     12 H5         -1.4660   -0.3850    1.0850 h4        1 EVG      0.101100
     13 HNH         3.3610   -2.0320   -1.8090 hn        1 EVG      0.459467
     14 HNHA        2.1290   -1.6190   -2.8220 hn        1 EVG      0.459467
     15 HH3         1.7990   -2.1590   -1.3050 hn        1 EVG      0.459467
@<TRIPOS>BOND
     1    1    4 1   
     2    1    8 1   
     3    2    3 2   
     4    2    4 1   
     5    2    5 2   
     6    2    9 1   
     7    4    6 2   
     8    6    7 1   
     9    6   10 1   
    10    7    8 2   
    11    7   11 1   
    12    8   12 1   
    13    9   13 1   
    14    9   14 1   
    15    9   15 1   
@<TRIPOS>SUBSTRUCTURE
     1 EVG         1 TEMP              0 ****  ****    0 ROOT
