@<TRIPOS>MOLECULE
EVG
   15    15     1     0     0
SMALL
bcc


@<TRIPOS>ATOM
      1 O           0.2070   -0.2250   -0.1530 os        1 EVG     -0.306800
      2 S           2.5190    0.1970   -1.2350 sy        1 EVG      1.451800
      3 O1          3.8530    0.3290   -0.9230 o         1 EVG     -0.554800
      4 C2          1.5910    0.0260    0.0450 cc        1 EVG     -0.289400
      5 O2          1.9550    0.8110   -2.3240 o         1 EVG     -0.554800
      6 C3          1.8100    0.1640    1.4320 cd        1 EVG      0.020700
      7 C4          0.5550    0.0140    2.0850 cd        1 EVG     -0.291300
      8 C5         -0.3890   -0.2170    1.0830 cc        1 EVG      0.412600
      9 NH          2.4600   -1.6190   -1.8250 n4        1 EVG     -0.788500
     10 H3          2.7720    0.3620    1.9180 ha        1 EVG      0.207000
     11 H4          0.3710    0.0770    3.1600 ha        1 EVG      0.213000
     12 H5         -1.4710   -0.3880    1.0710 h4        1 EVG      0.101100
     13 HNH         3.3820   -2.0490   -1.7710 hn        1 EVG      0.459467
     14 HNHA        2.1510   -1.6660   -2.7960 hn        1 EVG      0.459467
     15 HH3         1.8190   -2.1800   -1.2700 hn        1 EVG      0.459467
@<TRIPOS>BOND
     1    1    4 1   
     2    1    8 1   
     3    2    3 2   
     4    2    4 1   
     5    2    5 2   
     6    2    9 1   
     7    4    6 2   
     8    6    7 1   
     9    6   10 1   
    10    7    8 2   
    11    7   11 1   
    12    8   12 1   
    13    9   13 1   
    14    9   14 1   
    15    9   15 1   
@<TRIPOS>SUBSTRUCTURE
     1 EVG         1 TEMP              0 ****  ****    0 ROOT
