@<TRIPOS>MOLECULE
EVG
   14    14     1     0     0
SMALL
bcc


@<TRIPOS>ATOM
      1 O           1.2130    0.8940    0.4270 os        1 EVG     -0.315800
      2 S          -1.2050   -0.1050   -0.0830 sy        1 EVG      1.480800
      3 O1         -1.6830   -1.4020   -0.3580 o         1 EVG     -0.648300
      4 C2          0.4810   -0.2280    0.0090 cc        1 EVG     -0.066400
      5 O2         -1.5370    0.9120   -0.9900 o         1 EVG     -0.648300
      6 C3          1.3660   -1.2560   -0.2930 cd        1 EVG     -0.098300
      7 C4          2.6960   -0.7580   -0.0590 cd        1 EVG     -0.295300
      8 C5          2.5500    0.5490    0.3750 cc        1 EVG      0.299600
      9 NH         -1.6180    0.3270    1.3960 n3        1 EVG     -1.024700
     10 H3          1.1060   -2.2550   -0.6440 ha        1 EVG      0.180000
     11 H4          3.6200   -1.3110   -0.2030 ha        1 EVG      0.171000
     12 H5          3.2340    1.3410    0.6730 h4        1 EVG      0.061100
     13 HNH        -1.8450   -0.3160    2.1120 hn        1 EVG      0.452300
     14 HNHA       -1.6490    1.2670    1.7020 hn        1 EVG      0.452300
@<TRIPOS>BOND
     1    1    4 1   
     2    1    8 1   
     3    2    3 2   
     4    2    4 1   
     5    2    5 2   
     6    2    9 1   
     7    4    6 2   
     8    6    7 1   
     9    6   10 1   
    10    7    8 2   
    11    7   11 1   
    12    8   12 1   
    13    9   13 1   
    14    9   14 1   
@<TRIPOS>SUBSTRUCTURE
     1 EVG         1 TEMP              0 ****  ****    0 ROOT
