@<TRIPOS>MOLECULE
EVH
   14    14     1     0     0
SMALL
bcc


@<TRIPOS>ATOM
      1 S           1.1910    0.0570   -0.1770 sy        1 EVH      1.483800
      2 N1         -1.3790    1.0340    0.1690 na        1 EVH     -0.222900
      3 O1          1.5120    1.3220    0.3620 o         1 EVH     -0.653300
      4 C2         -0.5160   -0.0440   -0.0800 cc        1 EVH      0.104400
      5 O2          1.5810   -0.1940   -1.4960 o         1 EVH     -0.653300
      6 N3         -1.2390   -1.1900   -0.2560 nd        1 EVH     -0.589000
      7 C4         -2.5630   -0.8410   -0.1240 cd        1 EVH      0.286200
      8 C5         -2.6690    0.5510    0.1430 cc        1 EVH     -0.213600
      9 NH          1.6740   -1.1030    0.7920 n3        1 EVH     -1.018700
     10 H4         -3.3700   -1.5680   -0.2230 h4        1 EVH      0.051100
     11 H5         -3.5430    1.1810    0.3020 h4        1 EVH      0.186000
     12 HNH         1.8890   -0.9660    1.7490 hn        1 EVH      0.456800
     13 HNHA        1.7150   -2.0570    0.5270 hn        1 EVH      0.456800
     14 HN1        -1.0820    1.9640    0.3400 hn        1 EVH      0.324700
@<TRIPOS>BOND
     1    1    3 2   
     2    1    4 1   
     3    1    5 2   
     4    1    9 1   
     5    2    4 1   
     6    2    8 1   
     7    2   14 1   
     8    4    6 2   
     9    6    7 1   
    10    7    8 2   
    11    7   10 1   
    12    8   11 1   
    13    9   12 1   
    14    9   13 1   
@<TRIPOS>SUBSTRUCTURE
     1 EVH         1 TEMP              0 ****  ****    0 ROOT
