@<TRIPOS>MOLECULE
EVH
   14     9     1     0     0
SMALL
bcc


@<TRIPOS>ATOM
      1 S           0.5880    0.2760   -1.5310 ss        1 EVH      2.895000
      2 N1          0.4870    0.1830    1.3750 n2        1 EVH     -0.086000
      3 O1          1.7750    1.0830   -1.5920 o         1 EVH     -0.932500
      4 C2         -0.0370    0.1750    0.1250 c1        1 EVH     -0.764000
      5 O2         -0.3010    1.0210   -2.3790 o         1 EVH     -0.932500
      6 N3         -1.3840    0.2770    0.2350 n2        1 EVH     -0.086000
      7 C4         -1.6880    0.3470    1.5340 c1        1 EVH     -0.151500
      8 C5         -0.5210    0.2890    2.2450 c1        1 EVH     -0.151500
      9 NH          0.8600   -1.2290   -2.1280 n2        1 EVH     -0.945000
     10 H4         -2.5860    0.4260    1.9100 DU        1 EVH      0.216333
     11 H5         -0.4390    0.3190    3.2170 DU        1 EVH      0.216333
     12 HNH         1.6860   -1.6110   -2.0460 hn        1 EVH      0.252000
     13 HNHA        0.1860   -1.6830   -2.5480 hn        1 EVH      0.252000
     14 HN1         1.3730    0.1270    1.5850 DU        1 EVH      0.216333
@<TRIPOS>BOND
     1    1    3 1   
     2    1    5 1   
     3    2    4 1   
     4    2    8 1   
     5    4    6 1   
     6    6    7 1   
     7    7    8 1   
     8    9   12 1   
     9    9   13 1   
@<TRIPOS>SUBSTRUCTURE
     1 EVH         1 TEMP              0 ****  ****    0 ROOT
