@<TRIPOS>MOLECULE
EVH
   15    15     1     0     0
SMALL
bcc


@<TRIPOS>ATOM
      1 S          -0.1820    0.2920    0.0180 sy        1 EVH      1.451800
      2 N1          0.2790    0.4810    2.6970 na        1 EVH     -0.169900
      3 O1          1.1630    0.5190   -0.1820 o         1 EVH     -0.559300
      4 C2         -0.5250    0.1330    1.5830 cc        1 EVH     -0.120600
      5 O2         -1.1480    0.8530   -0.7740 o         1 EVH     -0.559300
      6 N3         -1.7600   -0.3350    2.0430 nd        1 EVH     -0.542000
      7 C4         -1.7280   -0.2640    3.3900 cd        1 EVH      0.330200
      8 C5         -0.4480    0.2580    3.8220 cc        1 EVH     -0.106600
      9 NH         -0.3570   -1.5240   -0.4700 nz        1 EVH     -0.789500
     10 H4         -2.5680   -0.5600    4.0290 h4        1 EVH      0.093100
     11 H5         -0.0800    0.4540    4.8370 h4        1 EVH      0.228000
     12 HNH         0.5110   -1.8820   -0.8680 hn        1 EVH      0.465467
     13 HNHA       -1.0890   -1.6300   -1.1750 hn        1 EVH      0.465467
     14 HH3        -0.6050   -2.1220    0.3160 hn        1 EVH      0.465467
     15 HN1         1.2040    0.8480    2.6300 hn        1 EVH      0.348700
@<TRIPOS>BOND
     1    1    3 2   
     2    1    4 1   
     3    1    5 2   
     4    1    9 1   
     5    2    4 1   
     6    2    8 1   
     7    2   15 1   
     8    4    6 2   
     9    6    7 1   
    10    7    8 2   
    11    7   10 1   
    12    8   11 1   
    13    9   12 1   
    14    9   13 1   
    15    9   14 1   
@<TRIPOS>SUBSTRUCTURE
     1 EVH         1 TEMP              0 ****  ****    0 ROOT
