@<TRIPOS>MOLECULE
EVH
   15    15     1     0     0
SMALL
bcc


@<TRIPOS>ATOM
      1 S          -0.1750    0.2950    0.0200 sy        1 EVH      1.451800
      2 N1          0.2770    0.4760    2.7010 na        1 EVH     -0.169900
      3 O1          1.1710    0.5180   -0.1740 o         1 EVH     -0.559300
      4 C2         -0.5250    0.1330    1.5840 cc        1 EVH     -0.120600
      5 O2         -1.1370    0.8600   -0.7730 o         1 EVH     -0.559300
      6 N3         -1.7620   -0.3330    2.0390 nd        1 EVH     -0.542000
      7 C4         -1.7350   -0.2650    3.3860 cd        1 EVH      0.330200
      8 C5         -0.4550    0.2520    3.8240 cc        1 EVH     -0.106600
      9 NH         -0.3530   -1.5200   -0.4720 n4        1 EVH     -0.789500
     10 H4         -2.5780   -0.5600    4.0210 h4        1 EVH      0.093100
     11 H5         -0.0900    0.4460    4.8400 h4        1 EVH      0.228000
     12 HNH         0.5150   -1.8800   -0.8690 hn        1 EVH      0.465467
     13 HNHA       -1.0840   -1.6230   -1.1790 hn        1 EVH      0.465467
     14 HH3        -0.6060   -2.1200    0.3120 hn        1 EVH      0.465467
     15 HN1         1.2020    0.8410    2.6390 hn        1 EVH      0.348700
@<TRIPOS>BOND
     1    1    3 2   
     2    1    4 1   
     3    1    5 2   
     4    1    9 1   
     5    2    4 1   
     6    2    8 1   
     7    2   15 1   
     8    4    6 2   
     9    6    7 1   
    10    7    8 2   
    11    7   10 1   
    12    8   11 1   
    13    9   12 1   
    14    9   13 1   
    15    9   14 1   
@<TRIPOS>SUBSTRUCTURE
     1 EVH         1 TEMP              0 ****  ****    0 ROOT
