@<TRIPOS>MOLECULE
EVH
   15    15     1     0     0
SMALL
bcc


@<TRIPOS>ATOM
      1 S          -0.2010    0.3040    0.0190 sy        1 EVH      1.451800
      2 N1          0.2930    0.4730    2.6930 na        1 EVH     -0.169900
      3 O1          1.1410    0.5350   -0.1960 o         1 EVH     -0.559300
      4 C2         -0.5250    0.1320    1.5870 cc        1 EVH     -0.120600
      5 O2         -1.1780    0.8690   -0.7560 o         1 EVH     -0.559300
      6 N3         -1.7520   -0.3420    2.0590 nd        1 EVH     -0.542000
      7 C4         -1.7040   -0.2810    3.4050 cd        1 EVH      0.330200
      8 C5         -0.4190    0.2390    3.8260 cc        1 EVH     -0.106600
      9 NH         -0.3780   -1.5090   -0.4810 n4        1 EVH     -0.789500
     10 H4         -2.5350   -0.5840    4.0530 h4        1 EVH      0.093100
     11 H5         -0.0390    0.4290    4.8370 h4        1 EVH      0.228000
     12 HNH         0.4850   -1.8630   -0.8920 hn        1 EVH      0.465467
     13 HNHA       -1.1190   -1.6110   -1.1780 hn        1 EVH      0.465467
     14 HH3        -0.6170   -2.1140    0.3030 hn        1 EVH      0.465467
     15 HN1         1.2160    0.8420    2.6180 hn        1 EVH      0.348700
@<TRIPOS>BOND
     1    1    3 2   
     2    1    4 1   
     3    1    5 2   
     4    1    9 1   
     5    2    4 1   
     6    2    8 1   
     7    2   15 1   
     8    4    6 2   
     9    6    7 1   
    10    7    8 2   
    11    7   10 1   
    12    8   11 1   
    13    9   12 1   
    14    9   13 1   
    15    9   14 1   
@<TRIPOS>SUBSTRUCTURE
     1 EVH         1 TEMP              0 ****  ****    0 ROOT
