@<TRIPOS>MOLECULE
EVI
   13     9     1     0     0
SMALL
bcc


@<TRIPOS>ATOM
      1 S           0.6200    0.0030   -1.5300 ss        1 EVI      2.893000
      2 O1          2.0560    0.0030   -1.5300 o         1 EVI     -0.931500
      3 S1          0.3890    1.3020    0.8450 ss        1 EVI      0.786000
      4 C2         -0.0240    0.0030    0.1220 c1        1 EVI     -1.078000
      5 O2          0.3410    1.2430   -2.1980 o         1 EVI     -0.931500
      6 N3         -0.7660   -0.7970    1.0440 n2        1 EVI     -0.039000
      7 C4         -0.8550   -0.0260    2.4090 c1        1 EVI     -0.143000
      8 C5         -0.1560    1.2290    2.2670 c1        1 EVI     -0.492000
      9 NH          0.0240   -1.2750   -2.3720 n2        1 EVI     -0.942000
     10 H4         -1.3060   -0.3420    3.2150 DU        1 EVI      0.188500
     11 H5         -0.0520    1.9100    2.9590 DU        1 EVI      0.188500
     12 HNH         0.4860   -2.0610   -2.3960 hn        1 EVI      0.250500
     13 HNHA       -0.7580   -1.1920   -2.8350 hn        1 EVI      0.250500
@<TRIPOS>BOND
     1    1    2 1   
     2    1    5 1   
     3    3    4 1   
     4    3    8 1   
     5    4    6 1   
     6    6    7 1   
     7    7    8 1   
     8    9   12 1   
     9    9   13 1   
@<TRIPOS>SUBSTRUCTURE
     1 EVI         1 TEMP              0 ****  ****    0 ROOT
