@<TRIPOS>MOLECULE
EVI
   13    13     1     0     0
SMALL
bcc


@<TRIPOS>ATOM
      1 S           1.3770   -0.0960    0.0640 sy        1 EVI      1.481800
      2 O1          1.6780   -1.0240   -0.9550 o         1 EVI     -0.652300
      3 S1         -1.4810   -0.8360   -0.7130 ss        1 EVI      0.201700
      4 C2         -0.3200    0.1470    0.0000 cc        1 EVI      0.016300
      5 O2          1.7150   -0.4620    1.3730 o         1 EVI     -0.652300
      6 N3         -0.8440    1.2340    0.6260 nd        1 EVI     -0.565000
      7 C4         -2.2030    1.2260    0.5010 cd        1 EVI      0.322200
      8 C5         -2.7090    0.1310   -0.2190 cc        1 EVI     -0.287400
      9 NH          1.9780    1.3270   -0.3110 n3        1 EVI     -1.015700
     10 H4         -2.7940    2.0310    0.9510 h4        1 EVI      0.051100
     11 H5         -3.7680   -0.0370   -0.4120 h4        1 EVI      0.189000
     12 HNH         2.3060    1.5600   -1.2150 hn        1 EVI      0.455300
     13 HNHA        1.9950    2.0970    0.3120 hn        1 EVI      0.455300
@<TRIPOS>BOND
     1    1    2 2   
     2    1    4 1   
     3    1    5 2   
     4    1    9 1   
     5    3    4 1   
     6    3    8 1   
     7    4    6 2   
     8    6    7 1   
     9    7    8 2   
    10    7   10 1   
    11    8   11 1   
    12    9   12 1   
    13    9   13 1   
@<TRIPOS>SUBSTRUCTURE
     1 EVI         1 TEMP              0 ****  ****    0 ROOT
