@<TRIPOS>MOLECULE
EVI
   14    14     1     0     0
SMALL
bcc


@<TRIPOS>ATOM
      1 S           0.3340   -0.0040    0.2330 sy        1 EVI      1.463800
      2 O1          1.5620   -0.6130    0.2020 o         1 EVI     -0.564800
      3 S1         -0.9410    1.3780    2.5580 ss        1 EVI      0.466700
      4 C2         -0.3990    0.0700    1.6610 cc        1 EVI     -0.262700
      5 O2          0.0610    1.0900   -0.5600 o         1 EVI     -0.564800
      6 N3         -0.5510   -1.1360    2.3560 nd        1 EVI     -0.560000
      7 C4         -1.0820   -0.9030    3.5600 cd        1 EVI      0.370200
      8 C5         -1.3510    0.4810    3.8160 cc        1 EVI     -0.280400
      9 NH         -0.7240   -1.3330   -0.5980 n4        1 EVI     -0.782500
     10 H4         -1.2740   -1.7280    4.2640 h4        1 EVI      0.091100
     11 H5         -1.7790    0.8230    4.7670 h4        1 EVI      0.232000
     12 HNH        -1.5620   -1.5670   -0.0700 hn        1 EVI      0.463467
     13 HNHA       -1.0190   -1.0310   -1.5260 hn        1 EVI      0.463467
     14 HH3        -0.1820   -2.1910   -0.7050 hn        1 EVI      0.463467
@<TRIPOS>BOND
     1    1    2 2   
     2    1    4 1   
     3    1    5 2   
     4    1    9 1   
     5    3    4 1   
     6    3    8 1   
     7    4    6 2   
     8    6    7 1   
     9    7    8 2   
    10    7   10 1   
    11    8   11 1   
    12    9   12 1   
    13    9   13 1   
    14    9   14 1   
@<TRIPOS>SUBSTRUCTURE
     1 EVI         1 TEMP              0 ****  ****    0 ROOT
