@<TRIPOS>MOLECULE
EVI
   14    14     1     0     0
SMALL
bcc


@<TRIPOS>ATOM
      1 S           0.3280   -0.0070    0.2260 sy        1 EVI      1.463800
      2 O1          1.5420   -0.6400    0.1710 o         1 EVI     -0.564800
      3 S1         -0.8880    1.3680    2.5870 ss        1 EVI      0.466700
      4 C2         -0.3850    0.0620    1.6650 cc        1 EVI     -0.262700
      5 O2          0.0670    1.1030   -0.5470 o         1 EVI     -0.564800
      6 N3         -0.5520   -1.1500    2.3460 nd        1 EVI     -0.560000
      7 C4         -1.0630   -0.9240    3.5600 cd        1 EVI      0.370200
      8 C5         -1.3000    0.4610    3.8380 cc        1 EVI     -0.280400
      9 NH         -0.7680   -1.3020   -0.6080 nz        1 EVI     -0.782500
     10 H4         -1.2630   -1.7550    4.2550 h4        1 EVI      0.091100
     11 H5         -1.7080    0.7990    4.7990 h4        1 EVI      0.232000
     12 HNH        -1.6040   -1.5260   -0.0730 hn        1 EVI      0.463467
     13 HNHA       -1.0680   -0.9820   -1.5280 hn        1 EVI      0.463467
     14 HH3        -0.2450   -2.1710   -0.7330 hn        1 EVI      0.463467
@<TRIPOS>BOND
     1    1    2 2   
     2    1    4 1   
     3    1    5 2   
     4    1    9 1   
     5    3    4 1   
     6    3    8 1   
     7    4    6 2   
     8    6    7 1   
     9    7    8 2   
    10    7   10 1   
    11    8   11 1   
    12    9   12 1   
    13    9   13 1   
    14    9   14 1   
@<TRIPOS>SUBSTRUCTURE
     1 EVI         1 TEMP              0 ****  ****    0 ROOT
