@<TRIPOS>MOLECULE
EVJ
   14     9     1     0     0
SMALL
bcc


@<TRIPOS>ATOM
      1 S           0.7670    0.0830   -1.5770 ss        1 EVJ      2.904000
      2 O1          2.2030    0.0830   -1.5770 o         1 EVJ     -0.940000
      3 S1         -0.8510    1.2700    0.3020 ss        1 EVJ      0.802000
      4 C2          0.1230    0.0830    0.0750 c1        1 EVJ     -0.831000
      5 O2          0.4880    1.3240   -2.2450 o         1 EVJ     -0.940000
      6 C3          0.3290   -0.5750    1.3520 c1        1 EVJ     -0.105500
      7 C4         -0.5270    0.1920    2.4540 c1        1 EVJ     -0.105500
      8 C5         -1.2240    1.2890    1.8080 c1        1 EVJ     -0.831000
      9 NH          0.1710   -1.1950   -2.4190 n2        1 EVJ     -0.953000
     10 H3          0.8960   -1.3540    1.5090 DU        1 EVJ      0.173000
     11 H4         -0.5750   -0.0370    3.4020 DU        1 EVJ      0.173000
     12 H5         -1.8210    1.9260    2.2440 DU        1 EVJ      0.173000
     13 HNH        -0.6630   -1.1500   -2.7850 hn        1 EVJ      0.241000
     14 HNHA        0.6840   -1.9380   -2.5430 hn        1 EVJ      0.241000
@<TRIPOS>BOND
     1    1    2 1   
     2    1    5 1   
     3    3    4 1   
     4    3    8 1   
     5    4    6 1   
     6    6    7 1   
     7    7    8 1   
     8    9   13 1   
     9    9   14 1   
@<TRIPOS>SUBSTRUCTURE
     1 EVJ         1 TEMP              0 ****  ****    0 ROOT
