@<TRIPOS>MOLECULE
EVJ
   15    15     1     0     0
SMALL
bcc


@<TRIPOS>ATOM
      1 S           0.0900    0.2110    0.1660 sy        1 EVJ      1.556200
      2 O1          1.4530    0.0460    0.0840 o         1 EVJ     -0.573800
      3 S1         -1.9640    0.6780    2.2290 ss        1 EVJ      0.440200
      4 C2         -0.5270    0.1120    1.5980 cc        1 EVJ     -0.732600
      5 O2         -0.5990    1.0040   -0.7240 o         1 EVJ     -0.573800
      6 C3          0.2410   -0.4540    2.6720 cd        1 EVJ     -0.007000
      7 C4         -0.4170   -0.3830    3.8960 cd        1 EVJ     -0.154000
      8 C5         -1.6730    0.2400    3.7460 cc        1 EVJ     -0.144100
      9 NH         -0.4510   -1.5350   -0.5060 nz        1 EVJ     -0.782500
     10 H3          1.2500   -0.8660    2.5320 ha        1 EVJ      0.194000
     11 H4         -0.0150   -0.7500    4.8470 ha        1 EVJ      0.202000
     12 H5         -2.3550    0.4040    4.5930 h4        1 EVJ      0.222000
     13 HNH        -1.0690   -1.4280   -1.3070 hn        1 EVJ      0.450800
     14 HNHA        0.3680   -2.0550   -0.8120 hn        1 EVJ      0.450800
     15 HH3        -0.9310   -2.0890    0.1930 hn        1 EVJ      0.450800
@<TRIPOS>BOND
     1    1    2 2   
     2    1    4 1   
     3    1    5 2   
     4    1    9 1   
     5    3    4 1   
     6    3    8 1   
     7    4    6 2   
     8    6    7 1   
     9    6   10 1   
    10    7    8 2   
    11    7   11 1   
    12    8   12 1   
    13    9   13 1   
    14    9   14 1   
    15    9   15 1   
@<TRIPOS>SUBSTRUCTURE
     1 EVJ         1 TEMP              0 ****  ****    0 ROOT
