@<TRIPOS>MOLECULE
EVJ
   15    15     1     0     0
SMALL
bcc


@<TRIPOS>ATOM
      1 S           0.1080    0.2230    0.1790 sy        1 EVJ      1.556200
      2 O1          1.4670    0.0290    0.0960 o         1 EVJ     -0.573800
      3 S1         -1.9400    0.7000    2.2460 ss        1 EVJ      0.440200
      4 C2         -0.5150    0.1130    1.6070 cc        1 EVJ     -0.732600
      5 O2         -0.5610    1.0470   -0.6980 o         1 EVJ     -0.573800
      6 C3          0.2390   -0.4890    2.6730 cd        1 EVJ     -0.007000
      7 C4         -0.4210   -0.4250    3.8970 cd        1 EVJ     -0.154000
      8 C5         -1.6620    0.2290    3.7560 cc        1 EVJ     -0.144100
      9 NH         -0.4710   -1.4980   -0.5250 n4        1 EVJ     -0.782500
     10 H3          1.2380   -0.9210    2.5270 ha        1 EVJ      0.194000
     11 H4         -0.0290   -0.8170    4.8420 ha        1 EVJ      0.202000
     12 H5         -2.3420    0.3940    4.6040 h4        1 EVJ      0.222000
     13 HNH        -1.0840   -1.3630   -1.3250 hn        1 EVJ      0.450800
     14 HNHA        0.3380   -2.0320   -0.8380 hn        1 EVJ      0.450800
     15 HH3        -0.9640   -2.0540    0.1640 hn        1 EVJ      0.450800
@<TRIPOS>BOND
     1    1    2 2   
     2    1    4 1   
     3    1    5 2   
     4    1    9 1   
     5    3    4 1   
     6    3    8 1   
     7    4    6 2   
     8    6    7 1   
     9    6   10 1   
    10    7    8 2   
    11    7   11 1   
    12    8   12 1   
    13    9   13 1   
    14    9   14 1   
    15    9   15 1   
@<TRIPOS>SUBSTRUCTURE
     1 EVJ         1 TEMP              0 ****  ****    0 ROOT
