@<TRIPOS>MOLECULE
EVJ
   14    14     1     0     0
SMALL
bcc


@<TRIPOS>ATOM
      1 S          -1.3640    0.1090    0.1140 sy        1 EVJ      1.565200
      2 O1         -1.8110    1.3520    0.6090 o         1 EVJ     -0.660800
      3 S1          1.3890   -1.0900   -0.0720 ss        1 EVJ      0.262200
      4 C2          0.2980    0.1510    0.0070 cc        1 EVJ     -0.497600
      5 O2         -1.7460   -1.0500    0.8250 o         1 EVJ     -0.660800
      6 C3          0.9770    1.3790    0.0200 cd        1 EVJ     -0.031000
      7 C4          2.3790    1.2170   -0.0480 cd        1 EVJ     -0.180000
      8 C5          2.7160   -0.1320   -0.1070 cc        1 EVJ     -0.180100
      9 NH         -1.8370   -0.0540   -1.4110 n3        1 EVJ     -1.026700
     10 H3          0.4730    2.3500    0.0950 ha        1 EVJ      0.177000
     11 H4          3.0910    2.0440   -0.0490 ha        1 EVJ      0.163000
     12 H5          3.7390   -0.5070   -0.1620 h4        1 EVJ      0.179000
     13 HNH        -1.9390    0.7040   -2.0370 hn        1 EVJ      0.445800
     14 HNHA       -2.0830   -0.9210   -1.8150 hn        1 EVJ      0.445800
@<TRIPOS>BOND
     1    1    2 2   
     2    1    4 1   
     3    1    5 2   
     4    1    9 1   
     5    3    4 1   
     6    3    8 1   
     7    4    6 2   
     8    6    7 1   
     9    6   10 1   
    10    7    8 2   
    11    7   11 1   
    12    8   12 1   
    13    9   13 1   
    14    9   14 1   
@<TRIPOS>SUBSTRUCTURE
     1 EVJ         1 TEMP              0 ****  ****    0 ROOT
