@<TRIPOS>MOLECULE
EVJ
   15    15     1     0     0
SMALL
bcc


@<TRIPOS>ATOM
      1 S           0.1110    0.2090    0.1730 sy        1 EVJ      1.556200
      2 O1          1.4720    0.0270    0.1020 o         1 EVJ     -0.573800
      3 S1         -1.9560    0.6950    2.2190 ss        1 EVJ      0.440200
      4 C2         -0.5210    0.1130    1.5990 cc        1 EVJ     -0.732600
      5 O2         -0.5600    1.0140   -0.7200 o         1 EVJ     -0.573800
      6 C3          0.2310   -0.4660    2.6780 cd        1 EVJ     -0.007000
      7 C4         -0.4370   -0.3910    3.8960 cd        1 EVJ     -0.154000
      8 C5         -1.6840    0.2480    3.7370 cc        1 EVJ     -0.144100
      9 NH         -0.4470   -1.5280   -0.5100 n4        1 EVJ     -0.782500
     10 H3          1.2360   -0.8910    2.5450 ha        1 EVJ      0.194000
     11 H4         -0.0480   -0.7660    4.8490 ha        1 EVJ      0.202000
     12 H5         -2.3710    0.4190    4.5780 h4        1 EVJ      0.222000
     13 HNH         0.3680   -2.0580   -0.8100 hn        1 EVJ      0.450800
     14 HNHA       -1.0560   -1.4100   -1.3160 hn        1 EVJ      0.450800
     15 HH3        -0.9400   -2.0780    0.1830 hn        1 EVJ      0.450800
@<TRIPOS>BOND
     1    1    2 2   
     2    1    4 1   
     3    1    5 2   
     4    1    9 1   
     5    3    4 1   
     6    3    8 1   
     7    4    6 2   
     8    6    7 1   
     9    6   10 1   
    10    7    8 2   
    11    7   11 1   
    12    8   12 1   
    13    9   13 1   
    14    9   14 1   
    15    9   15 1   
@<TRIPOS>SUBSTRUCTURE
     1 EVJ         1 TEMP              0 ****  ****    0 ROOT
