@<TRIPOS>MOLECULE
EVS
   42    46     1     0     0
SMALL
bcc


@<TRIPOS>ATOM
      1 CAA        -0.0110    0.1480   -0.1730 c3        1 EVS     -0.065900
      2 CAE         1.4550    0.1070   -0.0150 c2        1 EVS     -0.148200
      3 CAP         2.0930    0.0190    1.1550 c2        1 EVS     -0.165400
      4 CAK         3.5960   -0.0220    1.2780 c3        1 EVS      0.173000
      5 NAY         4.0430   -0.1840    2.6700 n3        1 EVS     -0.647600
      6 CAX         3.4450   -1.4250    3.2240 c3        1 EVS      0.163500
      7 CAL         3.9790   -1.7380    4.6370 c3        1 EVS     -0.000200
      8 CAR         4.0660   -0.5240    5.4600 cc        1 EVS     -0.134400
      9 CAU         4.3720   -0.3430    6.8580 ca        1 EVS     -0.078800
     10 CAJ         4.6440   -1.2040    7.9220 ca        1 EVS     -0.084000
     11 CAH         4.9060   -0.6660    9.1730 ca        1 EVS     -0.155000
     12 CAG         4.9000    0.7240    9.3860 ca        1 EVS     -0.113000
     13 CAI         4.6300    1.6170    8.3610 ca        1 EVS     -0.144000
     14 CAT         4.3640    1.0890    7.0880 ca        1 EVS     -0.045200
     15 NAN         4.0300    1.7330    5.8890 na        1 EVS     -0.178400
     16 CAS         3.8890    0.7490    4.9070 cd        1 EVS     -0.064300
     17 CAW         3.5390    0.9670    3.4680 c3        1 EVS      0.212700
     18 CAM         2.0010    1.1260    3.3280 c3        1 EVS     -0.102400
     19 CAV         1.4510   -0.0490    2.5120 c3        1 EVS     -0.017500
     20 CAZ         1.8890   -1.3850    3.1460 c3        1 EVS     -0.208700
     21 CAF         1.2150   -1.5730    4.4770 c         1 EVS      0.570900
     22 OAC         0.3950   -2.4700    4.6760 o         1 EVS     -0.529100
     23 HAA        -0.4340    1.0710    0.2990 hc        1 EVS      0.045033
     24 HAAA       -0.4900   -0.7400    0.3130 hc        1 EVS      0.045033
     25 HAAB       -0.2940    0.1490   -1.2540 hc        1 EVS      0.045033
     26 HAE         2.0390    0.1540   -0.9500 ha        1 EVS      0.123000
     27 HAK         4.0420    0.9300    0.8760 h1        1 EVS      0.067700
     28 HAKA        4.0110   -0.8790    0.6790 h1        1 EVS      0.067700
     29 HAX         3.7890   -2.2700    2.5560 h1        1 EVS      0.067700
     30 HAL         3.3260   -2.5140    5.1190 hc        1 EVS      0.060200
     31 HALA        5.0060   -2.1870    4.5360 hc        1 EVS      0.060200
     32 HAJ         4.6480   -2.2920    7.7620 ha        1 EVS      0.135000
     33 HAH         5.1230   -1.3330   10.0190 ha        1 EVS      0.130000
     34 HAG         5.1150    1.1100   10.3940 ha        1 EVS      0.130000
     35 HAI         4.6250    2.7000    8.5370 ha        1 EVS      0.132000
     36 HNAN        4.1190    2.6990    5.7200 hn        1 EVS      0.296700
     37 HAW         4.0510    1.8910    3.0750 h1        1 EVS      0.071700
     38 HAM         1.7710    2.0860    2.8020 hc        1 EVS      0.057200
     39 HAMA        1.5120    1.1590    4.3330 hc        1 EVS      0.057200
     40 HAV         0.3340    0.0030    2.4510 hc        1 EVS      0.072700
     41 HAZ         1.5580   -2.2170    2.4620 hc        1 EVS      0.080700
     42 HAF         1.4990   -0.8460    5.2710 h4        1 EVS      0.018200
@<TRIPOS>BOND
     1    1    2 1   
     2    1   23 1   
     3    1   24 1   
     4    1   25 1   
     5    2    3 2   
     6    2   26 1   
     7    3    4 1   
     8    3   19 1   
     9    4    5 1   
    10    4   27 1   
    11    4   28 1   
    12    5    6 1   
    13    5   17 1   
    14    6    7 1   
    15    6   20 1   
    16    6   29 1   
    17    7    8 1   
    18    7   30 1   
    19    7   31 1   
    20    8    9 1   
    21    8   16 2   
    22    9   10 ar  
    23    9   14 ar  
    24   10   11 ar  
    25   10   32 1   
    26   11   12 ar  
    27   11   33 1   
    28   12   13 ar  
    29   12   34 1   
    30   13   14 ar  
    31   13   35 1   
    32   14   15 1   
    33   15   16 1   
    34   15   36 1   
    35   16   17 1   
    36   17   18 1   
    37   17   37 1   
    38   18   19 1   
    39   18   38 1   
    40   18   39 1   
    41   19   20 1   
    42   19   40 1   
    43   20   21 1   
    44   20   41 1   
    45   21   22 2   
    46   21   42 1   
@<TRIPOS>SUBSTRUCTURE
     1 EVS         1 TEMP              0 ****  ****    0 ROOT
