@<TRIPOS>MOLECULE
EVS
   42    39     1     0     0
SMALL
bcc


@<TRIPOS>ATOM
      1 CAA        -0.8060   -1.0840   -5.1730 c3        1 EVS     -0.189000
      2 CAE        -1.5610   -1.1150   -3.8620 c2        1 EVS     -0.145000
      3 CAP        -0.8850   -1.1150   -2.6940 c1        1 EVS     -0.155000
      4 CAK         0.4010   -1.0900   -2.6960 c2        1 EVS     -0.066000
      5 NAY         0.9370   -0.6210   -1.1110 n3        1 EVS     -0.173000
      6 CAX         0.5460   -1.5780   -0.2080 c3        1 EVS     -0.034000
      7 CAL         0.6100   -1.2180    1.2740 c3        1 EVS     -0.083000
      8 CAR         0.6570    0.2700    1.6350 c2        1 EVS     -0.142000
      9 CAU         0.8560    0.9570    2.8240 c1        1 EVS     -0.067000
     10 CAJ         1.0190    0.5170    4.1470 c1        1 EVS     -0.084000
     11 CAH         1.2750    1.4350    5.1580 c1        1 EVS     -0.134000
     12 CAG         1.3710    2.7920    4.8590 c1        1 EVS     -0.134000
     13 CAI         1.2110    3.2290    3.5500 c1        1 EVS     -0.145000
     14 CAT         0.9520    2.3020    2.5280 c1        1 EVS     -0.000000
     15 NAN         0.8110    2.4520    1.1480 n1        1 EVS     -0.201000
     16 CAS         0.6300    1.2040    0.6000 c1        1 EVS     -0.033000
     17 CAW         0.5470    0.6780   -0.8740 c2        1 EVS      0.011000
     18 CAM        -0.9240    0.7480   -1.3010 c3        1 EVS     -0.182000
     19 CAV        -1.4160   -0.8300   -1.7290 c3        1 EVS     -0.061000
     20 CAZ        -0.9300   -1.8830   -0.5410 c3        1 EVS     -0.199000
     21 CAF        -1.7210   -1.7100    0.6000 c2        1 EVS      0.189000
     22 OAC        -2.1470   -2.6810    1.1990 o         1 EVS     -0.290000
     23 HAA        -0.1710   -0.3370   -5.1680 hc        1 EVS      0.084000
     24 HAAA       -0.3170   -1.9260   -5.2890 hc        1 EVS      0.084000
     25 HAAB       -1.4390   -0.9700   -5.9120 hc        1 EVS      0.084000
     26 HAE        -2.5360   -1.1340   -3.8610 ha        1 EVS      0.124000
     27 HAK         0.7490   -1.9810   -2.9120 h4        1 EVS      0.107500
     28 HAKA        0.7180   -0.4410   -3.3580 h4        1 EVS      0.107500
     29 HAX         1.0760   -2.3860   -0.3570 h1        1 EVS      0.107000
     30 HAL        -0.1730   -1.6070    1.7100 hc        1 EVS      0.099500
     31 HALA        1.4080   -1.6420    1.6500 hc        1 EVS      0.099500
     32 HAJ         0.9520   -0.4330    4.3570 ha        1 EVS      0.135000
     33 HAH         1.3880    1.1290    6.0780 ha        1 EVS      0.130000
     34 HAG         1.5520    3.4370    5.5700 ha        1 EVS      0.130000
     35 HAI         1.2780    4.1800    3.3410 ha        1 EVS      0.132000
     36 HNAN        0.8380    3.2390    0.6890 DU        1 EVS      0.247000
     37 HAW         1.0710    1.2720   -1.4470 h4        1 EVS      0.111000
     38 HAM        -1.0180    1.3450   -2.0700 hc        1 EVS      0.096500
     39 HAMA       -1.4700    1.0750   -0.5580 hc        1 EVS      0.096500
     40 HAV        -2.3870   -0.8680   -1.8470 hc        1 EVS      0.111000
     41 HAZ        -1.0120   -2.8030   -0.8620 hc        1 EVS      0.121000
     42 HAF        -1.9370   -0.8090    0.9140 h4        1 EVS      0.111000
@<TRIPOS>BOND
     1    1    2 1   
     2    1   23 1   
     3    1   24 1   
     4    1   25 1   
     5    2    3 1   
     6    2   26 1   
     7    3   19 1   
     8    4    5 1   
     9    4   27 1   
    10    4   28 1   
    11    5    6 1   
    12    5   17 1   
    13    6    7 1   
    14    6   20 1   
    15    6   29 1   
    16    7    8 1   
    17    7   30 1   
    18    7   31 1   
    19    8    9 1   
    20    8   16 1   
    21    9   10 1   
    22   10   32 1   
    23   11   12 1   
    24   11   33 1   
    25   12   34 1   
    26   13   14 1   
    27   13   35 1   
    28   15   16 1   
    29   17   18 1   
    30   17   37 1   
    31   18   19 1   
    32   18   38 1   
    33   18   39 1   
    34   19   20 1   
    35   19   40 1   
    36   20   21 1   
    37   20   41 1   
    38   21   22 1   
    39   21   42 1   
@<TRIPOS>SUBSTRUCTURE
     1 EVS         1 TEMP              0 ****  ****    0 ROOT
