@<TRIPOS>MOLECULE
EVS
   42    46     1     0     0
SMALL
bcc


@<TRIPOS>ATOM
      1 CAA         5.4570    0.1410    1.1970 c3        1 EVS     -0.065900
      2 CAE         4.7460   -0.5290    0.0910 c2        1 EVS     -0.148200
      3 CAP         3.4260   -0.4810   -0.1060 c2        1 EVS     -0.165400
      4 CAK         2.7340   -1.1790   -1.2510 c3        1 EVS      0.173000
      5 NAY         1.2880   -0.9140   -1.2790 n3        1 EVS     -0.647600
      6 CAX         1.0690    0.5520   -1.3610 c3        1 EVS      0.163500
      7 CAL        -0.4230    0.9010   -1.5360 c3        1 EVS     -0.000200
      8 CAR        -1.2740    0.0700   -0.6730 cc        1 EVS     -0.134400
      9 CAU        -2.6890    0.1250   -0.3960 ca        1 EVS     -0.078800
     10 CAJ        -3.7320    0.9680   -0.7830 ca        1 EVS     -0.084000
     11 CAH        -5.0110    0.7140   -0.3130 ca        1 EVS     -0.155000
     12 CAG        -5.2740   -0.3710    0.5430 ca        1 EVS     -0.113000
     13 CAI        -4.2690   -1.2310    0.9570 ca        1 EVS     -0.144000
     14 CAT        -2.9680   -0.9890    0.4900 ca        1 EVS     -0.045200
     15 NAN        -1.7660   -1.6570    0.7610 na        1 EVS     -0.178400
     16 CAS        -0.7590   -1.0290    0.0240 cd        1 EVS     -0.064300
     17 CAW         0.6910   -1.4000   -0.0050 c3        1 EVS      0.212700
     18 CAM         1.4060   -0.7850    1.2280 c3        1 EVS     -0.102400
     19 CAV         2.4280    0.2510    0.7460 c3        1 EVS     -0.017500
     20 CAZ         1.7400    1.2890   -0.1640 c3        1 EVS     -0.208700
     21 CAF         0.7840    2.1280    0.6380 c         1 EVS      0.570900
     22 OAC         0.9620    3.3330    0.8190 o         1 EVS     -0.529100
     23 HAA         5.2230    1.2360    1.2180 hc        1 EVS      0.045033
     24 HAAA        5.1540   -0.2950    2.1820 hc        1 EVS      0.045033
     25 HAAB        6.5630    0.0230    1.0880 hc        1 EVS      0.045033
     26 HAE         5.3790   -1.1060   -0.6050 ha        1 EVS      0.123000
     27 HAK         3.1680   -0.8390   -2.2320 h1        1 EVS      0.067700
     28 HAKA        2.8850   -2.2910   -1.1710 h1        1 EVS      0.067700
     29 HAX         1.5930    0.8990   -2.3010 h1        1 EVS      0.067700
     30 HAL        -0.5770    1.9940   -1.3330 hc        1 EVS      0.060200
     31 HALA       -0.7050    0.7210   -2.6110 hc        1 EVS      0.060200
     32 HAJ        -3.5320    1.8190   -1.4500 ha        1 EVS      0.135000
     33 HAH        -5.8430    1.3700   -0.6110 ha        1 EVS      0.130000
     34 HAG        -6.3040   -0.5380    0.8910 ha        1 EVS      0.130000
     35 HAI        -4.4820   -2.0740    1.6270 ha        1 EVS      0.132000
     36 HNAN       -1.6920   -2.5400    1.1910 hn        1 EVS      0.296700
     37 HAW         0.8090   -2.5210    0.0100 h1        1 EVS      0.071700
     38 HAM         0.6680   -0.3050    1.9170 hc        1 EVS      0.057200
     39 HAMA        1.9330   -1.5920    1.7960 hc        1 EVS      0.057200
     40 HAV         2.9130    0.7600    1.6170 hc        1 EVS      0.072700
     41 HAZ         2.5390    1.9660   -0.5810 hc        1 EVS      0.080700
     42 HAF        -0.0920    1.5910    1.0650 h4        1 EVS      0.018200
@<TRIPOS>BOND
     1    1    2 1   
     2    1   23 1   
     3    1   24 1   
     4    1   25 1   
     5    2    3 2   
     6    2   26 1   
     7    3    4 1   
     8    3   19 1   
     9    4    5 1   
    10    4   27 1   
    11    4   28 1   
    12    5    6 1   
    13    5   17 1   
    14    6    7 1   
    15    6   20 1   
    16    6   29 1   
    17    7    8 1   
    18    7   30 1   
    19    7   31 1   
    20    8    9 1   
    21    8   16 2   
    22    9   10 ar  
    23    9   14 ar  
    24   10   11 ar  
    25   10   32 1   
    26   11   12 ar  
    27   11   33 1   
    28   12   13 ar  
    29   12   34 1   
    30   13   14 ar  
    31   13   35 1   
    32   14   15 1   
    33   15   16 1   
    34   15   36 1   
    35   16   17 1   
    36   17   18 1   
    37   17   37 1   
    38   18   19 1   
    39   18   38 1   
    40   18   39 1   
    41   19   20 1   
    42   19   40 1   
    43   20   21 1   
    44   20   41 1   
    45   21   22 2   
    46   21   42 1   
@<TRIPOS>SUBSTRUCTURE
     1 EVS         1 TEMP              0 ****  ****    0 ROOT
