@<TRIPOS>MOLECULE
EVS
   42    46     1     0     0
SMALL
bcc


@<TRIPOS>ATOM
      1 CAA        -0.0100    0.1460   -0.1750 c3        1 EVS     -0.065900
      2 CAE         1.4570    0.1070   -0.0150 c2        1 EVS     -0.148200
      3 CAP         2.0940    0.0200    1.1550 c2        1 EVS     -0.165400
      4 CAK         3.5970   -0.0190    1.2790 c3        1 EVS      0.173000
      5 NAY         4.0430   -0.1820    2.6700 n3        1 EVS     -0.647600
      6 CAX         3.4480   -1.4240    3.2240 c3        1 EVS      0.163500
      7 CAL         3.9820   -1.7370    4.6360 c3        1 EVS     -0.000200
      8 CAR         4.0660   -0.5240    5.4600 cc        1 EVS     -0.134400
      9 CAU         4.3710   -0.3430    6.8590 ca        1 EVS     -0.078800
     10 CAJ         4.6440   -1.2050    7.9220 ca        1 EVS     -0.084000
     11 CAH         4.9050   -0.6660    9.1730 ca        1 EVS     -0.155000
     12 CAG         4.8960    0.7230    9.3880 ca        1 EVS     -0.113000
     13 CAI         4.6250    1.6160    8.3630 ca        1 EVS     -0.144000
     14 CAT         4.3600    1.0890    7.0900 ca        1 EVS     -0.045200
     15 NAN         4.0260    1.7340    5.8910 na        1 EVS     -0.178400
     16 CAS         3.8870    0.7500    4.9080 cd        1 EVS     -0.064300
     17 CAW         3.5380    0.9680    3.4690 c3        1 EVS      0.212700
     18 CAM         1.9990    1.1250    3.3290 c3        1 EVS     -0.102400
     19 CAV         1.4510   -0.0500    2.5110 c3        1 EVS     -0.017500
     20 CAZ         1.8920   -1.3870    3.1440 c3        1 EVS     -0.208700
     21 CAF         1.2180   -1.5760    4.4750 c         1 EVS      0.570900
     22 OAC         0.3990   -2.4750    4.6730 o         1 EVS     -0.529100
     23 HAA        -0.2920    0.1250   -1.2560 hc        1 EVS      0.045033
     24 HAAA       -0.4910   -0.7300    0.3300 hc        1 EVS      0.045033
     25 HAAB       -0.4310    1.0800    0.2780 hc        1 EVS      0.045033
     26 HAE         2.0410    0.1570   -0.9500 ha        1 EVS      0.123000
     27 HAK         4.0140   -0.8750    0.6790 h1        1 EVS      0.067700
     28 HAKA        4.0410    0.9340    0.8780 h1        1 EVS      0.067700
     29 HAX         3.7940   -2.2670    2.5550 h1        1 EVS      0.067700
     30 HAL         3.3310   -2.5140    5.1180 hc        1 EVS      0.060200
     31 HALA        5.0100   -2.1830    4.5350 hc        1 EVS      0.060200
     32 HAJ         4.6500   -2.2920    7.7610 ha        1 EVS      0.135000
     33 HAH         5.1230   -1.3350   10.0190 ha        1 EVS      0.130000
     34 HAG         5.1100    1.1080   10.3960 ha        1 EVS      0.130000
     35 HAI         4.6180    2.7000    8.5400 ha        1 EVS      0.132000
     36 HNAN        4.1140    2.7000    5.7230 hn        1 EVS      0.296700
     37 HAW         4.0480    1.8940    3.0780 h1        1 EVS      0.071700
     38 HAM         1.5100    1.1560    4.3330 hc        1 EVS      0.057200
     39 HAMA        1.7680    2.0840    2.8040 hc        1 EVS      0.057200
     40 HAV         0.3350   -0.0000    2.4500 hc        1 EVS      0.072700
     41 HAZ         1.5620   -2.2180    2.4600 hc        1 EVS      0.081700
     42 HAF         1.5000   -0.8500    5.2700 h4        1 EVS      0.018200
@<TRIPOS>BOND
     1    1    2 1   
     2    1   23 1   
     3    1   24 1   
     4    1   25 1   
     5    2    3 2   
     6    2   26 1   
     7    3    4 1   
     8    3   19 1   
     9    4    5 1   
    10    4   27 1   
    11    4   28 1   
    12    5    6 1   
    13    5   17 1   
    14    6    7 1   
    15    6   20 1   
    16    6   29 1   
    17    7    8 1   
    18    7   30 1   
    19    7   31 1   
    20    8    9 1   
    21    8   16 2   
    22    9   10 ar  
    23    9   14 ar  
    24   10   11 ar  
    25   10   32 1   
    26   11   12 ar  
    27   11   33 1   
    28   12   13 ar  
    29   12   34 1   
    30   13   14 ar  
    31   13   35 1   
    32   14   15 1   
    33   15   16 1   
    34   15   36 1   
    35   16   17 1   
    36   17   18 1   
    37   17   37 1   
    38   18   19 1   
    39   18   38 1   
    40   18   39 1   
    41   19   20 1   
    42   19   40 1   
    43   20   21 1   
    44   20   41 1   
    45   21   22 2   
    46   21   42 1   
@<TRIPOS>SUBSTRUCTURE
     1 EVS         1 TEMP              0 ****  ****    0 ROOT
