@<TRIPOS>MOLECULE
EVS
   42    46     1     0     0
SMALL
bcc


@<TRIPOS>ATOM
      1 CAA        -0.0100    0.1430   -0.1740 c3        1 EVS     -0.065900
      2 CAE         1.4560    0.1050   -0.0150 c2        1 EVS     -0.148200
      3 CAP         2.0940    0.0190    1.1550 c2        1 EVS     -0.165400
      4 CAK         3.5970   -0.0190    1.2790 c3        1 EVS      0.173000
      5 NAY         4.0430   -0.1810    2.6700 n3        1 EVS     -0.647600
      6 CAX         3.4490   -1.4240    3.2240 c3        1 EVS      0.163500
      7 CAL         3.9830   -1.7360    4.6370 c3        1 EVS     -0.000200
      8 CAR         4.0660   -0.5220    5.4600 cc        1 EVS     -0.134400
      9 CAU         4.3710   -0.3410    6.8590 ca        1 EVS     -0.078800
     10 CAJ         4.6450   -1.2020    7.9220 ca        1 EVS     -0.084000
     11 CAH         4.9050   -0.6630    9.1730 ca        1 EVS     -0.155000
     12 CAG         4.8950    0.7270    9.3880 ca        1 EVS     -0.113000
     13 CAI         4.6240    1.6190    8.3620 ca        1 EVS     -0.144000
     14 CAT         4.3590    1.0910    7.0890 ca        1 EVS     -0.045200
     15 NAN         4.0250    1.7350    5.8900 na        1 EVS     -0.178400
     16 CAS         3.8860    0.7510    4.9080 cd        1 EVS     -0.064300
     17 CAW         3.5360    0.9690    3.4690 c3        1 EVS      0.212700
     18 CAM         1.9980    1.1240    3.3290 c3        1 EVS     -0.102400
     19 CAV         1.4510   -0.0520    2.5110 c3        1 EVS     -0.017500
     20 CAZ         1.8930   -1.3880    3.1450 c3        1 EVS     -0.208700
     21 CAF         1.2190   -1.5770    4.4750 c         1 EVS      0.570900
     22 OAC         0.4010   -2.4770    4.6730 o         1 EVS     -0.529100
     23 HAA        -0.4870   -0.7450    0.3120 hc        1 EVS      0.045033
     24 HAAA       -0.4350    1.0650    0.2980 hc        1 EVS      0.045033
     25 HAAB       -0.2930    0.1430   -1.2550 hc        1 EVS      0.045033
     26 HAE         2.0400    0.1550   -0.9500 ha        1 EVS      0.123000
     27 HAK         4.0140   -0.8750    0.6790 h1        1 EVS      0.067700
     28 HAKA        4.0400    0.9340    0.8770 h1        1 EVS      0.067700
     29 HAX         3.7960   -2.2670    2.5550 h1        1 EVS      0.067700
     30 HAL         5.0110   -2.1810    4.5360 hc        1 EVS      0.060200
     31 HALA        3.3320   -2.5130    5.1180 hc        1 EVS      0.060200
     32 HAJ         4.6520   -2.2890    7.7620 ha        1 EVS      0.135000
     33 HAH         5.1240   -1.3300   10.0200 ha        1 EVS      0.130000
     34 HAG         5.1090    1.1130   10.3960 ha        1 EVS      0.130000
     35 HAI         4.6160    2.7030    8.5390 ha        1 EVS      0.132000
     36 HNAN        4.1110    2.7010    5.7210 hn        1 EVS      0.296700
     37 HAW         4.0460    1.8950    3.0770 h1        1 EVS      0.071700
     38 HAM         1.5090    1.1550    4.3330 hc        1 EVS      0.057200
     39 HAMA        1.7650    2.0830    2.8030 hc        1 EVS      0.057200
     40 HAV         0.3350   -0.0030    2.4500 hc        1 EVS      0.072700
     41 HAZ         1.5640   -2.2200    2.4610 hc        1 EVS      0.080700
     42 HAF         1.5000   -0.8510    5.2700 h4        1 EVS      0.018200
@<TRIPOS>BOND
     1    1    2 1   
     2    1   23 1   
     3    1   24 1   
     4    1   25 1   
     5    2    3 2   
     6    2   26 1   
     7    3    4 1   
     8    3   19 1   
     9    4    5 1   
    10    4   27 1   
    11    4   28 1   
    12    5    6 1   
    13    5   17 1   
    14    6    7 1   
    15    6   20 1   
    16    6   29 1   
    17    7    8 1   
    18    7   30 1   
    19    7   31 1   
    20    8    9 1   
    21    8   16 2   
    22    9   10 ar  
    23    9   14 ar  
    24   10   11 ar  
    25   10   32 1   
    26   11   12 ar  
    27   11   33 1   
    28   12   13 ar  
    29   12   34 1   
    30   13   14 ar  
    31   13   35 1   
    32   14   15 1   
    33   15   16 1   
    34   15   36 1   
    35   16   17 1   
    36   17   18 1   
    37   17   37 1   
    38   18   19 1   
    39   18   38 1   
    40   18   39 1   
    41   19   20 1   
    42   19   40 1   
    43   20   21 1   
    44   20   41 1   
    45   21   22 2   
    46   21   42 1   
@<TRIPOS>SUBSTRUCTURE
     1 EVS         1 TEMP              0 ****  ****    0 ROOT
