@<TRIPOS>MOLECULE
EWQ
   32    33     1     0     0
SMALL
bcc


@<TRIPOS>ATOM
      1 C1         -0.9290   -1.6790   -0.0040 ca        1 EWQ     -0.146000
      2 C2          0.3290   -1.0570    0.0060 ca        1 EWQ     -0.072800
      3 C3          0.4480    0.3640    0.0070 ca        1 EWQ      0.058600
      4 C4         -0.7790    1.1140   -0.0030 ca        1 EWQ      0.119100
      5 C5         -2.0210    0.4870   -0.0130 ca        1 EWQ     -0.236000
      6 C6         -2.0910   -0.9140   -0.0140 ca        1 EWQ      0.121100
      7 C7          1.5310   -1.8710    0.0160 cc        1 EWQ      0.012600
      8 C8          2.7440   -1.2740    0.0260 cd        1 EWQ     -0.227200
      9 C9          2.8860    0.1840    0.0280 c         1 EWQ      0.688700
     10 N10         1.7130    0.9650    0.0180 n         1 EWQ     -0.335000
     11 C11         1.8560    2.4010    0.0190 c3        1 EWQ      0.071300
     12 O12         4.0030    0.7430    0.0370 o         1 EWQ     -0.642500
     13 C13         1.4130   -3.3490    0.0150 c3        1 EWQ     -0.068900
     14 O14        -0.6690    2.4940   -0.0020 os        1 EWQ     -0.330900
     15 C15        -1.8790    3.2420   -0.0120 c3        1 EWQ      0.112700
     16 O16        -3.2720   -1.6350   -0.0240 os        1 EWQ     -0.323900
     17 C17        -4.4750   -0.8770   -0.0340 c3        1 EWQ      0.113700
     18 H1         -1.0120   -2.7760   -0.0050 ha        1 EWQ      0.156000
     19 H5         -2.9460    1.0780   -0.0210 ha        1 EWQ      0.147000
     20 H8          3.6910   -1.8330    0.0340 ha        1 EWQ      0.164000
     21 H11         1.3650    2.8330    0.9320 h1        1 EWQ      0.061033
     22 H11A        2.9450    2.6780    0.0290 h1        1 EWQ      0.061033
     23 H11B        1.3800    2.8340   -0.9010 h1        1 EWQ      0.061033
     24 H13         0.8650   -3.6930   -0.8980 hc        1 EWQ      0.054700
     25 H13A        2.4210   -3.8320    0.0230 hc        1 EWQ      0.054700
     26 H13B        0.8500   -3.6930    0.9190 hc        1 EWQ      0.054700
     27 H15        -2.4690    3.0300   -0.9370 h1        1 EWQ      0.046367
     28 H15A       -2.4840    3.0300    0.9020 h1        1 EWQ      0.046367
     29 H15B       -1.5210    4.3030   -0.0090 h1        1 EWQ      0.046367
     30 H17        -4.5520   -0.2450    0.8840 h1        1 EWQ      0.044033
     31 H17A       -4.5370   -0.2450   -0.9530 h1        1 EWQ      0.044033
     32 H17B       -5.2740   -1.6610   -0.0410 h1        1 EWQ      0.044033
@<TRIPOS>BOND
     1    1    2 ar  
     2    1    6 ar  
     3    1   18 1   
     4    2    3 ar  
     5    2    7 1   
     6    3    4 ar  
     7    3   10 1   
     8    4    5 ar  
     9    4   14 1   
    10    5    6 ar  
    11    5   19 1   
    12    6   16 1   
    13    7    8 2   
    14    7   13 1   
    15    8    9 1   
    16    8   20 1   
    17    9   10 1   
    18    9   12 2   
    19   10   11 1   
    20   11   21 1   
    21   11   22 1   
    22   11   23 1   
    23   13   24 1   
    24   13   25 1   
    25   13   26 1   
    26   14   15 1   
    27   15   27 1   
    28   15   28 1   
    29   15   29 1   
    30   16   17 1   
    31   17   30 1   
    32   17   31 1   
    33   17   32 1   
@<TRIPOS>SUBSTRUCTURE
     1 EWQ         1 TEMP              0 ****  ****    0 ROOT
