@<TRIPOS>MOLECULE
EWQ
   32    33     1     0     0
SMALL
bcc


@<TRIPOS>ATOM
      1 C1          0.0100    0.0000    0.0340 ca        1 EWQ     -0.146000
      2 C2          1.4140    0.0010    0.0360 ca        1 EWQ     -0.072800
      3 C3          2.1480    0.0000    1.2580 ca        1 EWQ      0.058600
      4 C4          1.3790   -0.0010    2.4730 ca        1 EWQ      0.119100
      5 C5         -0.0110   -0.0010    2.4590 ca        1 EWQ     -0.236000
      6 C6         -0.6940   -0.0010    1.2330 ca        1 EWQ      0.121100
      7 C7          2.1320    0.0020   -1.2260 cc        1 EWQ      0.012600
      8 C8          3.4840    0.0020   -1.2260 cd        1 EWQ     -0.227200
      9 C9          4.2560    0.0010    0.0180 c         1 EWQ      0.688700
     10 N10         3.5490    0.0000    1.2370 n         1 EWQ     -0.335000
     11 C11         4.3120    0.0000    2.4620 c3        1 EWQ      0.071300
     12 O12         5.5050    0.0010    0.0250 o         1 EWQ     -0.642500
     13 C13         1.3720    0.0020   -2.5000 c3        1 EWQ     -0.068900
     14 O14         2.0890   -0.0010    3.6620 os        1 EWQ     -0.330900
     15 C15         1.3340   -0.0030    4.8670 c3        1 EWQ      0.112700
     16 O16        -2.0720   -0.0010    1.1090 os        1 EWQ     -0.323900
     17 C17        -2.8160   -0.0030    2.3210 c3        1 EWQ      0.113700
     18 H1         -0.5490    0.0010   -0.9140 ha        1 EWQ      0.156000
     19 H5         -0.5800   -0.0020    3.3990 ha        1 EWQ      0.147000
     20 H8          4.0860    0.0020   -2.1470 ha        1 EWQ      0.164000
     21 H11         4.0700   -0.9170    3.0630 h1        1 EWQ      0.061033
     22 H11A        4.0690    0.9160    3.0640 h1        1 EWQ      0.061033
     23 H11B        5.4110    0.0010    2.2290 h1        1 EWQ      0.061033
     24 H13         0.7220   -0.9060   -2.5640 hc        1 EWQ      0.054700
     25 H13A        2.0630    0.0030   -3.3790 hc        1 EWQ      0.054700
     26 H13B        0.7220    0.9110   -2.5620 hc        1 EWQ      0.054700
     27 H15         2.1240   -0.0040    5.6610 h1        1 EWQ      0.046367
     28 H15A        0.7040    0.9160    4.9430 h1        1 EWQ      0.046367
     29 H15B        0.7050   -0.9230    4.9410 h1        1 EWQ      0.046367
     30 H17        -2.6000    0.9140    2.9200 h1        1 EWQ      0.044033
     31 H17A       -3.8800   -0.0040    1.9710 h1        1 EWQ      0.044033
     32 H17B       -2.5980   -0.9220    2.9170 h1        1 EWQ      0.044033
@<TRIPOS>BOND
     1    1    2 ar  
     2    1    6 ar  
     3    1   18 1   
     4    2    3 ar  
     5    2    7 1   
     6    3    4 ar  
     7    3   10 1   
     8    4    5 ar  
     9    4   14 1   
    10    5    6 ar  
    11    5   19 1   
    12    6   16 1   
    13    7    8 2   
    14    7   13 1   
    15    8    9 1   
    16    8   20 1   
    17    9   10 1   
    18    9   12 2   
    19   10   11 1   
    20   11   21 1   
    21   11   22 1   
    22   11   23 1   
    23   13   24 1   
    24   13   25 1   
    25   13   26 1   
    26   14   15 1   
    27   15   27 1   
    28   15   28 1   
    29   15   29 1   
    30   16   17 1   
    31   17   30 1   
    32   17   31 1   
    33   17   32 1   
@<TRIPOS>SUBSTRUCTURE
     1 EWQ         1 TEMP              0 ****  ****    0 ROOT
