@<TRIPOS>MOLECULE
EWQ
   32    29     1     0     0
SMALL
bcc


@<TRIPOS>ATOM
      1 C1         -1.3080    0.0290   -1.1720 c1        1 EWQ     -0.146000
      2 C2          0.0880    0.0750   -1.1410 c1        1 EWQ     -0.061000
      3 C3          0.7670    0.0480    0.0970 c1        1 EWQ      0.066000
      4 C4          0.0420   -0.0260    1.2910 c2        1 EWQ      0.074000
      5 C5         -1.3500   -0.0720    1.2590 c1        1 EWQ     -0.236000
      6 C6         -2.0300   -0.0440    0.0210 c1        1 EWQ      0.076000
      7 C7          0.8750    0.1410   -2.4370 c2        1 EWQ      0.005000
      8 C8          2.3260    0.1380   -2.4000 c1        1 EWQ     -0.208000
      9 C9          3.0280    0.0440   -1.1020 c1        1 EWQ      0.327000
     10 N10         2.2690    0.0310    0.1340 n2        1 EWQ     -0.238000
     11 C11         2.9510    0.0060    1.3930 c3        1 EWQ     -0.084000
     12 O12         4.2480    0.0420   -1.0670 o         1 EWQ     -0.367000
     13 C13         0.1450    0.0720   -3.7800 c3        1 EWQ     -0.191000
     14 O14         0.2920   -0.7560    2.4780 os        1 EWQ     -0.214000
     15 C15         0.1980    0.0210    3.6620 c3        1 EWQ     -0.077000
     16 O16        -3.3080    0.3380   -0.4640 os        1 EWQ     -0.207000
     17 C17        -4.3810   -0.1490    0.3070 c3        1 EWQ     -0.076000
     18 H1         -1.7830    0.0480   -2.0340 ha        1 EWQ      0.156000
     19 H5         -1.8550   -0.1230    2.0920 ha        1 EWQ      0.147000
     20 H8          2.8390    0.1470   -3.2370 ha        1 EWQ      0.164000
     21 H11         2.7040   -0.8040    1.8810 h1        1 EWQ      0.100333
     22 H11A        3.9380    0.0120    1.2370 h1        1 EWQ      0.100333
     23 H11B        2.7000    0.7890    1.9150 h1        1 EWQ      0.100333
     24 H13         0.7970    0.1670   -4.5150 hc        1 EWQ      0.094000
     25 H13A       -0.5130    0.7940   -3.8320 hc        1 EWQ      0.094000
     26 H13B       -0.3150   -0.7960   -3.8600 hc        1 EWQ      0.094000
     27 H15        -0.6330   -0.2060    4.1380 h1        1 EWQ      0.085667
     28 H15A        0.1910    0.9780    3.4270 h1        1 EWQ      0.085667
     29 H15B        0.9720   -0.1690    4.2430 h1        1 EWQ      0.085667
     30 H17        -4.5170    0.4400    1.0970 h1        1 EWQ      0.083333
     31 H17A       -4.1810   -1.0540    0.6070 h1        1 EWQ      0.083333
     32 H17B       -5.1960   -0.1580   -0.2370 h1        1 EWQ      0.083333
@<TRIPOS>BOND
     1    1    6 1   
     2    1   18 1   
     3    2    3 1   
     4    2    7 1   
     5    3    4 1   
     6    4    5 1   
     7    4   14 1   
     8    5   19 1   
     9    6   16 1   
    10    7    8 1   
    11    7   13 1   
    12    8   20 1   
    13    9   10 1   
    14    9   12 1   
    15   10   11 1   
    16   11   21 1   
    17   11   22 1   
    18   11   23 1   
    19   13   24 1   
    20   13   25 1   
    21   13   26 1   
    22   14   15 1   
    23   15   27 1   
    24   15   28 1   
    25   15   29 1   
    26   16   17 1   
    27   17   30 1   
    28   17   31 1   
    29   17   32 1   
@<TRIPOS>SUBSTRUCTURE
     1 EWQ         1 TEMP              0 ****  ****    0 ROOT
