@<TRIPOS>MOLECULE
EWW
   36    37     1     0     0
SMALL
bcc


@<TRIPOS>ATOM
      1 Cl          1.6260   -0.9600   -0.7920 cl        1 EWW     -0.036400
      2 C3          3.0380   -0.0290   -0.6760 ca        1 EWW      0.124400
      3 C4          3.8720   -0.1580    0.4590 ca        1 EWW     -0.519500
      4 S6          3.7080   -1.2540    1.6350 sy        1 EWW      1.480200
      5 O8          4.5420   -1.0380    2.7140 o         1 EWW     -0.556300
      6 N11         2.0530   -0.6380    2.3480 nz        1 EWW     -0.789500
      7 O7          3.3580   -2.5300    1.2660 o         1 EWW     -0.556300
      8 C5          4.9960    0.7000    0.5250 ca        1 EWW      0.005000
      9 C2          3.3320    0.8660   -1.7020 ca        1 EWW     -0.101000
     10 C22         4.4730    1.6750   -1.6160 ca        1 EWW     -0.026600
     11 C1          5.2970    1.5990   -0.4880 ca        1 EWW     -0.091000
     12 C9          4.7530    2.6420   -2.7190 c         1 EWW      0.564700
     13 O12         3.8810    3.4290   -3.0880 o         1 EWW     -0.456100
     14 C10         6.1150    2.6070   -3.3370 c3        1 EWW     -0.148300
     15 S13         6.3970    1.1480   -4.2720 ss        1 EWW     -0.095300
     16 C14         7.3900    0.0980   -3.3040 cc        1 EWW      0.493800
     17 N17         7.8520   -1.0310   -3.9600 ns        1 EWW     -0.465400
     18 C18         8.6830   -1.9590   -3.2770 c         1 EWW      0.692700
     19 O21         9.0580   -2.9690   -3.8870 o         1 EWW     -0.583500
     20 C19         9.0060   -1.6120   -1.8930 cc        1 EWW     -0.279200
     21 C16         8.5000   -0.4680   -1.3310 cd        1 EWW      0.172400
     22 N15         7.6560    0.3930   -2.0340 nd        1 EWW     -0.705300
     23 C20         8.8610   -0.0890    0.0680 c3        1 EWW     -0.051900
     24 H1          2.1610   -0.3890    3.3320 hn        1 EWW      0.460800
     25 H2          1.3470   -1.3720    2.2890 hn        1 EWW      0.460800
     26 H3          5.6670    0.6440    1.4060 ha        1 EWW      0.182000
     27 H4          2.6670    0.9510   -2.5810 ha        1 EWW      0.198000
     28 H5          6.1980    2.2340   -0.4080 ha        1 EWW      0.188000
     29 H6          6.8930    2.7960   -2.5530 h1        1 EWW      0.136200
     30 H7          6.1910    3.4440   -4.0890 h1        1 EWW      0.136200
     31 H8          9.6750   -2.3020   -1.3610 ha        1 EWW      0.181000
     32 H10         9.3290   -0.9570    0.5930 hc        1 EWW      0.057033
     33 H11         9.5950    0.7560    0.0510 hc        1 EWW      0.057033
     34 H12         7.9610    0.2390    0.6440 hc        1 EWW      0.057033
     35 H13         7.6410   -1.1810   -4.9240 hn        1 EWW      0.352500
     36 H113        1.6920    0.1780    1.8600 hn        1 EWW      0.460800
@<TRIPOS>BOND
     1    1    2 1   
     2    2    3 ar  
     3    2    9 ar  
     4    3    4 1   
     5    3    8 ar  
     6    4    5 2   
     7    4    6 1   
     8    4    7 2   
     9    6   24 1   
    10    6   25 1   
    11    6   36 1   
    12    8   11 ar  
    13    8   26 1   
    14    9   10 ar  
    15    9   27 1   
    16   10   11 ar  
    17   10   12 1   
    18   11   28 1   
    19   12   13 2   
    20   12   14 1   
    21   14   15 1   
    22   14   29 1   
    23   14   30 1   
    24   15   16 1   
    25   16   17 1   
    26   16   22 2   
    27   17   18 1   
    28   17   35 1   
    29   18   19 2   
    30   18   20 1   
    31   20   21 2   
    32   20   31 1   
    33   21   22 1   
    34   21   23 1   
    35   23   32 1   
    36   23   33 1   
    37   23   34 1   
@<TRIPOS>SUBSTRUCTURE
     1 EWW         1 TEMP              0 ****  ****    0 ROOT
