@<TRIPOS>MOLECULE
EWW
   36    37     1     0     0
SMALL
bcc


@<TRIPOS>ATOM
      1 CL          1.5980   -0.8190   -0.6770 cl        1 EWW     -0.036400
      2 C3          3.0450    0.0590   -0.5850 ca        1 EWW      0.124400
      3 C4          3.9140   -0.1350    0.5150 ca        1 EWW     -0.519500
      4 S6          3.7530   -1.2620    1.6620 sy        1 EWW      1.480200
      5 O8          4.6310   -1.1080    2.7160 o         1 EWW     -0.556300
      6 N11         2.1470   -0.6120    2.4530 n4        1 EWW     -0.789500
      7 O7          3.3440   -2.5130    1.2680 o         1 EWW     -0.556300
      8 C5          5.0700    0.6810    0.5650 ca        1 EWW      0.005000
      9 C2          3.3350    0.9740   -1.5930 ca        1 EWW     -0.101000
     10 C22         4.5070    1.7400   -1.5250 ca        1 EWW     -0.026600
     11 C1          5.3670    1.6010   -0.4300 ca        1 EWW     -0.091000
     12 C9          4.7820    2.7310   -2.6080 c         1 EWW      0.564700
     13 O12         3.9260    3.5590   -2.9200 o         1 EWW     -0.456100
     14 C10         6.1200    2.6680   -3.2760 c3        1 EWW     -0.148300
     15 S13         6.3150    1.2290   -4.2640 ss        1 EWW     -0.095300
     16 C14         7.3030    0.1150   -3.3640 cc        1 EWW      0.493800
     17 N17         7.7010   -1.0080   -4.0700 n         1 EWW     -0.465400
     18 C18         8.5210   -1.9850   -3.4450 c         1 EWW      0.692700
     19 O21         8.8380   -2.9890   -4.0990 o         1 EWW     -0.583500
     20 C19         8.9060   -1.6920   -2.0640 cc        1 EWW     -0.279200
     21 C16         8.4620   -0.5490   -1.4510 cd        1 EWW      0.172400
     22 N15         7.6250    0.3620   -2.0960 nd        1 EWW     -0.705300
     23 C20         8.8850   -0.2270   -0.0550 c3        1 EWW     -0.051900
     24 H1          1.4130   -1.3180    2.3980 hn        1 EWW      0.460800
     25 H2          1.7990    0.2310    2.0030 hn        1 EWW      0.460800
     26 H3          5.7690    0.5740    1.4200 ha        1 EWW      0.182000
     27 H4          2.6430    1.1110   -2.4450 ha        1 EWW      0.198000
     28 H5          6.2920    2.2010   -0.3640 ha        1 EWW      0.188000
     29 H6          6.9310    2.8050   -2.5160 h1        1 EWW      0.136200
     30 H7          6.1990    3.5250   -4.0050 h1        1 EWW      0.136200
     31 H8          9.5680   -2.4220   -1.5790 ha        1 EWW      0.181000
     32 H10         9.3410   -1.1270    0.4270 hc        1 EWW      0.057367
     33 H11         8.0190    0.1140    0.5630 hc        1 EWW      0.057367
     34 H12         9.6490    0.5920   -0.0740 hc        1 EWW      0.057367
     35 H13         7.4510   -1.1210   -5.0290 hn        1 EWW      0.352500
     36 H113        2.2980   -0.3980    3.4390 hn        1 EWW      0.460800
@<TRIPOS>BOND
     1    1    2 1   
     2    2    3 ar  
     3    2    9 ar  
     4    3    4 1   
     5    3    8 ar  
     6    4    5 2   
     7    4    6 1   
     8    4    7 2   
     9    6   24 1   
    10    6   25 1   
    11    6   36 1   
    12    8   11 ar  
    13    8   26 1   
    14    9   10 ar  
    15    9   27 1   
    16   10   11 ar  
    17   10   12 1   
    18   11   28 1   
    19   12   13 2   
    20   12   14 1   
    21   14   15 1   
    22   14   29 1   
    23   14   30 1   
    24   15   16 1   
    25   16   17 1   
    26   16   22 2   
    27   17   18 1   
    28   17   35 1   
    29   18   19 2   
    30   18   20 1   
    31   20   21 2   
    32   20   31 1   
    33   21   22 1   
    34   21   23 1   
    35   23   32 1   
    36   23   33 1   
    37   23   34 1   
@<TRIPOS>SUBSTRUCTURE
     1 EWW         1 TEMP              0 ****  ****    0 ROOT
