@<TRIPOS>MOLECULE
EWY
   36    37     1     0     0
SMALL
bcc


@<TRIPOS>ATOM
      1 O20         0.0260   -0.6930   -0.3490 o         1 EWY     -0.595500
      2 C18         1.2300   -0.4710   -0.1550 c         1 EWY      0.694700
      3 C22         1.9130   -0.4490    1.1370 cc        1 EWY     -0.282200
      4 C17         3.2580   -0.1890    1.2060 cd        1 EWY      0.186400
      5 C21         3.9610   -0.1630    2.5240 c3        1 EWY     -0.054900
      6 N16         4.0230    0.0600    0.0650 nd        1 EWY     -0.686300
      7 N19         2.0510   -0.2100   -1.2840 ns        1 EWY     -0.467400
      8 C15         3.4020    0.0420   -1.1110 cc        1 EWY      0.493800
      9 S14         4.2880    0.3510   -2.5770 ss        1 EWY     -0.092300
     10 C13         5.9430    0.6020   -2.0040 c3        1 EWY     -0.141300
     11 C11         6.8800    0.8280   -3.1440 c         1 EWY      0.592700
     12 O12         6.5540    1.2450   -4.2570 o         1 EWY     -0.480100
     13 C2          8.3150    0.5280   -2.8610 ca        1 EWY     -0.187600
     14 C3          9.1380    0.1780   -3.9300 ca        1 EWY      0.051000
     15 C4         10.5100   -0.0890   -3.7450 ca        1 EWY     -0.555500
     16 S7         11.4330   -0.5690   -4.9640 sy        1 EWY      1.491200
     17 O9         10.7600   -1.0860   -6.0480 o         1 EWY     -0.560800
     18 N10        11.8670    1.1670   -5.6620 nz        1 EWY     -0.789500
     19 O8         12.6920   -1.0000   -4.6060 o         1 EWY     -0.560800
     20 C5         11.0270    0.0020   -2.4310 ca        1 EWY      0.026000
     21 C6         10.2120    0.3470   -1.3640 ca        1 EWY     -0.150000
     22 C1          8.8530    0.6100   -1.5700 ca        1 EWY      0.033000
     23 H1          1.2910   -0.6470    2.0200 ha        1 EWY      0.179000
     24 H3          4.7740   -0.9300    2.5480 hc        1 EWY      0.060367
     25 H4          4.4160    0.8430    2.7020 hc        1 EWY      0.060367
     26 H5          3.2380   -0.3810    3.3480 hc        1 EWY      0.060367
     27 H6          6.2770   -0.2840   -1.4040 h1        1 EWY      0.114200
     28 H7          5.9830    1.4970   -1.3270 h1        1 EWY      0.114200
     29 H8          8.6900    0.1010   -4.9430 ha        1 EWY      0.185000
     30 H9         11.4280    1.9200   -5.1410 hn        1 EWY      0.458467
     31 H10        11.5650    1.2420   -6.6330 hn        1 EWY      0.458467
     32 H11        12.0970   -0.2230   -2.2530 ha        1 EWY      0.176000
     33 H12        10.6330    0.4080   -0.3450 ha        1 EWY      0.183000
     34 H13         8.2100    0.8840   -0.7130 ha        1 EWY      0.179000
     35 H2          1.6440   -0.2040   -2.1950 hn        1 EWY      0.347500
     36 H103       12.8750    1.3170   -5.6390 hn        1 EWY      0.458467
@<TRIPOS>BOND
     1    1    2 2   
     2    2    3 1   
     3    2    7 1   
     4    3    4 2   
     5    3   23 1   
     6    4    5 1   
     7    4    6 1   
     8    5   24 1   
     9    5   25 1   
    10    5   26 1   
    11    6    8 2   
    12    7    8 1   
    13    7   35 1   
    14    8    9 1   
    15    9   10 1   
    16   10   11 1   
    17   10   27 1   
    18   10   28 1   
    19   11   12 2   
    20   11   13 1   
    21   13   14 ar  
    22   13   22 ar  
    23   14   15 ar  
    24   14   29 1   
    25   15   16 1   
    26   15   20 ar  
    27   16   17 2   
    28   16   18 1   
    29   16   19 2   
    30   18   30 1   
    31   18   31 1   
    32   18   36 1   
    33   20   21 ar  
    34   20   32 1   
    35   21   22 ar  
    36   21   33 1   
    37   22   34 1   
@<TRIPOS>SUBSTRUCTURE
     1 EWY         1 TEMP              0 ****  ****    0 ROOT
