@<TRIPOS>MOLECULE
EWY
   36    37     1     0     0
SMALL
bcc


@<TRIPOS>ATOM
      1 O20         0.0290   -0.6370   -0.3010 o         1 EWY     -0.595500
      2 C18         1.2380   -0.4290   -0.1150 c         1 EWY      0.694700
      3 C22         1.9310   -0.4290    1.1720 cc        1 EWY     -0.282200
      4 C17         3.2800   -0.1840    1.2320 cd        1 EWY      0.186400
      5 C21         3.9930   -0.1790    2.5440 c3        1 EWY     -0.054900
      6 N16         4.0370    0.0700    0.0880 nd        1 EWY     -0.686300
      7 N19         2.0520   -0.1650   -1.2480 n         1 EWY     -0.467400
      8 C15         3.4070    0.0710   -1.0830 cc        1 EWY      0.493800
      9 S14         4.2840    0.3880   -2.5530 ss        1 EWY     -0.092300
     10 C13         5.9460    0.6150   -1.9920 c3        1 EWY     -0.141300
     11 C11         6.8760    0.8440   -3.1360 c         1 EWY      0.592700
     12 O12         6.5440    1.2750   -4.2420 o         1 EWY     -0.480100
     13 C2          8.3100    0.5290   -2.8690 ca        1 EWY     -0.187600
     14 C3          9.1210    0.1840   -3.9480 ca        1 EWY      0.051000
     15 C4         10.4930   -0.0970   -3.7770 ca        1 EWY     -0.555500
     16 S7         11.4020   -0.5710   -5.0080 sy        1 EWY      1.491200
     17 O9         10.7160   -1.0710   -6.0920 o         1 EWY     -0.560800
     18 N10        11.8450    1.1690   -5.6900 n4        1 EWY     -0.789500
     19 O8         12.6600   -1.0160   -4.6650 o         1 EWY     -0.560800
     20 C5         11.0210   -0.0250   -2.4660 ca        1 EWY      0.026000
     21 C6         10.2170    0.3140   -1.3880 ca        1 EWY     -0.150000
     22 C1          8.8590    0.5920   -1.5810 ca        1 EWY      0.033000
     23 H1          1.3140   -0.6300    2.0570 ha        1 EWY      0.179000
     24 H3          3.2750   -0.3990    3.3720 hc        1 EWY      0.060367
     25 H4          4.7980   -0.9550    2.5530 hc        1 EWY      0.060367
     26 H5          4.4600    0.8200    2.7300 hc        1 EWY      0.060367
     27 H6          6.2750   -0.2810   -1.4040 h1        1 EWY      0.114200
     28 H7          6.0000    1.5020   -1.3040 h1        1 EWY      0.114200
     29 H8          8.6650    0.1220   -4.9580 ha        1 EWY      0.185000
     30 H9         12.8540    1.3100   -5.6750 hn        1 EWY      0.458467
     31 H10        11.5360    1.2580   -6.6570 hn        1 EWY      0.458467
     32 H11        12.0900   -0.2620   -2.2990 ha        1 EWY      0.176000
     33 H12        10.6470    0.3600   -0.3720 ha        1 EWY      0.183000
     34 H13         8.2260    0.8610   -0.7160 ha        1 EWY      0.179000
     35 H2          1.6370   -0.1440   -2.1550 hn        1 EWY      0.347500
     36 H103       11.4170    1.9200   -5.1570 hn        1 EWY      0.458467
@<TRIPOS>BOND
     1    1    2 2   
     2    2    3 1   
     3    2    7 1   
     4    3    4 2   
     5    3   23 1   
     6    4    5 1   
     7    4    6 1   
     8    5   24 1   
     9    5   25 1   
    10    5   26 1   
    11    6    8 2   
    12    7    8 1   
    13    7   35 1   
    14    8    9 1   
    15    9   10 1   
    16   10   11 1   
    17   10   27 1   
    18   10   28 1   
    19   11   12 2   
    20   11   13 1   
    21   13   14 ar  
    22   13   22 ar  
    23   14   15 ar  
    24   14   29 1   
    25   15   16 1   
    26   15   20 ar  
    27   16   17 2   
    28   16   18 1   
    29   16   19 2   
    30   18   30 1   
    31   18   31 1   
    32   18   36 1   
    33   20   21 ar  
    34   20   32 1   
    35   21   22 ar  
    36   21   33 1   
    37   22   34 1   
@<TRIPOS>SUBSTRUCTURE
     1 EWY         1 TEMP              0 ****  ****    0 ROOT
