@<TRIPOS>MOLECULE
EWZ
   45    46     1     0     0
SMALL
bcc


@<TRIPOS>ATOM
      1 O7          0.0110   -0.5690   -0.3180 o         1 EWZ     -0.597500
      2 C2          1.2230   -0.3680   -0.1450 c         1 EWZ      0.692700
      3 C3          1.9200   -0.3440    1.1410 cc        1 EWZ     -0.280200
      4 C4          3.2710   -0.1110    1.1980 cd        1 EWZ      0.195400
      5 C8          4.0300   -0.0760    2.5140 c3        1 EWZ     -0.001800
      6 C15         4.6700    1.2960    2.6930 c3        1 EWZ     -0.086433
      7 C14         3.1000   -0.3350    3.6930 c3        1 EWZ     -0.086433
      8 C9          5.1120   -1.1510    2.5050 c3        1 EWZ     -0.086433
      9 N5          4.0210    0.1080    0.0410 nd        1 EWZ     -0.683300
     10 N1          2.0320   -0.1380   -1.2870 ns        1 EWZ     -0.467400
     11 C6          3.3890    0.0880   -1.1280 cc        1 EWZ      0.490800
     12 S10         4.2670    0.3610   -2.6070 ss        1 EWZ     -0.091300
     13 C11         5.9320    0.5860   -2.0500 c3        1 EWZ     -0.141300
     14 C12         6.8660    0.7780   -3.1990 c         1 EWZ      0.590700
     15 O13         6.5340    1.1460   -4.3270 o         1 EWZ     -0.472100
     16 C16         8.3040    0.5040   -2.9050 ca        1 EWZ     -0.183600
     17 C21         8.8300    0.5870   -1.6110 ca        1 EWZ      0.033000
     18 C20        10.1920    0.3620   -1.3960 ca        1 EWZ     -0.143000
     19 C19        11.0230    0.0370   -2.4650 ca        1 EWZ      0.145400
     20 Cl         12.6780   -0.1730   -2.1740 cl        1 EWZ     -0.028400
     21 C17         9.1430    0.1720   -3.9670 ca        1 EWZ      0.051000
     22 C18        10.5190   -0.0980   -3.7820 ca        1 EWZ     -0.533500
     23 S22        11.3500   -0.6200   -5.0690 sy        1 EWZ      1.480200
     24 O23        12.2450   -1.6420   -4.8620 o         1 EWZ     -0.552800
     25 O25        10.6590   -0.5140   -6.2570 o         1 EWZ     -0.552800
     26 N26        12.5440    0.8540   -5.2320 nz        1 EWZ     -0.790500
     27 H1          1.2860   -0.5220    2.0190 ha        1 EWZ      0.182000
     28 H2          5.4440    1.4810    1.9110 hc        1 EWZ      0.042144
     29 H3          3.8950    2.0960    2.6290 hc        1 EWZ      0.042144
     30 H4          5.1600    1.3530    3.6960 hc        1 EWZ      0.042144
     31 H5          2.6230   -1.3410    3.6080 hc        1 EWZ      0.042144
     32 H6          3.6880   -0.3050    4.6440 hc        1 EWZ      0.042144
     33 H7          2.3050    0.4460    3.7490 hc        1 EWZ      0.042144
     34 H8          4.6620   -2.1520    2.3010 hc        1 EWZ      0.042144
     35 H9          5.8810   -0.9370    1.7260 hc        1 EWZ      0.042144
     36 H10         5.6170   -1.1830    3.5000 hc        1 EWZ      0.042144
     37 H11         1.6150   -0.1350   -2.1930 hn        1 EWZ      0.347500
     38 H12         5.9930    1.4890   -1.3840 h1        1 EWZ      0.113700
     39 H13         6.2520   -0.3000   -1.4420 h1        1 EWZ      0.113700
     40 H14         8.1790    0.8400   -0.7530 ha        1 EWZ      0.184000
     41 H15        10.6060    0.4430   -0.3740 ha        1 EWZ      0.192000
     42 H16         8.7040    0.1200   -4.9890 ha        1 EWZ      0.202000
     43 H17        12.4320    1.3010   -6.1430 hn        1 EWZ      0.461133
     44 H18        12.3970    1.5640   -4.5190 hn        1 EWZ      0.461133
     45 H263       13.5120    0.5380   -5.1590 hn        1 EWZ      0.461133
@<TRIPOS>BOND
     1    1    2 2   
     2    2    3 1   
     3    2   10 1   
     4    3    4 2   
     5    3   27 1   
     6    4    5 1   
     7    4    9 1   
     8    5    6 1   
     9    5    7 1   
    10    5    8 1   
    11    6   28 1   
    12    6   29 1   
    13    6   30 1   
    14    7   31 1   
    15    7   32 1   
    16    7   33 1   
    17    8   34 1   
    18    8   35 1   
    19    8   36 1   
    20    9   11 2   
    21   10   11 1   
    22   10   37 1   
    23   11   12 1   
    24   12   13 1   
    25   13   14 1   
    26   13   38 1   
    27   13   39 1   
    28   14   15 2   
    29   14   16 1   
    30   16   17 ar  
    31   16   21 ar  
    32   17   18 ar  
    33   17   40 1   
    34   18   19 ar  
    35   18   41 1   
    36   19   20 1   
    37   19   22 ar  
    38   21   22 ar  
    39   21   42 1   
    40   22   23 1   
    41   23   24 2   
    42   23   25 2   
    43   23   26 1   
    44   26   43 1   
    45   26   44 1   
    46   26   45 1   
@<TRIPOS>SUBSTRUCTURE
     1 EWZ         1 TEMP              0 ****  ****    0 ROOT
