@<TRIPOS>MOLECULE
EWZ
   45    46     1     0     0
SMALL
bcc


@<TRIPOS>ATOM
      1 O7          0.0160   -0.6100   -0.3160 o         1 EWZ     -0.597500
      2 C2          1.2260   -0.3970   -0.1450 c         1 EWZ      0.692700
      3 C3          1.9220   -0.3520    1.1410 cc        1 EWZ     -0.280200
      4 C4          3.2710   -0.1070    1.1970 cd        1 EWZ      0.195400
      5 C8          4.0290   -0.0510    2.5140 c3        1 EWZ     -0.001800
      6 C15         4.6570    1.3290    2.6770 c3        1 EWZ     -0.086433
      7 C14         3.1000   -0.3030    3.6950 c3        1 EWZ     -0.086433
      8 C9          5.1190   -1.1170    2.5170 c3        1 EWZ     -0.086433
      9 N5          4.0190    0.1060    0.0380 nd        1 EWZ     -0.683300
     10 N1          2.0340   -0.1730   -1.2890 n         1 EWZ     -0.467400
     11 C6          3.3890    0.0670   -1.1310 cc        1 EWZ      0.490800
     12 S10         4.2660    0.3300   -2.6120 ss        1 EWZ     -0.091300
     13 C11         5.9280    0.5760   -2.0570 c3        1 EWZ     -0.141300
     14 C12         6.8620    0.7640   -3.2060 c         1 EWZ      0.590700
     15 O13         6.5270    1.1140   -4.3390 o         1 EWZ     -0.472100
     16 C16         8.3020    0.5070   -2.9080 ca        1 EWZ     -0.183600
     17 C21         8.8250    0.6100   -1.6130 ca        1 EWZ      0.033000
     18 C20        10.1900    0.4010   -1.3950 ca        1 EWZ     -0.143000
     19 C19        11.0260    0.0740   -2.4580 ca        1 EWZ      0.145400
     20 CL         12.6820   -0.1160   -2.1640 cl        1 EWZ     -0.028400
     21 C17         9.1470    0.1740   -3.9650 ca        1 EWZ      0.051000
     22 C18        10.5250   -0.0810   -3.7750 ca        1 EWZ     -0.533500
     23 S22        11.3640   -0.6060   -5.0560 sy        1 EWZ      1.480200
     24 O23        12.2680   -1.6170   -4.8370 o         1 EWZ     -0.552800
     25 O25        10.6730   -0.5200   -6.2460 o         1 EWZ     -0.552800
     26 N26        12.5430    0.8780   -5.2320 n4        1 EWZ     -0.790500
     27 H1          1.2880   -0.5250    2.0210 ha        1 EWZ      0.182000
     28 H2          3.8760    2.1220    2.6030 hc        1 EWZ      0.042144
     29 H3          5.1460    1.4010    3.6790 hc        1 EWZ      0.042144
     30 H4          5.4300    1.5110    1.8930 hc        1 EWZ      0.042144
     31 H5          3.6860   -0.2570    4.6450 hc        1 EWZ      0.042144
     32 H6          2.6310   -1.3140    3.6210 hc        1 EWZ      0.042144
     33 H7          2.2980    0.4720    3.7400 hc        1 EWZ      0.042144
     34 H8          4.6770   -2.1240    2.3250 hc        1 EWZ      0.042144
     35 H9          5.8860   -0.9060    1.7360 hc        1 EWZ      0.042144
     36 H10         5.6230   -1.1330    3.5130 hc        1 EWZ      0.042144
     37 H11         1.6180   -0.1840   -2.1950 hn        1 EWZ      0.347500
     38 H12         6.2550   -0.3010   -1.4380 h1        1 EWZ      0.113700
     39 H13         5.9810    1.4860   -1.4000 h1        1 EWZ      0.113700
     40 H14         8.1700    0.8640   -0.7590 ha        1 EWZ      0.184000
     41 H15        10.6010    0.4970   -0.3730 ha        1 EWZ      0.192000
     42 H16         8.7090    0.1060   -4.9870 ha        1 EWZ      0.202000
     43 H17        12.3870    1.5930   -4.5270 hn        1 EWZ      0.461133
     44 H18        13.5130    0.5730   -5.1540 hn        1 EWZ      0.461133
     45 H263       12.4280    1.3140   -6.1470 hn        1 EWZ      0.461133
@<TRIPOS>BOND
     1    1    2 2   
     2    2    3 1   
     3    2   10 1   
     4    3    4 2   
     5    3   27 1   
     6    4    5 1   
     7    4    9 1   
     8    5    6 1   
     9    5    7 1   
    10    5    8 1   
    11    6   28 1   
    12    6   29 1   
    13    6   30 1   
    14    7   31 1   
    15    7   32 1   
    16    7   33 1   
    17    8   34 1   
    18    8   35 1   
    19    8   36 1   
    20    9   11 2   
    21   10   11 1   
    22   10   37 1   
    23   11   12 1   
    24   12   13 1   
    25   13   14 1   
    26   13   38 1   
    27   13   39 1   
    28   14   15 2   
    29   14   16 1   
    30   16   17 ar  
    31   16   21 ar  
    32   17   18 ar  
    33   17   40 1   
    34   18   19 ar  
    35   18   41 1   
    36   19   20 1   
    37   19   22 ar  
    38   21   22 ar  
    39   21   42 1   
    40   22   23 1   
    41   23   24 2   
    42   23   25 2   
    43   23   26 1   
    44   26   43 1   
    45   26   44 1   
    46   26   45 1   
@<TRIPOS>SUBSTRUCTURE
     1 EWZ         1 TEMP              0 ****  ****    0 ROOT
