@<TRIPOS>MOLECULE
EXB
   23    23     1     0     0
SMALL
bcc


@<TRIPOS>ATOM
      1 C2         -0.0640   -0.9630    0.2000 c2        1 EXB      0.260000
      2 C5          1.2850    0.9430    2.3000 c3        1 EXB     -0.193000
      3 C4          2.4230   -0.6140   -0.4830 c1        1 EXB      0.060000
      4 C3          1.2220   -0.7710   -0.1380 c1        1 EXB     -0.614000
      5 C6         -0.0840    0.4100    2.3520 c2        1 EXB      0.173000
      6 C11        -3.6360   -1.6040    0.0910 c3        1 EXB     -0.276000
      7 N9         -2.0270   -0.7560    1.8230 n4        1 EXB     -0.034000
      8 C1         -0.6420   -0.4680    1.3830 c2        1 EXB     -0.353000
      9 C8         -2.1390    0.0580    3.1330 c1        1 EXB     -0.014000
     10 N7         -1.0030    0.6970    3.3680 n2        1 EXB     -0.312000
     11 C12        -4.5250   -1.1170   -1.0880 c2        1 EXB      0.343000
     12 O          -4.1960   -0.0410   -1.6580 o         1 EXB     -0.557500
     13 H2         -0.7220   -1.5450   -0.4830 ha        1 EXB      0.145000
     14 H5          2.0120    0.1000    2.4430 hc        1 EXB      0.117667
     15 H4          1.4790    1.3720    1.2800 hc        1 EXB      0.117667
     16 H3          1.4650    1.7230    3.0790 hc        1 EXB      0.117667
     17 H11        -2.8170   -2.2230   -0.3530 hc        1 EXB      0.075500
     18 H10        -2.6760    0.3380    0.0920 hx        1 EXB      0.144000
     19 H10A       -3.9220    0.0940    1.4090 hx        1 EXB      0.144000
     20 H8         -2.1110   -1.7450    2.0600 hn        1 EXB      0.227000
     21 OXT        -5.5000   -1.8480   -1.3990 o         1 EXB     -0.557500
     22 H9         -4.2480   -2.2530    0.7630 hc        1 EXB      0.075500
     23 C10        -3.0900   -0.4040    0.8350 c3        1 EXB     -0.090000
@<TRIPOS>BOND
     1    1    4 1   
     2    1    8 1   
     3    1   13 1   
     4    2    5 1   
     5    2   14 1   
     6    2   15 1   
     7    2   16 1   
     8    3    4 1   
     9    5    8 1   
    10    5   10 1   
    11    6   11 1   
    12    6   17 1   
    13    6   22 1   
    14    6   23 1   
    15    7    8 1   
    16    7    9 1   
    17    7   20 1   
    18    7   23 1   
    19    9   10 1   
    20   11   12 1   
    21   11   21 1   
    22   18   23 1   
    23   19   23 1   
@<TRIPOS>SUBSTRUCTURE
     1 EXB         1 TEMP              0 ****  ****    0 ROOT
