@<TRIPOS>MOLECULE
EXB
   23    24     1     0     0
SMALL
bcc


@<TRIPOS>ATOM
      1 C2         -1.4410   -1.5590    0.4120 ca        1 EXB     -0.119000
      2 C5         -3.6190    0.1440   -0.3460 ca        1 EXB     -0.084000
      3 C4         -3.7940   -1.2140   -0.1340 ca        1 EXB     -0.167000
      4 C3         -2.7250   -2.0500    0.2370 ca        1 EXB     -0.136000
      5 C6         -2.3370    0.6870   -0.1830 ca        1 EXB      0.058400
      6 C11         2.1760    0.1210   -0.5920 c3        1 EXB     -0.225400
      7 N9         -0.1090    0.6340    0.3060 na        1 EXB     -0.138300
      8 C1         -1.2350   -0.1880    0.2040 ca        1 EXB     -0.075200
      9 C8         -0.5410    1.9250   -0.0380 cc        1 EXB      0.422700
     10 N7         -1.8560    2.0010   -0.3240 nd        1 EXB     -0.608100
     11 C12         3.6370    0.0320   -0.0920 c         1 EXB      0.912600
     12 O           3.9670    0.7450    0.8990 o         1 EXB     -0.837800
     13 H2         -0.6080   -2.2160    0.6960 ha        1 EXB      0.141000
     14 H5         -4.4590    0.7890   -0.6360 ha        1 EXB      0.131000
     15 H4         -4.7930   -1.6570   -0.2590 ha        1 EXB      0.115000
     16 H3         -2.9160   -3.1220    0.3900 ha        1 EXB      0.118000
     17 H11         1.9330   -0.7830   -1.2000 hc        1 EXB      0.036700
     18 H10         1.2050   -0.7460    1.1430 h1        1 EXB      0.073200
     19 H10A        1.6840    1.0120    1.3110 h1        1 EXB      0.073200
     20 H8          0.1600    2.7690   -0.0540 h5        1 EXB      0.070800
     21 OXT         4.4160   -0.7390   -0.7140 o         1 EXB     -0.837800
     22 H9          2.1000    1.0200   -1.2520 hc        1 EXB      0.036700
     23 C10         1.2470    0.2430    0.6050 c3        1 EXB      0.039300
@<TRIPOS>BOND
     1    1    4 ar  
     2    1    8 ar  
     3    1   13 1   
     4    2    3 ar  
     5    2    5 ar  
     6    2   14 1   
     7    3    4 ar  
     8    3   15 1   
     9    4   16 1   
    10    5    8 ar  
    11    5   10 1   
    12    6   11 1   
    13    6   17 1   
    14    6   22 1   
    15    6   23 1   
    16    7    8 1   
    17    7    9 1   
    18    7   23 1   
    19    9   10 2   
    20    9   20 1   
    21   11   12 1   
    22   11   21 1   
    23   18   23 1   
    24   19   23 1   
@<TRIPOS>SUBSTRUCTURE
     1 EXB         1 TEMP              0 ****  ****    0 ROOT
