@<TRIPOS>MOLECULE
EXB
   23    19     1     0     0
SMALL
bcc


@<TRIPOS>ATOM
      1 C2          1.5820    0.2070   -1.0920 c1        1 EXB     -0.061500
      2 C5          2.9570    0.3260    1.2920 c1        1 EXB     -0.026500
      3 C4          3.6450    0.2900    0.0900 c1        1 EXB     -0.094000
      4 C3          2.9570    0.2310   -1.0960 c1        1 EXB     -0.094000
      5 C6          1.5670    0.3020    1.3000 c1        1 EXB     -0.081000
      6 C11        -2.2550   -0.9270   -0.6010 c3        1 EXB     -0.225400
      7 C10        -1.6960    0.4010   -0.2760 c3        1 EXB      0.216800
      8 N9         -0.4510    0.2340    0.4160 n3        1 EXB     -0.433800
      9 C1          0.8820    0.2430    0.1250 c1        1 EXB      0.025800
     10 C8         -0.5880    0.2870    1.7690 c1        1 EXB      0.348600
     11 N7          0.6600    0.3290    2.3160 n1        1 EXB     -0.506800
     12 C12        -3.7750   -0.8030   -0.8590 c         1 EXB      0.912600
     13 O          -4.6100   -1.1770    0.0400 o         1 EXB     -0.837800
     14 H2          1.1010    0.1660   -1.9210 ha        1 EXB      0.083500
     15 H5          3.4420    0.3270    2.1220 ha        1 EXB      0.073500
     16 H4          4.6020    0.3730    0.0840 ha        1 EXB      0.059000
     17 H3          3.4300    0.2070   -1.9180 ha        1 EXB      0.059000
     18 H11        -2.1040   -1.5260    0.1390 hc        1 EXB      0.036700
     19 H10        -2.3340    0.8990    0.3020 h1        1 EXB      0.073200
     20 H10A       -1.5480    0.8920   -1.0840 h1        1 EXB      0.073200
     21 H8         -1.4450    0.4070    2.2650 DU        1 EXB      0.200000
     22 OXT        -4.2030   -0.4090   -2.0130 o         1 EXB     -0.837800
     23 H9         -1.8160   -1.2790   -1.3980 hc        1 EXB      0.036700
@<TRIPOS>BOND
     1    1    9 3   
     2    1   14 1   
     3    2    5 3   
     4    2   15 1   
     5    3    4 3   
     6    3   16 1   
     7    4   17 1   
     8    6    7 1   
     9    6   12 1   
    10    6   18 1   
    11    6   23 1   
    12    7    8 1   
    13    7   19 1   
    14    7   20 1   
    15    8    9 1   
    16    8   10 1   
    17   10   11 3   
    18   12   13 1   
    19   12   22 1   
@<TRIPOS>SUBSTRUCTURE
     1 EXB         1 TEMP              0 ****  ****    0 ROOT
