@<TRIPOS>MOLECULE
EXI
   48    49     1     0     0
SMALL
bcc


@<TRIPOS>ATOM
      1 N01        -0.5400    0.6550   -0.3150 nb        1 EXI     -0.747000
      2 C02         0.8140    0.7850   -0.4750 ca        1 EXI      0.642200
      3 N02         1.3150    1.1760   -1.7240 nv        1 EXI     -0.929500
      4 C03         1.7340    0.4620    0.5710 ca        1 EXI     -0.296300
      5 C04         1.2410   -0.0210    1.7790 ca        1 EXI      0.003700
      6 C05        -0.1440   -0.1700    1.9350 ca        1 EXI     -0.290300
      7 C06        -0.9900    0.1750    0.8670 ca        1 EXI      0.439600
      8 C07         2.1600   -0.3850    2.8820 c3        1 EXI     -0.065800
      9 C08        -2.4720   -0.0250    1.0380 c3        1 EXI     -0.121700
     10 C09        -3.2560    1.2520    0.7890 c3        1 EXI     -0.038100
     11 N11        -6.7900    1.4430    2.1050 nb        1 EXI     -0.638000
     12 C12        -5.4640    1.6150    1.9540 ca        1 EXI      0.395200
     13 C13        -4.7200    1.0230    0.9110 ca        1 EXI     -0.159600
     14 C14        -5.4000    0.2260   -0.0160 ca        1 EXI     -0.133000
     15 C15        -6.7880    0.0280    0.1230 ca        1 EXI     -0.041700
     16 C16        -7.4330    0.6640    1.2240 ca        1 EXI      0.379200
     17 C17        -6.7990   -1.8130   -1.4790 c3        1 EXI      0.161100
     18 N17        -7.5410   -0.8250   -0.7330 nh        1 EXI     -0.616000
     19 C18        -8.6220   -0.1950   -1.4360 c3        1 EXI      0.185800
     20 C19        -8.1860    0.8380   -2.5140 c3        1 EXI      0.036800
     21 N20        -9.3460    1.5860   -3.0780 ny        1 EXI     -0.749000
     22 C21        -8.9320    2.5690   -4.1050 c3        1 EXI      0.078100
     23 HN02        0.6680    1.5950   -2.3520 hn        1 EXI      0.406800
     24 HN0A        2.2010    1.6270   -1.6840 hn        1 EXI      0.406800
     25 H03         2.8150    0.5830    0.4190 ha        1 EXI      0.148000
     26 H05        -0.5580   -0.5510    2.8780 ha        1 EXI      0.144000
     27 H07         1.7330   -0.0800    3.8690 hc        1 EXI      0.054700
     28 H07A        3.1570    0.1050    2.7580 hc        1 EXI      0.054700
     29 H07B        2.3130   -1.4940    2.8950 hc        1 EXI      0.054700
     30 H08        -2.6740   -0.3910    2.0800 hc        1 EXI      0.056700
     31 H08A       -2.8150   -0.8240    0.3270 hc        1 EXI      0.056700
     32 H09        -2.9270    2.0380    1.5200 hc        1 EXI      0.069200
     33 H09A       -3.0340    1.6400   -0.2420 hc        1 EXI      0.069200
     34 H12        -4.9720    2.2550    2.7100 h4        1 EXI      0.042100
     35 H14        -4.8320   -0.2510   -0.8300 ha        1 EXI      0.149000
     36 H16        -8.5120    0.5220    1.4160 h4        1 EXI      0.026100
     37 H17        -7.5200   -2.5790   -1.8730 h1        1 EXI      0.053033
     38 H17A       -6.2250   -1.3770   -2.3410 h1        1 EXI      0.053033
     39 H17B       -6.0790   -2.3220   -0.7840 h1        1 EXI      0.053033
     40 H18        -9.2720    0.3300   -0.6760 h1        1 EXI      0.072200
     41 H18A       -9.2310   -1.0010   -1.9370 h1        1 EXI      0.072200
     42 H19        -7.6620    0.3120   -3.3620 hx        1 EXI      0.111200
     43 H19A       -7.4750    1.5870   -2.0600 hx        1 EXI      0.111200
     44 HN20       -9.8290    2.0740   -2.3120 hn        1 EXI      0.454300
     45 H21        -9.8410    3.1050   -4.4920 hx        1 EXI      0.111033
     46 H21A       -8.2230    3.3120   -3.6490 hx        1 EXI      0.111033
     47 H21B       -8.4190    2.0360   -4.9500 hx        1 EXI      0.111033
     48 H202      -10.0070    0.9160   -3.4900 hn        1 EXI      0.454300
@<TRIPOS>BOND
     1    1    2 ar  
     2    1    7 ar  
     3    2    3 1   
     4    2    4 ar  
     5    3   23 1   
     6    3   24 1   
     7    4    5 ar  
     8    4   25 1   
     9    5    6 ar  
    10    5    8 1   
    11    6    7 ar  
    12    6   26 1   
    13    7    9 1   
    14    8   27 1   
    15    8   28 1   
    16    8   29 1   
    17    9   10 1   
    18    9   30 1   
    19    9   31 1   
    20   10   13 1   
    21   10   32 1   
    22   10   33 1   
    23   11   12 ar  
    24   11   16 ar  
    25   12   13 ar  
    26   12   34 1   
    27   13   14 ar  
    28   14   15 ar  
    29   14   35 1   
    30   15   16 ar  
    31   15   18 1   
    32   16   36 1   
    33   17   18 1   
    34   17   37 1   
    35   17   38 1   
    36   17   39 1   
    37   18   19 1   
    38   19   20 1   
    39   19   40 1   
    40   19   41 1   
    41   20   21 1   
    42   20   42 1   
    43   20   43 1   
    44   21   22 1   
    45   21   44 1   
    46   21   48 1   
    47   22   45 1   
    48   22   46 1   
    49   22   47 1   
@<TRIPOS>SUBSTRUCTURE
     1 EXI         1 TEMP              0 ****  ****    0 ROOT
