@<TRIPOS>MOLECULE
EXI
   48    49     1     0     0
SMALL
bcc


@<TRIPOS>ATOM
      1 N01        -0.4940    0.3580   -0.2070 nb        1 EXI     -0.747000
      2 C02         0.8550    0.5940   -0.2240 ca        1 EXI      0.643200
      3 N02         1.4790    0.8750   -1.4460 nh        1 EXI     -0.928500
      4 C03         1.6310    0.6340    0.9780 ca        1 EXI     -0.294300
      5 C04         0.9940    0.4530    2.2010 ca        1 EXI      0.003700
      6 C05        -0.3920    0.2310    2.2180 ca        1 EXI     -0.289300
      7 C06        -1.0880    0.1950    0.9980 ca        1 EXI      0.435600
      8 C07         1.7550    0.4990    3.4700 c3        1 EXI     -0.065800
      9 C08        -2.5710   -0.0580    1.0240 c3        1 EXI     -0.119700
     10 C09        -3.3410    1.1670    0.5570 c3        1 EXI     -0.046100
     11 N11        -7.0280    1.2730    1.3390 nb        1 EXI     -0.624000
     12 C12        -5.7050    1.4930    1.3750 ca        1 EXI      0.366200
     13 C13        -4.8000    0.8930    0.4690 ca        1 EXI     -0.126600
     14 C14        -5.3100    0.0570   -0.5260 ca        1 EXI     -0.158000
     15 C15        -6.7030   -0.1920   -0.5880 ca        1 EXI      0.011300
     16 C16        -7.5130    0.4450    0.3990 ca        1 EXI      0.270200
     17 C17        -6.3930   -1.8270   -2.3850 c3        1 EXI      0.187100
     18 N17        -7.2680   -1.0480   -1.5480 nh        1 EXI     -0.679000
     19 C18        -8.5840   -0.7710   -2.0310 c3        1 EXI      0.198800
     20 C19        -8.7590    0.5310   -2.8540 c3        1 EXI      0.054800
     21 N20        -8.4540    1.7630   -2.0690 n4        1 EXI     -0.756000
     22 C21        -8.7750    2.9990   -2.8150 c3        1 EXI      0.077100
     23 HN02        2.4480    0.6500   -1.4690 hn        1 EXI      0.407800
     24 HN0A        0.9790    0.6240   -2.2690 hn        1 EXI      0.407800
     25 H03         2.7130    0.8140    0.9350 ha        1 EXI      0.149000
     26 H05        -0.9180    0.0830    3.1700 ha        1 EXI      0.144000
     27 H07         2.8540    0.4050    3.2890 hc        1 EXI      0.055367
     28 H07A        1.4340   -0.3280    4.1510 hc        1 EXI      0.055367
     29 H07B        1.5660    1.4730    3.9890 hc        1 EXI      0.055367
     30 H08        -2.8820   -0.3250    2.0680 hc        1 EXI      0.058700
     31 H08A       -2.8170   -0.9340    0.3640 hc        1 EXI      0.058700
     32 H09        -2.9660    1.4830   -0.4550 hc        1 EXI      0.073200
     33 H09A       -3.1500    2.0170    1.2650 hc        1 EXI      0.073200
     34 H12        -5.3460    2.1710    2.1730 h4        1 EXI      0.048100
     35 H14        -4.6120   -0.4130   -1.2370 ha        1 EXI      0.162000
     36 H16        -8.5920    0.2250    0.4950 h4        1 EXI      0.021100
     37 H17        -5.8740   -1.1960   -3.1560 h1        1 EXI      0.055367
     38 H17A       -6.9880   -2.6240   -2.9070 h1        1 EXI      0.055367
     39 H17B       -5.6200   -2.3290   -1.7420 h1        1 EXI      0.055367
     40 H18        -9.3070   -0.7500   -1.1640 h1        1 EXI      0.092200
     41 H18A       -8.9090   -1.6070   -2.7190 h1        1 EXI      0.092200
     42 H19        -8.0840    0.5210   -3.7560 hx        1 EXI      0.107700
     43 H19A       -9.8300    0.5900   -3.2020 hx        1 EXI      0.107700
     44 HN20       -7.4540    1.7590   -1.8150 hn        1 EXI      0.462800
     45 H21        -8.5110    3.8900   -2.1830 hx        1 EXI      0.108367
     46 H21A       -9.8720    3.0220   -3.0550 hx        1 EXI      0.108367
     47 H21B       -8.1840    3.0270   -3.7700 hx        1 EXI      0.108367
     48 H202       -8.9860    1.7380   -1.1860 hn        1 EXI      0.462800
@<TRIPOS>BOND
     1    1    2 ar  
     2    1    7 ar  
     3    2    3 1   
     4    2    4 ar  
     5    3   23 1   
     6    3   24 1   
     7    4    5 ar  
     8    4   25 1   
     9    5    6 ar  
    10    5    8 1   
    11    6    7 ar  
    12    6   26 1   
    13    7    9 1   
    14    8   27 1   
    15    8   28 1   
    16    8   29 1   
    17    9   10 1   
    18    9   30 1   
    19    9   31 1   
    20   10   13 1   
    21   10   32 1   
    22   10   33 1   
    23   11   12 ar  
    24   11   16 ar  
    25   12   13 ar  
    26   12   34 1   
    27   13   14 ar  
    28   14   15 ar  
    29   14   35 1   
    30   15   16 ar  
    31   15   18 1   
    32   16   36 1   
    33   17   18 1   
    34   17   37 1   
    35   17   38 1   
    36   17   39 1   
    37   18   19 1   
    38   19   20 1   
    39   19   40 1   
    40   19   41 1   
    41   20   21 1   
    42   20   42 1   
    43   20   43 1   
    44   21   22 1   
    45   21   44 1   
    46   21   48 1   
    47   22   45 1   
    48   22   46 1   
    49   22   47 1   
@<TRIPOS>SUBSTRUCTURE
     1 EXI         1 TEMP              0 ****  ****    0 ROOT
