@<TRIPOS>MOLECULE
EXM
   46    45     1     0     0
SMALL
bcc


@<TRIPOS>ATOM
      1 C          -2.5970    0.5890   -3.2530 c1        1 EXM     -0.197000
      2 C1          2.5050    0.5890   -1.8320 c1        1 EXM     -0.160000
      3 O1          2.4100    0.7330   -5.5310 o         1 EXM     -0.291000
      4 C2          2.9960    0.5890   -3.2530 c1        1 EXM     -0.160000
      5 O2          0.4160   -2.3240    4.3250 o         1 EXM     -0.277000
      6 C3          2.0130    0.6610   -4.3860 c1        1 EXM      0.283000
      7 C4          0.5300    0.6060   -4.1030 c2        1 EXM     -0.221000
      8 C5          0.0130    0.8380   -2.6820 c1        1 EXM     -0.005000
      9 C6         -1.6520    0.5030   -2.2950 c2        1 EXM     -0.089000
     10 C7         -1.8970   -0.3530   -1.0560 c3        1 EXM     -0.122000
     11 C8         -0.7310   -0.1000    0.1210 c3        1 EXM     -0.084000
     12 C9          0.5970   -0.1860   -0.3340 c3        1 EXM     -0.082000
     13 C10         0.9710    0.8420   -1.5240 c1        1 EXM     -0.001000
     14 C11         1.7370   -0.0050    0.9390 c3        1 EXM     -0.155000
     15 C12         1.4490   -0.9840    2.1450 c3        1 EXM     -0.135000
     16 C13         0.1040   -0.8980    2.5800 c3        1 EXM     -0.103000
     17 C14        -1.0000   -1.0810    1.3270 c3        1 EXM     -0.105000
     18 C15        -2.1000   -0.8820    1.9080 c3        1 EXM     -0.152000
     19 C16        -1.9180   -1.7660    3.3900 c3        1 EXM     -0.217000
     20 C17        -0.2560   -1.8780    3.4160 c2        1 EXM      0.238000
     21 C18        -0.1200    0.4390    3.2510 c3        1 EXM     -0.201000
     22 C19         0.8880    2.2300   -0.9270 c3        1 EXM     -0.200000
     23 H1         -2.4400    1.1360   -4.0460 DU        1 EXM      0.123000
     24 H2         -3.4530    0.1350   -3.1350 ha        1 EXM      0.119000
     25 H1A         3.1460    0.5410   -1.0970 ha        1 EXM      0.143000
     26 H2A         3.9510    0.5140   -3.4400 ha        1 EXM      0.143000
     27 H4         -0.1010    0.4550   -4.8320 ha        1 EXM      0.153000
     28 H17        -1.9630   -1.3010   -1.2790 hc        1 EXM      0.093500
     29 H27        -2.7910   -0.1840   -0.7010 hc        1 EXM      0.093500
     30 H8         -0.8570    0.8070    0.4570 hc        1 EXM      0.102000
     31 H9          0.7130   -1.0860   -0.6920 hc        1 EXM      0.097000
     32 H111        2.6310   -0.1870    0.5910 hc        1 EXM      0.084000
     33 H211        1.7050    0.9150    1.2640 hc        1 EXM      0.084000
     34 H112        2.0380   -0.7550    2.8890 hc        1 EXM      0.093500
     35 H212        1.6340   -1.9000    1.8630 hc        1 EXM      0.093500
     36 H14        -0.9690   -2.0020    1.0040 hc        1 EXM      0.094000
     37 H115       -2.2290    0.0690    2.0870 hc        1 EXM      0.089500
     38 H215       -2.8390   -1.2400    1.3810 hc        1 EXM      0.089500
     39 H116       -2.3490   -2.6260    3.5570 hc        1 EXM      0.116000
     40 H216       -2.2870   -1.2170    4.1080 hc        1 EXM      0.116000
     41 H118        0.7310    0.7810    3.5870 hc        1 EXM      0.083667
     42 H218       -0.4920    1.0700    2.6060 hc        1 EXM      0.083667
     43 H318       -0.7430    0.3300    3.9950 hc        1 EXM      0.083667
     44 H119        1.0970    2.8920   -1.6120 hc        1 EXM      0.085667
     45 H219        1.5270    2.3070   -0.1930 hc        1 EXM      0.085667
     46 H319       -0.0150    2.3850   -0.5890 hc        1 EXM      0.085667
@<TRIPOS>BOND
     1    1    9 1   
     2    1   24 1   
     3    2    4 1   
     4    2   25 1   
     5    3    6 1   
     6    4   26 1   
     7    5   20 1   
     8    6    7 1   
     9    7    8 1   
    10    7   27 1   
    11    8    9 1   
    12    9   10 1   
    13   10   11 1   
    14   10   28 1   
    15   10   29 1   
    16   11   12 1   
    17   11   17 1   
    18   11   30 1   
    19   12   13 1   
    20   12   14 1   
    21   12   31 1   
    22   13   22 1   
    23   14   15 1   
    24   14   32 1   
    25   14   33 1   
    26   15   16 1   
    27   15   34 1   
    28   15   35 1   
    29   16   17 1   
    30   16   20 1   
    31   16   21 1   
    32   17   18 1   
    33   17   36 1   
    34   18   19 1   
    35   18   37 1   
    36   18   38 1   
    37   19   20 1   
    38   19   39 1   
    39   19   40 1   
    40   21   41 1   
    41   21   42 1   
    42   21   43 1   
    43   22   44 1   
    44   22   45 1   
    45   22   46 1   
@<TRIPOS>SUBSTRUCTURE
     1 EXM         1 TEMP              0 ****  ****    0 ROOT
