@<TRIPOS>MOLECULE
EXM
   46    49     1     0     0
SMALL
bcc


@<TRIPOS>ATOM
      1 C           0.0020    0.0740   -0.0550 c2        1 EXM     -0.197000
      2 C1          4.7240    0.0680    1.1890 c2        1 EXM     -0.102200
      3 O1          4.7060   -0.5610   -2.3380 o         1 EXM     -0.530100
      4 C2          5.1850   -0.1400   -0.0490 ce        1 EXM     -0.241200
      5 O2          2.2590   -3.0140    7.4470 o         1 EXM     -0.516100
      6 C3          4.2870   -0.4130   -1.1820 c         1 EXM      0.560500
      7 C4          2.8590   -0.5040   -0.8470 ce        1 EXM     -0.240200
      8 C5          2.3880   -0.3070    0.3980 cf        1 EXM     -0.009200
      9 C6          0.9620   -0.4680    0.7040 cf        1 EXM     -0.093200
     10 C7          0.6570   -1.3140    1.8920 c3        1 EXM     -0.039200
     11 C8          1.5360   -0.9690    3.0850 c3        1 EXM     -0.044700
     12 C9          3.0220   -0.9750    2.6850 c3        1 EXM     -0.042700
     13 C10         3.2720    0.0640    1.5660 c3        1 EXM      0.007400
     14 C11         3.9590   -0.7990    3.8750 c3        1 EXM     -0.076400
     15 C12         3.6430   -1.6920    5.0660 c3        1 EXM     -0.056400
     16 C13         2.1780   -1.5880    5.4400 c3        1 EXM     -0.153000
     17 C14         1.3550   -1.9840    4.1930 c3        1 EXM     -0.065700
     18 C15        -0.0390   -2.2840    4.7340 c3        1 EXM     -0.073400
     19 C16         0.2200   -2.9210    6.1020 c3        1 EXM     -0.188400
     20 C17         1.6500   -2.5770    6.4750 c         1 EXM      0.577100
     21 C18         1.8570   -0.2010    5.9810 c3        1 EXM     -0.083100
     22 C19         2.9180    1.4900    1.9990 c3        1 EXM     -0.082100
     23 H1         -1.0640   -0.0500    0.1750 ha        1 EXM      0.121000
     24 H2          0.2270    0.6740   -0.9460 ha        1 EXM      0.121000
     25 H2A         6.2610   -0.1100   -0.2840 ha        1 EXM      0.152000
     26 H4          2.1870   -0.7640   -1.6820 ha        1 EXM      0.153000
     27 H17         0.8160   -2.3910    1.6100 hc        1 EXM      0.054200
     28 H27        -0.4200   -1.2030    2.1890 hc        1 EXM      0.054200
     29 H8          1.2510    0.0520    3.4600 hc        1 EXM      0.062700
     30 H9          3.2420   -1.9880    2.2370 hc        1 EXM      0.057700
     31 H111        5.0060   -1.0380    3.5440 hc        1 EXM      0.044700
     32 H211        3.9540    0.2710    4.2090 hc        1 EXM      0.044700
     33 H112        4.2810   -1.3890    5.9370 hc        1 EXM      0.054200
     34 H212        3.8920   -2.7570    4.8210 hc        1 EXM      0.054200
     35 H14         1.7700   -2.9660    3.8130 hc        1 EXM      0.054700
     36 H115       -0.5950   -2.9780    4.0590 hc        1 EXM      0.050200
     37 H215       -0.6400   -1.3470    4.8360 hc        1 EXM      0.050200
     38 H116       -0.4790   -2.5240    6.8800 hc        1 EXM      0.076700
     39 H216        0.0990   -4.0320    6.0620 hc        1 EXM      0.076700
     40 H118        2.1880    0.5950    5.2720 hc        1 EXM      0.044367
     41 H218        0.7580   -0.0910    6.1480 hc        1 EXM      0.044367
     42 H318        2.3870   -0.0500    6.9530 hc        1 EXM      0.044367
     43 H119        3.4480    1.7560    2.9440 hc        1 EXM      0.046367
     44 H219        1.8180    1.5870    2.1600 hc        1 EXM      0.046367
     45 H319        3.2230    2.2130    1.2050 hc        1 EXM      0.046367
     46 H1A         5.4160    0.3030    2.0150 ha        1 EXM      0.134000
@<TRIPOS>BOND
     1    1    9 2   
     2    1   23 1   
     3    1   24 1   
     4    2    4 2   
     5    2   13 1   
     6    2   46 1   
     7    3    6 2   
     8    4    6 1   
     9    4   25 1   
    10    5   20 2   
    11    6    7 1   
    12    7    8 2   
    13    7   26 1   
    14    8    9 1   
    15    8   13 1   
    16    9   10 1   
    17   10   11 1   
    18   10   27 1   
    19   10   28 1   
    20   11   12 1   
    21   11   17 1   
    22   11   29 1   
    23   12   13 1   
    24   12   14 1   
    25   12   30 1   
    26   13   22 1   
    27   14   15 1   
    28   14   31 1   
    29   14   32 1   
    30   15   16 1   
    31   15   33 1   
    32   15   34 1   
    33   16   17 1   
    34   16   20 1   
    35   16   21 1   
    36   17   18 1   
    37   17   35 1   
    38   18   19 1   
    39   18   36 1   
    40   18   37 1   
    41   19   20 1   
    42   19   38 1   
    43   19   39 1   
    44   21   40 1   
    45   21   41 1   
    46   21   42 1   
    47   22   43 1   
    48   22   44 1   
    49   22   45 1   
@<TRIPOS>SUBSTRUCTURE
     1 EXM         1 TEMP              0 ****  ****    0 ROOT
