@<TRIPOS>MOLECULE
EXM
   46    49     1     0     0
SMALL
bcc


@<TRIPOS>ATOM
      1 C          -2.1110    3.1030   -0.6630 c2        1 EXM     -0.197000
      2 C1         -2.3340   -1.7510   -0.1800 c2        1 EXM     -0.102200
      3 O1         -5.3620   -0.5420    1.3070 o         1 EXM     -0.530100
      4 C2         -3.5350   -1.7690    0.4080 ce        1 EXM     -0.241200
      5 O2          4.9830   -1.2020    0.7640 o         1 EXM     -0.516100
      6 C3         -4.2310   -0.5340    0.8040 c         1 EXM      0.560500
      7 C4         -3.4870    0.7120    0.5670 ce        1 EXM     -0.240200
      8 C5         -2.2740    0.7380   -0.0140 cf        1 EXM     -0.009200
      9 C6         -1.5380    1.9960   -0.1770 cf        1 EXM     -0.093200
     10 C7         -0.1180    1.9670    0.2780 c3        1 EXM     -0.039200
     11 C8          0.6160    0.7250   -0.2050 c3        1 EXM     -0.044700
     12 C9         -0.1750   -0.5450    0.1510 c3        1 EXM     -0.042700
     13 C10        -1.5710   -0.5030   -0.5150 c3        1 EXM      0.007400
     14 C11         0.5890   -1.8280   -0.1590 c3        1 EXM     -0.076400
     15 C12         2.0270   -1.8440    0.3370 c3        1 EXM     -0.056400
     16 C13         2.7590   -0.5910   -0.1020 c3        1 EXM     -0.153000
     17 C14         1.9750    0.6190    0.4530 c3        1 EXM     -0.065700
     18 C15         2.9570    1.7830    0.3680 c3        1 EXM     -0.073400
     19 C16         4.3160    1.1470    0.6730 c3        1 EXM     -0.188400
     20 C17         4.1440   -0.3480    0.4910 c         1 EXM      0.577100
     21 C18         2.9390   -0.5750   -1.6140 c3        1 EXM     -0.083100
     22 C19        -1.4910   -0.4240   -2.0420 c3        1 EXM     -0.082100
     23 H1         -3.1640    3.1320   -0.9720 ha        1 EXM      0.121000
     24 H2         -1.5580    4.0440   -0.7820 ha        1 EXM      0.121000
     25 H2A        -4.0680   -2.7100    0.6190 ha        1 EXM      0.152000
     26 H4         -3.9790    1.6370    0.9120 ha        1 EXM      0.153000
     27 H17         0.4300    2.8780   -0.0830 hc        1 EXM      0.054200
     28 H27        -0.1070    1.9950    1.4030 hc        1 EXM      0.054200
     29 H8          0.7410    0.7920   -1.3200 hc        1 EXM      0.062700
     30 H9         -0.3510   -0.5270    1.2660 hc        1 EXM      0.057700
     31 H111        0.0560   -2.6890    0.3270 hc        1 EXM      0.044700
     32 H211        0.5830   -2.0170   -1.2650 hc        1 EXM      0.044700
     33 H112        2.0430   -1.9140    1.4560 hc        1 EXM      0.054200
     34 H212        2.5490   -2.7510   -0.0640 hc        1 EXM      0.054200
     35 H14         1.7960    0.4300    1.5540 hc        1 EXM      0.054700
     36 H115        2.9490    2.2420   -0.6510 hc        1 EXM      0.050200
     37 H215        2.7050    2.5810    1.1070 hc        1 EXM      0.050200
     38 H116        5.1110    1.5230   -0.0180 hc        1 EXM      0.076700
     39 H216        4.6390    1.3640    1.7220 hc        1 EXM      0.076700
     40 H118        1.9660   -0.7220   -2.1380 hc        1 EXM      0.044367
     41 H218        3.3760    0.3980   -1.9450 hc        1 EXM      0.044367
     42 H318        3.6300   -1.4010   -1.9140 hc        1 EXM      0.044367
     43 H119       -2.5150   -0.5120   -2.4790 hc        1 EXM      0.046367
     44 H219       -1.0560    0.5540   -2.3600 hc        1 EXM      0.046367
     45 H319       -0.8600   -1.2500   -2.4450 hc        1 EXM      0.046367
     46 H1A        -1.8480   -2.6890   -0.4960 ha        1 EXM      0.134000
@<TRIPOS>BOND
     1    1    9 2   
     2    1   23 1   
     3    1   24 1   
     4    2    4 2   
     5    2   13 1   
     6    2   46 1   
     7    3    6 2   
     8    4    6 1   
     9    4   25 1   
    10    5   20 2   
    11    6    7 1   
    12    7    8 2   
    13    7   26 1   
    14    8    9 1   
    15    8   13 1   
    16    9   10 1   
    17   10   11 1   
    18   10   27 1   
    19   10   28 1   
    20   11   12 1   
    21   11   17 1   
    22   11   29 1   
    23   12   13 1   
    24   12   14 1   
    25   12   30 1   
    26   13   22 1   
    27   14   15 1   
    28   14   31 1   
    29   14   32 1   
    30   15   16 1   
    31   15   33 1   
    32   15   34 1   
    33   16   17 1   
    34   16   20 1   
    35   16   21 1   
    36   17   18 1   
    37   17   35 1   
    38   18   19 1   
    39   18   36 1   
    40   18   37 1   
    41   19   20 1   
    42   19   38 1   
    43   19   39 1   
    44   21   40 1   
    45   21   41 1   
    46   21   42 1   
    47   22   43 1   
    48   22   44 1   
    49   22   45 1   
@<TRIPOS>SUBSTRUCTURE
     1 EXM         1 TEMP              0 ****  ****    0 ROOT
