@<TRIPOS>MOLECULE
EXO
   23    23     1     0     0
SMALL
bcc


@<TRIPOS>ATOM
      1 OBG        -2.6010   -0.6610   -0.0490 oh        1 EXO     -0.601800
      2 CBA        -1.3530   -0.1620    0.4140 c3        1 EXO      0.137300
      3 CBB        -0.2950   -1.1020   -0.2050 c3        1 EXO      0.161100
      4 OBI        -0.4530   -2.3970    0.3490 oh        1 EXO     -0.586800
      5 CBF        -1.1030    1.2680    0.0420 c2        1 EXO     -0.150400
      6 CBH        -2.0050    2.0510   -0.5510 c2        1 EXO     -0.201000
      7 CBE         0.2580    1.7410    0.4150 c3        1 EXO     -0.075200
      8 CBD         1.3220    0.8460   -0.2120 c3        1 EXO      0.104100
      9 OBK         2.6160    1.1790    0.2760 oh        1 EXO     -0.606800
     10 CBC         1.1220   -0.6370    0.1570 c3        1 EXO      0.156100
     11 OBJ         2.0180   -1.4290   -0.6040 oh        1 EXO     -0.585800
     12 HBG        -3.2900   -0.1530    0.3960 ho        1 EXO      0.409000
     13 HBA        -1.3110   -0.2590    1.5390 h1        1 EXO      0.057700
     14 HBB        -0.4190   -1.1390   -1.3220 h1        1 EXO      0.068700
     15 HBI        -1.3220   -2.7080    0.0620 ho        1 EXO      0.417000
     16 HBH1       -1.7990    3.0990   -0.8020 ha        1 EXO      0.120000
     17 HBH2       -3.0030    1.6900   -0.8340 ha        1 EXO      0.120000
     18 HBE1        0.3720    1.7210    1.5320 hc        1 EXO      0.058200
     19 HBE2        0.4200    2.7990    0.0800 hc        1 EXO      0.058200
     20 HBD         1.3060    0.9520   -1.3340 h1        1 EXO      0.055700
     21 HBK         2.7870    2.0920    0.0170 ho        1 EXO      0.407000
     22 HBC         1.3100   -0.7880    1.2560 h1        1 EXO      0.064700
     23 HBJ         2.9080   -1.1640   -0.3320 ho        1 EXO      0.416000
@<TRIPOS>BOND
     1    1    2 1   
     2    1   12 1   
     3    2    3 1   
     4    2    5 1   
     5    2   13 1   
     6    3    4 1   
     7    3   10 1   
     8    3   14 1   
     9    4   15 1   
    10    5    6 2   
    11    5    7 1   
    12    6   16 1   
    13    6   17 1   
    14    7    8 1   
    15    7   18 1   
    16    7   19 1   
    17    8    9 1   
    18    8   10 1   
    19    8   20 1   
    20    9   21 1   
    21   10   11 1   
    22   10   22 1   
    23   11   23 1   
@<TRIPOS>SUBSTRUCTURE
     1 EXO         1 TEMP              0 ****  ****    0 ROOT
