@<TRIPOS>MOLECULE
EXO
   23    23     1     0     0
SMALL
bcc


@<TRIPOS>ATOM
      1 OBG         0.0000   -0.0130   -0.2350 oh        1 EXO     -0.598800
      2 CBA         1.4150   -0.0460   -0.1220 c3        1 EXO      0.190300
      3 CBB         1.8250    0.0540    1.3610 c3        1 EXO      0.113100
      4 OBI         1.3830    1.3270    1.8050 oh        1 EXO     -0.612800
      5 CBF         1.9340   -1.3200   -0.7230 c2        1 EXO     -0.138400
      6 CBH         1.1570   -2.1830   -1.3810 c2        1 EXO     -0.175000
      7 CBE         3.4010   -1.5180   -0.5600 c3        1 EXO     -0.075200
      8 CBD         3.8180   -1.4070    0.9040 c3        1 EXO      0.109100
      9 OBK         5.2340   -1.4070    1.0390 oh        1 EXO     -0.610800
     10 CBC         3.3470   -0.0720    1.5030 c3        1 EXO      0.117100
     11 OBJ         3.6250   -0.0120    2.8930 oh        1 EXO     -0.611800
     12 HBG        -0.2900    0.7740    0.2460 ho        1 EXO      0.423000
     13 HBA         1.8490    0.8350   -0.6810 h1        1 EXO      0.054700
     14 HBB         1.3150   -0.7490    1.9620 h1        1 EXO      0.065700
     15 HBI         1.7140    1.4350    2.7070 ho        1 EXO      0.428000
     16 HBH1        0.0780   -2.0130   -1.5060 ha        1 EXO      0.125000
     17 HBH2        1.5510   -3.1030   -1.8320 ha        1 EXO      0.125000
     18 HBE1        3.7100   -2.5220   -0.9540 hc        1 EXO      0.058200
     19 HBE2        3.9520   -0.7400   -1.1560 hc        1 EXO      0.058200
     20 HBD         3.3880   -2.2600    1.5000 h1        1 EXO      0.054700
     21 HBK         5.5540   -2.2260    0.6440 ho        1 EXO      0.410000
     22 HBC         3.8620    0.7820    0.9820 h1        1 EXO      0.062700
     23 HBJ         4.5720   -0.1820    2.9920 ho        1 EXO      0.427000
@<TRIPOS>BOND
     1    1    2 1   
     2    1   12 1   
     3    2    3 1   
     4    2    5 1   
     5    2   13 1   
     6    3    4 1   
     7    3   10 1   
     8    3   14 1   
     9    4   15 1   
    10    5    6 2   
    11    5    7 1   
    12    6   16 1   
    13    6   17 1   
    14    7    8 1   
    15    7   18 1   
    16    7   19 1   
    17    8    9 1   
    18    8   10 1   
    19    8   20 1   
    20    9   21 1   
    21   10   11 1   
    22   10   22 1   
    23   11   23 1   
@<TRIPOS>SUBSTRUCTURE
     1 EXO         1 TEMP              0 ****  ****    0 ROOT
