@<TRIPOS>MOLECULE
EXO
   23    23     1     0     0
SMALL
bcc


@<TRIPOS>ATOM
      1 OBG         0.0040   -0.0100   -0.2260 oh        1 EXO     -0.598800
      2 CBA         1.4190   -0.0480   -0.1180 c3        1 EXO      0.190300
      3 CBB         1.8340    0.0600    1.3630 c3        1 EXO      0.113100
      4 OBI         1.4000    1.3380    1.8000 oh        1 EXO     -0.612800
      5 CBF         1.9310   -1.3280   -0.7120 c2        1 EXO     -0.138400
      6 CBH         1.1480   -2.1920   -1.3620 c2        1 EXO     -0.175000
      7 CBE         3.3980   -1.5310   -0.5520 c3        1 EXO     -0.075200
      8 CBD         3.8190   -1.4120    0.9090 c3        1 EXO      0.109100
      9 OBK         5.2360   -1.4170    1.0390 oh        1 EXO     -0.610800
     10 CBC         3.3570   -0.0720    1.5010 c3        1 EXO      0.117100
     11 OBJ         3.6390   -0.0040    2.8890 oh        1 EXO     -0.611800
     12 HBG        -0.2810    0.7820    0.2500 ho        1 EXO      0.423000
     13 HBA         1.8550    0.8270   -0.6840 h1        1 EXO      0.054700
     14 HBB         1.3230   -0.7370    1.9710 h1        1 EXO      0.065700
     15 HBI         1.7340    1.4500    2.7000 ho        1 EXO      0.428000
     16 HBH1        0.0690   -2.0180   -1.4840 ha        1 EXO      0.125000
     17 HBH2        1.5360   -3.1160   -1.8080 ha        1 EXO      0.125000
     18 HBE1        3.7010   -2.5390   -0.9410 hc        1 EXO      0.058200
     19 HBE2        3.9490   -0.7600   -1.1550 hc        1 EXO      0.058200
     20 HBD         3.3880   -2.2590    1.5120 h1        1 EXO      0.054700
     21 HBK         5.5510   -2.2410    0.6490 ho        1 EXO      0.410000
     22 HBC         3.8740    0.7770    0.9730 h1        1 EXO      0.062700
     23 HBJ         4.5850   -0.1770    2.9870 ho        1 EXO      0.427000
@<TRIPOS>BOND
     1    1    2 1   
     2    1   12 1   
     3    2    3 1   
     4    2    5 1   
     5    2   13 1   
     6    3    4 1   
     7    3   10 1   
     8    3   14 1   
     9    4   15 1   
    10    5    6 2   
    11    5    7 1   
    12    6   16 1   
    13    6   17 1   
    14    7    8 1   
    15    7   18 1   
    16    7   19 1   
    17    8    9 1   
    18    8   10 1   
    19    8   20 1   
    20    9   21 1   
    21   10   11 1   
    22   10   22 1   
    23   11   23 1   
@<TRIPOS>SUBSTRUCTURE
     1 EXO         1 TEMP              0 ****  ****    0 ROOT
