@<TRIPOS>MOLECULE
EXO
   23    22     1     0     0
SMALL
bcc


@<TRIPOS>ATOM
      1 OBG        -1.9710    1.1560   -0.6110 oh        1 EXO     -0.323000
      2 CBA        -0.5480    1.1560   -0.6110 c3        1 EXO      0.025000
      3 CBB         0.0090    1.1560    0.8040 c3        1 EXO     -0.034000
      4 OBI         1.4070    1.4700    0.7440 oh        1 EXO     -0.335000
      5 CBF         0.0230   -0.0670   -1.3900 c2        1 EXO     -0.164000
      6 CBH         0.6320    0.0580   -2.5860 c1        1 EXO     -0.191000
      7 CBE        -0.1620   -1.4300   -0.6920 c3        1 EXO     -0.161000
      8 CBD         0.3850   -1.3390    0.7320 c3        1 EXO      0.032000
      9 OBK         1.8030   -1.2290    0.6670 oh        1 EXO     -0.314000
     10 CBC        -0.1570   -0.1600    1.5190 c3        1 EXO      0.006000
     11 OBJ        -1.5500   -0.3750    1.7670 oh        1 EXO     -0.324000
     12 HBG        -2.2670    1.8390   -1.0940 ho        1 EXO      0.206000
     13 HBA        -0.3570    1.9950   -1.0710 h1        1 EXO      0.131000
     14 HBB        -0.4460    1.8490    1.3180 h1        1 EXO      0.093000
     15 HBI         1.5510    2.2510    1.1410 ho        1 EXO      0.222000
     16 HBH1        0.7290    0.9390   -2.9950 DU        1 EXO      0.128000
     17 HBH2        0.9770   -0.7330   -3.0420 ha        1 EXO      0.123000
     18 HBE1        0.1130   -2.2510   -1.1420 hc        1 EXO      0.108000
     19 HBE2       -1.1280   -1.5690   -0.6610 hc        1 EXO      0.108000
     20 HBD         0.1570   -2.1620    1.2060 h1        1 EXO      0.145000
     21 HBK         2.1720   -1.9730    0.9810 ho        1 EXO      0.197000
     22 HBC         0.3110   -0.1130    2.3750 h1        1 EXO      0.106000
     23 HBJ        -1.6840   -0.4690    2.6400 ho        1 EXO      0.218000
@<TRIPOS>BOND
     1    1    2 1   
     2    1   12 1   
     3    2    3 1   
     4    2    5 1   
     5    2   13 1   
     6    3    4 1   
     7    3   10 1   
     8    3   14 1   
     9    4   15 1   
    10    5    6 1   
    11    5    7 1   
    12    6   17 1   
    13    7    8 1   
    14    7   18 1   
    15    7   19 1   
    16    8    9 1   
    17    8   10 1   
    18    8   20 1   
    19    9   21 1   
    20   10   11 1   
    21   10   22 1   
    22   11   23 1   
@<TRIPOS>SUBSTRUCTURE
     1 EXO         1 TEMP              0 ****  ****    0 ROOT
