@<TRIPOS>MOLECULE
EXT
   35    35     1     0     0
SMALL
bcc


@<TRIPOS>ATOM
      1 CAA         0.2010   -0.2700    0.0370 ca        1 EXT     -0.201900
      2 CAB        -0.7680   -0.5610   -1.0400 ce        1 EXT      0.455800
      3 PAC         4.7050    0.8970   -1.8740 p5        1 EXT      1.317900
      4 OAD         4.0510    2.0160   -2.6400 o         1 EXT     -0.928500
      5 OAE         5.7630    0.1200   -2.6070 o         1 EXT     -0.928500
      6 OAF         5.0050    1.2070   -0.4260 o         1 EXT     -0.928500
      7 OAG         3.4200   -0.2540   -1.7030 os        1 EXT     -0.568200
      8 CAH         2.1410    0.2400   -1.6170 c3        1 EXT      0.244700
      9 CAI         1.5370    0.0510   -0.2420 ca        1 EXT     -0.134600
     10 NAJ         2.0810    0.1710    2.1370 nb        1 EXT     -0.680000
     11 CAK         2.4280    0.2650    0.8540 ca        1 EXT      0.350200
     12 CAL         0.7860   -0.1350    2.4230 ca        1 EXT      0.283600
     13 CAM         0.3440   -0.2530    3.8430 c3        1 EXT     -0.102400
     14 CAN        -0.1750   -0.3480    1.4050 ca        1 EXT      0.030800
     15 OAO        -1.4370   -0.6430    1.8650 oh        1 EXT     -0.546100
     16 OAP        -7.1890   -1.7150   -3.9220 o         1 EXT     -0.941167
     17 PAQ        -6.5500   -2.1220   -2.6200 p5        1 EXT      1.321900
     18 OAR        -7.3930   -1.8940   -1.3900 o         1 EXT     -0.941167
     19 OAS        -5.7930   -3.4260   -2.6360 o         1 EXT     -0.941167
     20 OAT        -5.2880   -0.9410   -2.4490 os        1 EXT     -0.575200
     21 CAU        -4.3470   -1.2100   -1.4870 c3        1 EXT      0.235400
     22 CAV        -2.9680   -0.6660   -1.9760 c3        1 EXT      0.072800
     23 NAW        -2.0370   -0.3820   -0.9180 n2        1 EXT     -0.641900
     24 HAB        -0.2920   -0.9560   -1.9670 h4        1 EXT     -0.020200
     25 HAH         2.1290    1.3490   -1.8490 h1        1 EXT      0.022700
     26 HAHA        1.4920   -0.2920   -2.3740 h1        1 EXT      0.022700
     27 HAK         3.5020    0.5410    0.5930 h4        1 EXT      0.143100
     28 HAM         0.0110   -1.3020    4.0430 hc        1 EXT      0.016367
     29 HAMA       -0.5300    0.4230    4.0160 hc        1 EXT      0.016367
     30 HAMB        1.1550    0.0110    4.5650 hc        1 EXT      0.016367
     31 HOAO       -2.0520   -0.6760    1.1110 ho        1 EXT      0.461000
     32 HAU        -4.2700   -2.3170   -1.3000 h1        1 EXT     -0.000300
     33 HAUA       -4.6030   -0.6860   -0.5170 h1        1 EXT     -0.000300
     34 HAV        -3.1720    0.3080   -2.5080 h1        1 EXT      0.035700
     35 HAVA       -2.5570   -1.3830   -2.7420 h1        1 EXT      0.035700
@<TRIPOS>BOND
     1    1    2 1   
     2    1    9 ar  
     3    1   14 ar  
     4    2   23 2   
     5    2   24 1   
     6    3    4 1   
     7    3    5 1   
     8    3    6 1   
     9    3    7 1   
    10    7    8 1   
    11    8    9 1   
    12    8   25 1   
    13    8   26 1   
    14    9   11 ar  
    15   10   11 ar  
    16   10   12 ar  
    17   11   27 1   
    18   12   13 1   
    19   12   14 ar  
    20   13   28 1   
    21   13   29 1   
    22   13   30 1   
    23   14   15 1   
    24   15   31 1   
    25   16   17 1   
    26   17   18 1   
    27   17   19 1   
    28   17   20 1   
    29   20   21 1   
    30   21   22 1   
    31   21   32 1   
    32   21   33 1   
    33   22   23 1   
    34   22   34 1   
    35   22   35 1   
@<TRIPOS>SUBSTRUCTURE
     1 EXT         1 TEMP              0 ****  ****    0 ROOT
