@<TRIPOS>MOLECULE
EXT
   35    35     1     0     0
SMALL
bcc


@<TRIPOS>ATOM
      1 CAA        -0.7120   -0.8490   -0.0450 ca        1 EXT     -0.201900
      2 CAB         0.2590    0.2530   -0.2080 ce        1 EXT      0.455800
      3 PAC        -5.4290    0.8430   -0.4740 p5        1 EXT      1.317900
      4 OAD        -5.0820    1.3610   -1.8450 o         1 EXT     -0.928500
      5 OAE        -6.3030    1.7280    0.3690 o         1 EXT     -0.928500
      6 OAF        -5.7410   -0.6350   -0.4130 o         1 EXT     -0.928500
      7 OAG        -3.9060    0.8900    0.3530 os        1 EXT     -0.568200
      8 CAH        -2.7760    0.6920   -0.4010 c3        1 EXT      0.244700
      9 CAI        -2.0950   -0.6250   -0.0920 ca        1 EXT     -0.134600
     10 NAJ        -2.5660   -2.9730    0.3900 nb        1 EXT     -0.680000
     11 CAK        -2.9710   -1.7310    0.1300 ca        1 EXT      0.350200
     12 CAL        -1.2260   -3.2070    0.4340 ca        1 EXT      0.283600
     13 CAM        -0.7190   -4.5800    0.7220 c3        1 EXT     -0.102400
     14 CAN        -0.2790   -2.1780    0.2110 ca        1 EXT      0.030800
     15 OAO         1.0330   -2.5840    0.2850 oh        1 EXT     -0.546100
     16 OAP         6.6650    3.2330   -1.1850 o         1 EXT     -0.941167
     17 PAQ         6.1850    2.0450   -0.3920 p5        1 EXT      1.321900
     18 OAR         6.9950    0.7850   -0.5670 o         1 EXT     -0.941167
     19 OAS         5.7530    2.3280    1.0240 o         1 EXT     -0.941167
     20 OAT         4.6890    1.6570   -1.1860 os        1 EXT     -0.575200
     21 CAU         3.8720    0.7790   -0.5210 c3        1 EXT      0.235400
     22 CAV         2.3880    1.1660   -0.8090 c3        1 EXT      0.072800
     23 NAW         1.4550    0.0830   -0.6530 n2        1 EXT     -0.641900
     24 HAB        -0.1450    1.2450    0.0980 h4        1 EXT     -0.020200
     25 HAH        -3.0300    0.6980   -1.5050 h1        1 EXT      0.022700
     26 HAHA       -2.0480    1.5320   -0.1960 h1        1 EXT      0.022700
     27 HAK        -4.0890   -1.5180    0.0680 h4        1 EXT      0.143100
     28 HAM        -0.0200   -4.8950   -0.0930 hc        1 EXT      0.016367
     29 HAMA       -0.1440   -4.5700    1.6810 hc        1 EXT      0.016367
     30 HAMB       -1.5420   -5.3300    0.8030 hc        1 EXT      0.016367
     31 HOAO        1.6110   -1.8460    0.0230 ho        1 EXT      0.461000
     32 HAU         4.0340   -0.2780   -0.8900 h1        1 EXT     -0.000300
     33 HAUA        4.0620    0.8160    0.5880 h1        1 EXT     -0.000300
     34 HAV         2.1280    2.0630   -0.1790 h1        1 EXT      0.035700
     35 HAVA        2.3400    1.4910   -1.8890 h1        1 EXT      0.035700
@<TRIPOS>BOND
     1    1    2 1   
     2    1    9 ar  
     3    1   14 ar  
     4    2   23 2   
     5    2   24 1   
     6    3    4 1   
     7    3    5 1   
     8    3    6 1   
     9    3    7 1   
    10    7    8 1   
    11    8    9 1   
    12    8   25 1   
    13    8   26 1   
    14    9   11 ar  
    15   10   11 ar  
    16   10   12 ar  
    17   11   27 1   
    18   12   13 1   
    19   12   14 ar  
    20   13   28 1   
    21   13   29 1   
    22   13   30 1   
    23   14   15 1   
    24   15   31 1   
    25   16   17 1   
    26   17   18 1   
    27   17   19 1   
    28   17   20 1   
    29   20   21 1   
    30   21   22 1   
    31   21   32 1   
    32   21   33 1   
    33   22   23 1   
    34   22   34 1   
    35   22   35 1   
@<TRIPOS>SUBSTRUCTURE
     1 EXT         1 TEMP              0 ****  ****    0 ROOT
