@<TRIPOS>MOLECULE
EXT
   35    35     1     0     0
SMALL
bcc


@<TRIPOS>ATOM
      1 CAA         0.2010   -0.2900    0.0430 ca        1 EXT     -0.201900
      2 CAB        -0.7670   -0.5340   -1.0460 ce        1 EXT      0.455800
      3 PAC         4.6970    0.9900   -1.8110 p5        1 EXT      1.317900
      4 OAD         4.0380    2.1420   -2.5220 o         1 EXT     -0.928500
      5 OAE         5.7590    0.2550   -2.5800 o         1 EXT     -0.928500
      6 OAF         4.9970    1.2310   -0.3490 o         1 EXT     -0.928500
      7 OAG         3.4180   -0.1740   -1.6950 os        1 EXT     -0.568200
      8 CAH         2.1370    0.3090   -1.5850 c3        1 EXT      0.244700
      9 CAI         1.5350    0.0510   -0.2200 ca        1 EXT     -0.134600
     10 NAJ         2.0790    0.0600    2.1620 nb        1 EXT     -0.680000
     11 CAK         2.4250    0.2170    0.8850 ca        1 EXT      0.350200
     12 CAL         0.7860   -0.2660    2.4330 ca        1 EXT      0.283600
     13 CAM         0.3460   -0.4540    3.8460 c3        1 EXT     -0.102400
     14 CAN        -0.1740   -0.4360    1.4070 ca        1 EXT      0.030800
     15 OAO        -1.4350   -0.7580    1.8520 oh        1 EXT     -0.546100
     16 OAP        -7.1850   -1.5810   -3.9770 o         1 EXT     -0.941167
     17 PAQ        -6.5430   -2.0470   -2.6960 p5        1 EXT      1.321900
     18 OAR        -7.3850   -1.8820   -1.4560 o         1 EXT     -0.941167
     19 OAS        -5.7790   -3.3440   -2.7750 o         1 EXT     -0.941167
     20 OAT        -5.2860   -0.8690   -2.4700 os        1 EXT     -0.575200
     21 CAU        -4.3430   -1.1780   -1.5220 c3        1 EXT      0.235400
     22 CAV        -2.9670   -0.6050   -1.9860 c3        1 EXT      0.072800
     23 NAW        -2.0380   -0.3670   -0.9150 n2        1 EXT     -0.641900
     24 HAB        -0.2900   -0.8820   -1.9900 h4        1 EXT     -0.020200
     25 HAH         1.4900   -0.1900   -2.3660 h1        1 EXT      0.022700
     26 HAHA        2.1190    1.4280   -1.7640 h1        1 EXT      0.022700
     27 HAK         3.4980    0.5100    0.6370 h4        1 EXT      0.143100
     28 HAM         0.0180   -1.5130    3.9950 hc        1 EXT      0.016367
     29 HAMA       -0.5320    0.2080    4.0520 hc        1 EXT      0.016367
     30 HAMB        1.1550   -0.2210    4.5790 hc        1 EXT      0.016367
     31 HOAO       -2.0500   -0.7580    1.0970 ho        1 EXT      0.461000
     32 HAU        -4.2610   -2.2920   -1.3880 h1        1 EXT     -0.000300
     33 HAUA       -4.6010   -0.7020   -0.5290 h1        1 EXT     -0.000300
     34 HAV        -2.5530   -1.2840   -2.7840 h1        1 EXT      0.035700
     35 HAVA       -3.1760    0.3920   -2.4710 h1        1 EXT      0.035700
@<TRIPOS>BOND
     1    1    2 1   
     2    1    9 ar  
     3    1   14 ar  
     4    2   23 2   
     5    2   24 1   
     6    3    4 1   
     7    3    5 1   
     8    3    6 1   
     9    3    7 1   
    10    7    8 1   
    11    8    9 1   
    12    8   25 1   
    13    8   26 1   
    14    9   11 ar  
    15   10   11 ar  
    16   10   12 ar  
    17   11   27 1   
    18   12   13 1   
    19   12   14 ar  
    20   13   28 1   
    21   13   29 1   
    22   13   30 1   
    23   14   15 1   
    24   15   31 1   
    25   16   17 1   
    26   17   18 1   
    27   17   19 1   
    28   17   20 1   
    29   20   21 1   
    30   21   22 1   
    31   21   32 1   
    32   21   33 1   
    33   22   23 1   
    34   22   34 1   
    35   22   35 1   
@<TRIPOS>SUBSTRUCTURE
     1 EXT         1 TEMP              0 ****  ****    0 ROOT
