@<TRIPOS>MOLECULE
EXT
   35    35     1     0     0
SMALL
bcc


@<TRIPOS>ATOM
      1 CAA         0.1950   -0.2370    0.0560 ca        1 EXT     -0.204900
      2 CAB        -0.7720   -0.4470   -1.0410 ce        1 EXT      0.457800
      3 PAC         4.6680    1.0480   -1.8280 p5        1 EXT      1.317900
      4 OAD         5.2430    2.2950   -2.4410 o         1 EXT     -0.928500
      5 OAE         4.5600   -0.1490   -2.7350 o         1 EXT     -0.928500
      6 OAF         5.1190    0.7450   -0.4180 o         1 EXT     -0.928500
      7 OAG         3.0110    1.4750   -1.5530 os        1 EXT     -0.568200
      8 CAH         2.0840    0.4620   -1.5790 c3        1 EXT      0.242700
      9 CAI         1.5150    0.1600   -0.2080 ca        1 EXT     -0.134600
     10 NAJ         2.0980    0.0610    2.1600 nb        1 EXT     -0.679000
     11 CAK         2.4220    0.2790    0.8860 ca        1 EXT      0.351200
     12 CAL         0.8150   -0.2980    2.4360 ca        1 EXT      0.282600
     13 CAM         0.3960   -0.5450    3.8460 c3        1 EXT     -0.102400
     14 CAN        -0.1560   -0.4530    1.4150 ca        1 EXT      0.032800
     15 OAO        -1.4010   -0.8280    1.8630 oh        1 EXT     -0.548100
     16 OAP        -7.1970   -1.5420   -3.9770 o         1 EXT     -0.941167
     17 PAQ        -6.5520   -2.0460   -2.7120 p5        1 EXT      1.321900
     18 OAR        -7.3910   -1.9170   -1.4660 o         1 EXT     -0.941167
     19 OAS        -5.7900   -3.3410   -2.8310 o         1 EXT     -0.941167
     20 OAT        -5.2940   -0.8760   -2.4540 os        1 EXT     -0.576200
     21 CAU        -4.3530   -1.2120   -1.5130 c3        1 EXT      0.234400
     22 CAV        -2.9780   -0.6190   -1.9540 c3        1 EXT      0.074800
     23 NAW        -2.0490   -0.4310   -0.8730 n2        1 EXT     -0.643900
     24 HAB        -0.2840   -0.6250   -2.0260 h4        1 EXT     -0.021200
     25 HAH         2.5470   -0.4890   -1.9830 h1        1 EXT      0.022700
     26 HAHA        1.2300    0.7710   -2.2520 h1        1 EXT      0.022700
     27 HAK         3.4940    0.5680    0.6320 h4        1 EXT      0.142100
     28 HAM         0.0700   -1.6100    3.9550 hc        1 EXT      0.016367
     29 HAMA       -0.4780    0.1070    4.0930 hc        1 EXT      0.016367
     30 HAMB        1.2160   -0.3430    4.5760 hc        1 EXT      0.016367
     31 HOAO       -2.0230   -0.8300    1.1130 ho        1 EXT      0.464000
     32 HAU        -4.2680   -2.3290   -1.4140 h1        1 EXT     -0.000300
     33 HAUA       -4.6160   -0.7690   -0.5060 h1        1 EXT     -0.000300
     34 HAV        -2.5610   -1.2660   -2.7760 h1        1 EXT      0.036200
     35 HAVA       -3.1890    0.3950   -2.4030 h1        1 EXT      0.036200
@<TRIPOS>BOND
     1    1    2 1   
     2    1    9 ar  
     3    1   14 ar  
     4    2   23 2   
     5    2   24 1   
     6    3    4 1   
     7    3    5 1   
     8    3    6 1   
     9    3    7 1   
    10    7    8 1   
    11    8    9 1   
    12    8   25 1   
    13    8   26 1   
    14    9   11 ar  
    15   10   11 ar  
    16   10   12 ar  
    17   11   27 1   
    18   12   13 1   
    19   12   14 ar  
    20   13   28 1   
    21   13   29 1   
    22   13   30 1   
    23   14   15 1   
    24   15   31 1   
    25   16   17 1   
    26   17   18 1   
    27   17   19 1   
    28   17   20 1   
    29   20   21 1   
    30   21   22 1   
    31   21   32 1   
    32   21   33 1   
    33   22   23 1   
    34   22   34 1   
    35   22   35 1   
@<TRIPOS>SUBSTRUCTURE
     1 EXT         1 TEMP              0 ****  ****    0 ROOT
