@<TRIPOS>MOLECULE
EXT
   35    32     1     0     0
SMALL
bcc


@<TRIPOS>ATOM
      1 CAA         0.2170    0.8030    0.4810 c1        1 EXT     -0.152000
      2 CAB        -0.5240    0.9190   -0.8650 c1        1 EXT     -0.049000
      3 PAC         4.4590    2.0310   -1.7520 p3        1 EXT      2.510000
      4 OAD         3.6360    2.9190   -2.6930 os        1 EXT     -1.257000
      5 OAE         4.9230    0.7950   -2.5000 o         1 EXT     -1.252500
      6 OAF         5.7020    2.8250   -1.2400 o         1 EXT     -1.252500
      7 OAG         3.5630    1.5960   -0.5200 os        1 EXT     -0.733000
      8 CAH         2.3410    0.9770   -0.7770 c3        1 EXT      0.080000
      9 CAI         1.5760    0.8280    0.5060 c2        1 EXT     -0.044000
     10 NAJ         1.5380    0.9500    2.9060 n1        1 EXT     -0.162000
     11 CAK         2.2490    0.9030    1.7290 c2        1 EXT     -0.097000
     12 CAL         0.1760    0.9240    2.8820 c1        1 EXT     -0.122000
     13 CAM        -0.6080    0.9310    4.1820 c3        1 EXT     -0.133000
     14 CAN        -0.4970    0.8500    1.6670 c2        1 EXT      0.051000
     15 OAO        -1.9060    0.8700    1.6420 oh        1 EXT     -0.285000
     16 OAP        -4.0530   -3.2500   -3.6630 o         1 EXT     -0.939833
     17 PAQ        -4.2100   -3.0200   -2.1640 p5        1 EXT      1.553500
     18 OAR        -4.0400   -4.3390   -1.4270 o         1 EXT     -0.939833
     19 OAS        -5.6140   -2.4470   -1.8740 o         1 EXT     -0.939833
     20 OAT        -3.1100   -1.9960   -1.6710 os        1 EXT     -0.730000
     21 CAU        -1.7890   -2.4460   -1.5420 c3        1 EXT      0.105000
     22 CAV        -0.9600   -1.3960   -0.7700 c3        1 EXT     -0.164000
     23 NAW        -1.0620   -0.1480   -1.4140 n2        1 EXT     -0.194000
     24 HAB        -0.5940    1.7940   -1.3150 ha        1 EXT      0.136000
     25 HAH         1.8460    1.5010   -1.3800 h1        1 EXT      0.069000
     26 HAHA        2.4950    0.1140   -1.1570 h1        1 EXT      0.069000
     27 HAK         3.2520    0.9220    1.7470 h4        1 EXT      0.213000
     28 HAM        -1.3480    0.2810    4.1220 hc        1 EXT      0.063000
     29 HAMA       -0.0060    0.6820    4.9330 hc        1 EXT      0.063000
     30 HAMB       -0.9690    1.8160    4.3380 hc        1 EXT      0.063000
     31 HOAO       -2.1920    1.7150    1.6570 ho        1 EXT      0.252000
     32 HAU        -1.7780   -3.3290   -1.0320 h1        1 EXT      0.028000
     33 HAUA       -1.4020   -2.5780   -2.4350 h1        1 EXT      0.028000
     34 HAV        -1.3000   -1.3200    0.1460 h1        1 EXT      0.082000
     35 HAVA       -0.0100   -1.6780   -0.7460 h1        1 EXT      0.082000
@<TRIPOS>BOND
     1    1    9 1   
     2    1   14 1   
     3    2   23 1   
     4    2   24 1   
     5    3    5 1   
     6    3    6 1   
     7    3    7 1   
     8    7    8 1   
     9    8    9 1   
    10    8   25 1   
    11    8   26 1   
    12    9   11 1   
    13   10   11 1   
    14   11   27 1   
    15   12   13 1   
    16   12   14 1   
    17   13   28 1   
    18   13   29 1   
    19   13   30 1   
    20   14   15 1   
    21   15   31 1   
    22   16   17 1   
    23   17   18 1   
    24   17   19 1   
    25   17   20 1   
    26   20   21 1   
    27   21   22 1   
    28   21   32 1   
    29   21   33 1   
    30   22   23 1   
    31   22   34 1   
    32   22   35 1   
@<TRIPOS>SUBSTRUCTURE
     1 EXT         1 TEMP              0 ****  ****    0 ROOT
