@<TRIPOS>MOLECULE
EXX
   31    33     1     0     0
SMALL
bcc


@<TRIPOS>ATOM
      1 BrE         0.1240    0.3720   -1.1480 br        1 EXX     -0.019100
      2 CAN         1.9160    0.1050   -0.7100 ca        1 EXX      0.056100
      3 CAL         2.3020   -0.3140    0.5650 ca        1 EXX     -0.017900
      4 BrC         0.9900   -0.6330    1.8570 br        1 EXX     -0.032100
      5 CAM         3.6620   -0.4920    0.8940 ca        1 EXX      0.020100
      6 BrD         4.1110   -1.0290    2.6300 br        1 EXX     -0.032100
      7 CAO         4.6820   -0.2750   -0.0380 ca        1 EXX     -0.008900
      8 BrF         6.4670   -0.4590    0.4820 br        1 EXX     -0.056100
      9 CAQ         4.3170    0.1070   -1.3350 ca        1 EXX     -0.035200
     10 CAP         2.9120    0.3250   -1.6670 ca        1 EXX      0.093400
     11 NAJ         2.8040    0.7600   -3.0030 nc        1 EXX     -0.557100
     12 CAG         4.0600    0.7970   -3.4640 cd        1 EXX      0.447700
     13 NAU         5.0240    0.3950   -2.5100 na        1 EXX     -0.190300
     14 CAT         6.4520    0.3020   -2.7650 c3        1 EXX      0.255800
     15 OAK         6.7420    0.8730   -4.0470 os        1 EXX     -0.385600
     16 CAI         7.0210   -1.1370   -2.7730 c3        1 EXX     -0.155400
     17 CAR         7.3850   -1.4340   -4.2320 c3        1 EXX      0.117100
     18 OAB         8.7700   -1.6760   -4.4020 oh        1 EXX     -0.586800
     19 CAS         7.0570   -0.1420   -5.0080 c3        1 EXX      0.132100
     20 CAH         5.8940   -0.3810   -5.9710 c3        1 EXX      0.104400
     21 OAA         5.4870    0.8800   -6.4710 oh        1 EXX     -0.588800
     22 H1          4.3690    1.1300   -4.4720 h5        1 EXX      0.108800
     23 H2          6.9840    0.9660   -2.0190 h2        1 EXX      0.107700
     24 H3          6.2950   -1.8870   -2.3790 hc        1 EXX      0.082200
     25 H4          7.9390   -1.1640   -2.1320 hc        1 EXX      0.082200
     26 H5          6.8000   -2.3100   -4.6240 h1        1 EXX      0.054700
     27 H6          8.9800   -2.4730   -3.9000 ho        1 EXX      0.410000
     28 H7          7.9520    0.2570   -5.5620 h1        1 EXX      0.115700
     29 H8          5.0300   -0.8690   -5.4410 h1        1 EXX      0.035700
     30 H9          6.2430   -1.0480   -6.8030 h1        1 EXX      0.035700
     31 H10         4.8900    0.7050   -7.2090 ho        1 EXX      0.409000
@<TRIPOS>BOND
     1    1    2 1   
     2    2    3 ar  
     3    2   10 ar  
     4    3    4 1   
     5    3    5 ar  
     6    5    6 1   
     7    5    7 ar  
     8    7    8 1   
     9    7    9 ar  
    10    9   10 ar  
    11    9   13 1   
    12   10   11 1   
    13   11   12 2   
    14   12   13 1   
    15   12   22 1   
    16   13   14 1   
    17   14   15 1   
    18   14   16 1   
    19   14   23 1   
    20   15   19 1   
    21   16   17 1   
    22   16   24 1   
    23   16   25 1   
    24   17   18 1   
    25   17   19 1   
    26   17   26 1   
    27   18   27 1   
    28   19   20 1   
    29   19   28 1   
    30   20   21 1   
    31   20   29 1   
    32   20   30 1   
    33   21   31 1   
@<TRIPOS>SUBSTRUCTURE
     1 EXX         1 TEMP              0 ****  ****    0 ROOT
