@<TRIPOS>MOLECULE
EXX
   31    33     1     0     0
SMALL
bcc


@<TRIPOS>ATOM
      1 BRE         0.1560    0.5300   -1.1230 br        1 EXX     -0.019100
      2 CAN         1.9340    0.1690   -0.6950 ca        1 EXX      0.056100
      3 CAL         2.3000   -0.3140    0.5630 ca        1 EXX     -0.017900
      4 BRC         0.9730   -0.6250    1.8430 br        1 EXX     -0.032100
      5 CAM         3.6500   -0.5630    0.8850 ca        1 EXX      0.020100
      6 BRD         4.0740   -1.1830    2.5990 br        1 EXX     -0.032100
      7 CAO         4.6800   -0.3550   -0.0380 ca        1 EXX     -0.008900
      8 BRF         6.4550   -0.6350    0.4740 br        1 EXX     -0.056100
      9 CAQ         4.3340    0.0910   -1.3200 ca        1 EXX     -0.035200
     10 CAP         2.9400    0.3820   -1.6430 ca        1 EXX      0.093400
     11 NAJ         2.8530    0.8720   -2.9610 nc        1 EXX     -0.557100
     12 CAG         4.1100    0.8720   -3.4220 cd        1 EXX      0.447700
     13 NAU         5.0550    0.3930   -2.4830 na        1 EXX     -0.190300
     14 CAT         6.4770    0.2480   -2.7420 c3        1 EXX      0.255800
     15 OAK         6.7930    0.8540   -4.0020 os        1 EXX     -0.385600
     16 CAI         6.9840   -1.2130   -2.8040 c3        1 EXX     -0.155400
     17 CAR         7.3370   -1.4700   -4.2730 c3        1 EXX      0.117100
     18 OAB         8.7100   -1.7640   -4.4530 oh        1 EXX     -0.586800
     19 CAS         7.0660   -0.1370   -5.0000 c3        1 EXX      0.132100
     20 CAH         5.8950   -0.2890   -5.9710 c3        1 EXX      0.104400
     21 OAA         5.5430    1.0060   -6.4230 oh        1 EXX     -0.588800
     22 H1          4.4340    1.2290   -4.4160 h5        1 EXX      0.108800
     23 H2          7.0370    0.8600   -1.9710 h2        1 EXX      0.107700
     24 H3          6.2260   -1.9460   -2.4390 hc        1 EXX      0.082200
     25 H4          7.8990   -1.3030   -2.1650 hc        1 EXX      0.082200
     26 H5          6.7160   -2.3050   -4.6980 h1        1 EXX      0.054700
     27 H6          8.8860   -2.5880   -3.9810 ho        1 EXX      0.410000
     28 H7          7.9780    0.2450   -5.5390 h1        1 EXX      0.115700
     29 H8          6.2170   -0.9390   -6.8280 h1        1 EXX      0.035700
     30 H9          5.0110   -0.7590   -5.4600 h1        1 EXX      0.035700
     31 H10         4.9410    0.8850   -7.1670 ho        1 EXX      0.409000
@<TRIPOS>BOND
     1    1    2 1   
     2    2    3 ar  
     3    2   10 ar  
     4    3    4 1   
     5    3    5 ar  
     6    5    6 1   
     7    5    7 ar  
     8    7    8 1   
     9    7    9 ar  
    10    9   10 ar  
    11    9   13 1   
    12   10   11 1   
    13   11   12 2   
    14   12   13 1   
    15   12   22 1   
    16   13   14 1   
    17   14   15 1   
    18   14   16 1   
    19   14   23 1   
    20   15   19 1   
    21   16   17 1   
    22   16   24 1   
    23   16   25 1   
    24   17   18 1   
    25   17   19 1   
    26   17   26 1   
    27   18   27 1   
    28   19   20 1   
    29   19   28 1   
    30   20   21 1   
    31   20   29 1   
    32   20   30 1   
    33   21   31 1   
@<TRIPOS>SUBSTRUCTURE
     1 EXX         1 TEMP              0 ****  ****    0 ROOT
