@<TRIPOS>MOLECULE
EXY
   26    26     1     0     0
SMALL
bcc


@<TRIPOS>ATOM
      1 N           2.4400    1.8320    0.5140 n3        1 EXY     -0.891800
      2 CA          2.3030    0.3880    0.3710 c3        1 EXY      0.018500
      3 C           3.4940   -0.3030   -0.3750 c         1 EXY      0.887600
      4 O           4.4550    0.4220   -0.7600 o         1 EXY     -0.844800
      5 OXT         3.4360   -1.5540   -0.5330 o         1 EXY     -0.844800
      6 CB          1.0040   -0.0330   -0.3170 c3        1 EXY     -0.063400
      7 CG         -0.2230    0.3130    0.4990 c3        1 EXY     -0.075400
      8 CD         -1.4820   -0.2020   -0.1680 c3        1 EXY     -0.078400
      9 CE         -2.7140    0.1520    0.6390 c3        1 EXY     -0.076400
     10 CF         -3.9550   -0.3610   -0.0250 cx        1 EXY      0.076100
     11 CH         -4.8710    0.5410   -0.7720 cx        1 EXY      0.046400
     12 OF         -5.2070    0.0760    0.5420 os        1 EXY     -0.425600
     13 H           3.4010    2.0160    0.7520 hn        1 EXY      0.329800
     14 H2          2.2910    2.2550   -0.3860 hn        1 EXY      0.329800
     15 HA          2.2990   -0.0350    1.4190 h1        1 EXY      0.040700
     16 HB2         0.9320    0.4460   -1.3280 hc        1 EXY      0.046200
     17 HB3         1.0610   -1.1440   -0.4740 hc        1 EXY      0.046200
     18 HG2        -0.1310   -0.1360    1.5230 hc        1 EXY      0.037700
     19 HG3        -0.2940    1.4240    0.6300 hc        1 EXY      0.037700
     20 HD2        -1.5670    0.2350   -1.1970 hc        1 EXY      0.036700
     21 HD3        -1.4150   -1.3160   -0.2860 hc        1 EXY      0.036700
     22 HE2        -2.6400   -0.2980    1.6650 hc        1 EXY      0.052700
     23 HE3        -2.7790    1.2640    0.7700 hc        1 EXY      0.052700
     24 HF         -3.9330   -1.4420   -0.2710 h1        1 EXY      0.085700
     25 HH1        -4.6650    1.6250   -0.8370 h1        1 EXY      0.070200
     26 HH2        -5.5200    0.1490   -1.5770 h1        1 EXY      0.070200
@<TRIPOS>BOND
     1    1    2 1   
     2    1   13 1   
     3    1   14 1   
     4    2    3 1   
     5    2    6 1   
     6    2   15 1   
     7    3    4 1   
     8    3    5 1   
     9    6    7 1   
    10    6   16 1   
    11    6   17 1   
    12    7    8 1   
    13    7   18 1   
    14    7   19 1   
    15    8    9 1   
    16    8   20 1   
    17    8   21 1   
    18    9   10 1   
    19    9   22 1   
    20    9   23 1   
    21   10   11 1   
    22   10   12 1   
    23   10   24 1   
    24   11   12 1   
    25   11   25 1   
    26   11   26 1   
@<TRIPOS>SUBSTRUCTURE
     1 EXY         1 TEMP              0 ****  ****    0 ROOT
