@<TRIPOS>MOLECULE
EYG
   45    46     1     0     0
SMALL
bcc


@<TRIPOS>ATOM
      1 C          -3.0110   -1.7830    1.2700 c         1 EYG      0.886600
      2 O          -2.0600   -1.5160    2.0580 o         1 EYG     -0.838800
      3 N1         -3.4270    0.3420   -0.7630 n3        1 EYG     -0.949800
      4 C2         -0.2820   -2.6850   -0.3720 c         1 EYG      0.682700
      5 O2         -0.1520   -3.9010   -0.1790 o         1 EYG     -0.612500
      6 N3         -1.4670   -2.0170   -0.7520 n         1 EYG     -0.434800
      7 CB         -1.5040    1.9160   -0.7060 c3        1 EYG     -0.086400
      8 CE         -2.2830    5.5470    0.9740 c3        1 EYG     -0.039000
      9 CG         -2.3030    2.9930   -0.0140 c3        1 EYG     -0.006300
     10 CZ          5.4940    0.5040    0.4760 ca        1 EYG      0.106100
     11 C13        -1.1280   -0.5850   -1.0480 c3        1 EYG      0.515400
     12 O13        -1.2510   -0.3400   -2.4500 oh        1 EYG     -0.581800
     13 N23         0.3370   -0.4060   -0.6970 nh        1 EYG     -0.739000
     14 CA3        -2.0520    0.5170   -0.3620 c3        1 EYG      0.199500
     15 CAG        -2.6980   -2.4190   -0.1110 c3        1 EYG     -0.044000
     16 CAR         0.8490   -1.6710   -0.3290 ce        1 EYG      0.012800
     17 CB2         2.1050   -2.0130    0.0170 cf        1 EYG     -0.130200
     18 CD1         3.4400   -0.0170   -0.6770 ca        1 EYG     -0.088500
     19 CD2         4.2060   -1.4170    1.1410 ca        1 EYG     -0.088500
     20 CE1         4.5570    0.8010   -0.5200 ca        1 EYG     -0.189000
     21 CE2         5.3240   -0.6110    1.3120 ca        1 EYG     -0.189000
     22 CG2         3.2450   -1.1290    0.1530 ca        1 EYG     -0.060800
     23 HN11       -3.9890   -0.0580   -0.0340 hn        1 EYG      0.382300
     24 HN12       -3.8290    1.1770   -1.1240 hn        1 EYG      0.382300
     25 OXT        -4.2280   -1.5420    1.5180 o         1 EYG     -0.838800
     26 HB         -1.5260    2.0590   -1.8190 hc        1 EYG      0.065200
     27 HBA        -0.4380    2.0130   -0.3760 hc        1 EYG      0.065200
     28 HE         -3.2980    5.7420    0.5610 h1        1 EYG      0.057033
     29 HEA        -2.3940    5.1250    1.9980 h1        1 EYG      0.057033
     30 HEB        -1.7230    6.5080    1.0340 h1        1 EYG      0.057033
     31 HG         -3.2840    3.1660   -0.5180 h1        1 EYG      0.064200
     32 HGA        -2.5080    2.7090    1.0480 h1        1 EYG      0.064200
     33 HOH         6.5860    2.0170    0.0740 ho        1 EYG      0.412000
     34 HO13       -0.8160   -1.0500   -2.9380 ho        1 EYG      0.402000
     35 HN23        0.4850    0.2890    0.0070 hn        1 EYG      0.399800
     36 H13        -1.9330    0.3440    0.7550 h1        1 EYG      0.097700
     37 HAG        -2.6360   -3.5330    0.0480 h1        1 EYG      0.063200
     38 HAGA       -3.5430   -2.2130   -0.8230 h1        1 EYG      0.063200
     39 HB2         2.2900   -3.0780    0.2530 ha        1 EYG      0.151000
     40 HD1         2.7140    0.2130   -1.4730 ha        1 EYG      0.147000
     41 HD2         4.0610   -2.2910    1.7940 ha        1 EYG      0.147000
     42 HE1         4.6980    1.6740   -1.1730 ha        1 EYG      0.133000
     43 HE2         6.0700   -0.8280    2.0880 ha        1 EYG      0.133000
     44 SD         -1.3490    4.4900   -0.0660 ss        1 EYG     -0.319200
     45 OH          6.6240    1.2680    0.6850 oh        1 EYG     -0.509100
@<TRIPOS>BOND
     1    1    2 1   
     2    1   15 1   
     3    1   25 1   
     4    3   14 1   
     5    3   23 1   
     6    3   24 1   
     7    4    5 2   
     8    4    6 1   
     9    4   16 1   
    10    6   11 1   
    11    6   15 1   
    12    7    9 1   
    13    7   14 1   
    14    7   26 1   
    15    7   27 1   
    16    8   28 1   
    17    8   29 1   
    18    8   30 1   
    19    8   44 1   
    20    9   31 1   
    21    9   32 1   
    22    9   44 1   
    23   10   20 ar  
    24   10   21 ar  
    25   10   45 1   
    26   11   12 1   
    27   11   13 1   
    28   11   14 1   
    29   12   34 1   
    30   13   16 1   
    31   13   35 1   
    32   14   36 1   
    33   15   37 1   
    34   15   38 1   
    35   16   17 2   
    36   17   22 1   
    37   17   39 1   
    38   18   20 ar  
    39   18   22 ar  
    40   18   40 1   
    41   19   21 ar  
    42   19   22 ar  
    43   19   41 1   
    44   20   42 1   
    45   21   43 1   
    46   33   45 1   
@<TRIPOS>SUBSTRUCTURE
     1 EYG         1 TEMP              0 ****  ****    0 ROOT
