@<TRIPOS>MOLECULE
EYG
   45    41     1     0     0
SMALL
bcc


@<TRIPOS>ATOM
      1 C          -1.4720    2.4560   -2.2770 c1        1 EYG      0.319000
      2 O          -1.4070    3.1360   -1.1930 o         1 EYG     -0.564000
      3 N1         -1.9200   -1.6910   -2.1190 n3        1 EYG     -0.344000
      4 C2          0.5320    1.2620   -0.6850 c1        1 EYG      0.331000
      5 O2          1.2030    2.0090   -1.2960 o         1 EYG     -0.320000
      6 N3         -0.5810    0.5030   -1.2100 n3        1 EYG     -0.304000
      7 CB         -1.3650   -2.9340   -0.0240 c3        1 EYG     -0.144000
      8 SD         -2.1220   -5.4990    0.2240 ss        1 EYG      0.039000
      9 CE         -2.5000   -6.9140   -0.7570 c3        1 EYG     -0.337000
     10 CG         -1.3460   -4.3070   -0.7580 c3        1 EYG     -0.247000
     11 OH          3.6220    6.4200    2.4670 oh        1 EYG     -0.262000
     12 CZ          3.3280    4.9930    2.2960 c2        1 EYG      0.064000
     13 C13        -0.8210   -0.5750   -0.2780 c3        1 EYG      0.203000
     14 O13        -1.9550   -0.3490    0.4150 oh        1 EYG     -0.377000
     15 N23         0.3390   -0.6060    0.6540 n3        1 EYG     -0.281000
     16 CA3        -0.9150   -1.8230   -0.9890 c3        1 EYG      0.018000
     17 CAG        -1.4600    0.9290   -2.2240 c2        1 EYG     -0.133000
     18 CAR         0.8860    0.6350    0.6480 c1        1 EYG     -0.045000
     19 CB2         1.6300    1.2140    1.6670 c1        1 EYG     -0.132000
     20 CD1         3.4440    2.9530    1.0240 c1        1 EYG     -0.059000
     21 CD2         1.4880    3.4070    2.3710 c1        1 EYG     -0.087000
     22 CE1         4.0140    4.1420    1.4140 c2        1 EYG     -0.159000
     23 CE2         2.0610    4.6250    2.7770 c1        1 EYG     -0.220000
     24 CG2         2.1670    2.5820    1.5080 c1        1 EYG     -0.048000
     25 HN11       -1.5880   -2.0960   -2.8720 hn        1 EYG      0.154000
     26 HN12       -2.6660   -2.0690   -1.8910 hn        1 EYG      0.154000
     27 OXT        -1.5430    3.0250   -3.3500 o         1 EYG     -0.564000
     28 HB         -0.7380   -2.9690    0.7640 hc        1 EYG      0.108500
     29 HBA        -2.3180   -2.7350    0.3060 hc        1 EYG      0.108500
     30 HE         -3.0040   -6.6420   -1.5350 h1        1 EYG      0.093667
     31 HEA        -3.0920   -7.6210   -0.1650 h1        1 EYG      0.093667
     32 HEB        -1.7160   -7.3190   -1.0270 h1        1 EYG      0.093667
     33 HG         -1.8350   -4.2260   -1.6320 h1        1 EYG      0.101000
     34 HGA        -0.4300   -4.5720   -0.9210 h1        1 EYG      0.101000
     35 HOH         4.1790    6.5250    3.1400 ho        1 EYG      0.208000
     36 HO13       -1.8460    0.3490    0.9310 ho        1 EYG      0.275000
     37 HN23        0.5590   -1.2640    1.1830 hn        1 EYG      0.191000
     38 H13        -0.0100   -2.0580   -1.3710 h1        1 EYG      0.104000
     39 HAG        -2.3720    0.5950   -2.0330 h4        1 EYG      0.096500
     40 HAGA       -1.1500    0.5690   -3.1080 h4        1 EYG      0.096500
     41 HB2         1.8020    0.7030    2.5110 ha        1 EYG      0.123000
     42 HD1         3.9230    2.3610    0.4100 ha        1 EYG      0.158000
     43 HD2         0.6230    3.1470    2.7000 ha        1 EYG      0.130000
     44 HE1         4.8630    4.4330    1.0090 ha        1 EYG      0.143000
     45 HE2         1.5050    5.2960    3.2930 ha        1 EYG      0.122000
@<TRIPOS>BOND
     1    1    2 1   
     2    1   27 1   
     3    3   16 1   
     4    3   25 1   
     5    3   26 1   
     6    4    5 1   
     7    4    6 1   
     8    6   13 1   
     9    6   17 1   
    10    7   10 1   
    11    7   16 1   
    12    7   28 1   
    13    7   29 1   
    14    8    9 1   
    15    8   10 1   
    16    9   30 1   
    17    9   31 1   
    18    9   32 1   
    19   10   33 1   
    20   10   34 1   
    21   11   12 1   
    22   11   35 1   
    23   12   22 1   
    24   12   23 1   
    25   13   14 1   
    26   13   15 1   
    27   13   16 1   
    28   14   36 1   
    29   15   18 1   
    30   15   37 1   
    31   16   38 1   
    32   17   39 1   
    33   17   40 1   
    34   18   19 1   
    35   19   41 1   
    36   20   22 1   
    37   20   42 1   
    38   21   24 1   
    39   21   43 1   
    40   22   44 1   
    41   23   45 1   
@<TRIPOS>SUBSTRUCTURE
     1 EYG         1 TEMP              0 ****  ****    0 ROOT
