@<TRIPOS>MOLECULE
EYK
   26    26     1     0     0
SMALL
bcc


@<TRIPOS>ATOM
      1 CAA         1.6300    2.2040   -0.1150 c3        1 EYK     -0.088100
      2 CAL         1.6430    0.6810   -0.0170 c3        1 EYK      0.002300
      3 CAB         2.4130    0.1450   -1.2210 c3        1 EYK     -0.088100
      4 CAC         2.3780    0.3060    1.2680 c3        1 EYK     -0.088100
      5 CAK         0.2550    0.0960    0.0020 ca        1 EYK     -0.045300
      6 CAH        -0.8770    0.9130   -0.0670 ca        1 EYK     -0.181000
      7 CAI        -2.1660    0.3640   -0.0500 ca        1 EYK      0.090100
      8 OAD        -3.3020    1.1440   -0.1160 oh        1 EYK     -0.500100
      9 CAF        -2.3640   -1.0200    0.0370 ca        1 EYK     -0.122000
     10 CAG        -1.2500   -1.8460    0.1060 ca        1 EYK     -0.181000
     11 CAJ         0.0420   -1.2990    0.0890 ca        1 EYK      0.093100
     12 OAE         1.1470   -2.1250    0.1580 oh        1 EYK     -0.501100
     13 HAA         1.1300    2.5360   -1.0560 hc        1 EYK      0.038922
     14 HAAA        1.1050    2.6540    0.7610 hc        1 EYK      0.038922
     15 HAAB        2.6800    2.5860   -0.1250 hc        1 EYK      0.038922
     16 HAB         3.4340    0.5950   -1.2470 hc        1 EYK      0.038922
     17 HABA        2.5160   -0.9650   -1.1600 hc        1 EYK      0.038922
     18 HABB        1.8820    0.4070   -2.1670 hc        1 EYK      0.038922
     19 HAC         1.8210    0.6860    2.1570 hc        1 EYK      0.038922
     20 HACA        2.4800   -0.8030    1.3530 hc        1 EYK      0.038922
     21 HACB        3.3990    0.7570    1.2650 hc        1 EYK      0.038922
     22 HAH        -0.7770    2.0070   -0.1360 ha        1 EYK      0.139000
     23 HOAD       -3.0240    2.0690   -0.1720 ho        1 EYK      0.417000
     24 HAF        -3.3830   -1.4300    0.0490 ha        1 EYK      0.152000
     25 HAG        -1.3820   -2.9360    0.1740 ha        1 EYK      0.135000
     26 HOAE        0.8310   -3.0390    0.2120 ho        1 EYK      0.415000
@<TRIPOS>BOND
     1    1    2 1   
     2    1   13 1   
     3    1   14 1   
     4    1   15 1   
     5    2    3 1   
     6    2    4 1   
     7    2    5 1   
     8    3   16 1   
     9    3   17 1   
    10    3   18 1   
    11    4   19 1   
    12    4   20 1   
    13    4   21 1   
    14    5    6 ar  
    15    5   11 ar  
    16    6    7 ar  
    17    6   22 1   
    18    7    8 1   
    19    7    9 ar  
    20    8   23 1   
    21    9   10 ar  
    22    9   24 1   
    23   10   11 ar  
    24   10   25 1   
    25   11   12 1   
    26   12   26 1   
@<TRIPOS>SUBSTRUCTURE
     1 EYK         1 TEMP              0 ****  ****    0 ROOT
