@<TRIPOS>MOLECULE
EYK
   26    26     1     0     0
SMALL
bcc


@<TRIPOS>ATOM
      1 CAA        -0.0220   -0.0640    0.0650 c3        1 EYK     -0.088433
      2 CAL         1.5020   -0.0090    0.0220 c3        1 EYK      0.002300
      3 CAB         2.0060    0.0340    1.4620 c3        1 EYK     -0.088433
      4 CAC         1.9950   -1.2860   -0.6540 c3        1 EYK     -0.088433
      5 CAK         2.0090    1.1930   -0.7310 ca        1 EYK     -0.048300
      6 CAH         1.1260    2.1120   -1.3000 ca        1 EYK     -0.128000
      7 CAI         1.6050    3.2320   -2.0010 ca        1 EYK      0.091100
      8 OAD         0.6460    4.0750   -2.5220 oh        1 EYK     -0.499100
      9 CAF         2.9750    3.4600   -2.1510 ca        1 EYK     -0.179000
     10 CAG         3.8690    2.5540   -1.5900 ca        1 EYK     -0.178000
     11 CAJ         3.3960    1.4360   -0.8900 ca        1 EYK      0.094100
     12 OAE         4.2820    0.5360   -0.3330 oh        1 EYK     -0.500100
     13 HAA        -0.4460   -0.1280   -0.9660 hc        1 EYK      0.039589
     14 HAAA       -0.4370    0.8360    0.5780 hc        1 EYK      0.039589
     15 HAAB       -0.3460   -0.9700    0.6320 hc        1 EYK      0.039589
     16 HAB         1.6590    0.9680    1.9650 hc        1 EYK      0.039589
     17 HABA        1.6120   -0.8450    2.0270 hc        1 EYK      0.039589
     18 HABB        3.1220    0.0030    1.4910 hc        1 EYK      0.039589
     19 HAC         1.6000   -2.1780   -0.1100 hc        1 EYK      0.039589
     20 HACA        3.1100   -1.3310   -0.6460 hc        1 EYK      0.039589
     21 HACB        1.6390   -1.3250   -1.7110 hc        1 EYK      0.039589
     22 HAH         0.0350    1.9920   -1.2180 ha        1 EYK      0.157000
     23 HOAD        1.1030    4.7970   -2.9750 ho        1 EYK      0.416000
     24 HAF         3.3430    4.3380   -2.7000 ha        1 EYK      0.135000
     25 HAG         4.9520    2.7160   -1.6970 ha        1 EYK      0.133000
     26 HOAE        5.1790    0.8430   -0.5300 ho        1 EYK      0.414000
@<TRIPOS>BOND
     1    1    2 1   
     2    1   13 1   
     3    1   14 1   
     4    1   15 1   
     5    2    3 1   
     6    2    4 1   
     7    2    5 1   
     8    3   16 1   
     9    3   17 1   
    10    3   18 1   
    11    4   19 1   
    12    4   20 1   
    13    4   21 1   
    14    5    6 ar  
    15    5   11 ar  
    16    6    7 ar  
    17    6   22 1   
    18    7    8 1   
    19    7    9 ar  
    20    8   23 1   
    21    9   10 ar  
    22    9   24 1   
    23   10   11 ar  
    24   10   25 1   
    25   11   12 1   
    26   12   26 1   
@<TRIPOS>SUBSTRUCTURE
     1 EYK         1 TEMP              0 ****  ****    0 ROOT
