@<TRIPOS>MOLECULE
EYK
   26    24     1     0     0
SMALL
bcc


@<TRIPOS>ATOM
      1 CAA        -2.0160    1.0690    0.5750 c3        1 EYK     -0.206333
      2 CAL        -0.4480    1.0960    0.5480 c3        1 EYK     -0.005000
      3 CAB         0.0940    1.0980    1.9960 c3        1 EYK     -0.206333
      4 CAC         0.0160    2.3300   -0.1490 c3        1 EYK     -0.206333
      5 CAK         0.0680   -0.1380   -0.1810 c2        1 EYK     -0.041000
      6 CAH         1.0960   -0.0320   -1.0120 c2        1 EYK     -0.128000
      7 CAI         1.6250   -1.1890   -1.6310 c1        1 EYK      0.046000
      8 OAD         2.6170   -1.0670   -2.6070 o         1 EYK     -0.253000
      9 CAF         1.0750   -2.4220   -1.3710 c2        1 EYK     -0.179000
     10 CAG        -0.0020   -2.5300   -0.4980 c1        1 EYK     -0.178000
     11 CAJ        -0.5070   -1.4210    0.0930 c1        1 EYK      0.049000
     12 OAE        -1.6180   -1.5180    0.8940 oh        1 EYK     -0.254000
     13 HAA        -2.3480    0.4460    1.3800 hc        1 EYK      0.078889
     14 HAAA       -2.3610    1.9930    0.7040 hc        1 EYK      0.078889
     15 HAAB       -2.3290    0.7390   -0.2090 hc        1 EYK      0.078889
     16 HAB         1.0010    1.1900    1.9810 hc        1 EYK      0.078889
     17 HABA       -0.1390    0.2590    2.4300 hc        1 EYK      0.078889
     18 HABB       -0.3070    1.8550    2.4970 hc        1 EYK      0.078889
     19 HAC         0.9780    2.3570   -0.1450 hc        1 EYK      0.078889
     20 HACA       -0.3020    2.3290   -1.0590 hc        1 EYK      0.078889
     21 HACB       -0.3520    3.1550    0.3420 hc        1 EYK      0.078889
     22 HAH         1.4370    0.9130   -1.2940 ha        1 EYK      0.157000
     23 HOAD        3.3350   -1.4620   -2.3430 ho        1 EYK      0.215000
     24 HAF         1.4680   -3.2780   -1.8340 ha        1 EYK      0.135000
     25 HAG        -0.3810   -3.3750   -0.3150 ha        1 EYK      0.133000
     26 HOAE       -1.7000   -2.3970    1.2100 ho        1 EYK      0.213000
@<TRIPOS>BOND
     1    1    2 1   
     2    1   13 1   
     3    1   14 1   
     4    1   15 1   
     5    2    3 1   
     6    2    4 1   
     7    2    5 1   
     8    3   16 1   
     9    3   17 1   
    10    3   18 1   
    11    4   19 1   
    12    4   20 1   
    13    4   21 1   
    14    5    6 1   
    15    5   11 1   
    16    6    7 1   
    17    6   22 1   
    18    7    9 1   
    19    8   23 1   
    20    9   10 1   
    21    9   24 1   
    22   10   25 1   
    23   11   12 1   
    24   12   26 1   
@<TRIPOS>SUBSTRUCTURE
     1 EYK         1 TEMP              0 ****  ****    0 ROOT
