@<TRIPOS>MOLECULE
EYK
   26    26     1     0     0
SMALL
bcc


@<TRIPOS>ATOM
      1 CAA        -0.0160   -0.0900    0.0400 c3        1 EYK     -0.088433
      2 CAL         1.5080   -0.0170    0.0150 c3        1 EYK      0.002300
      3 CAB         1.9960    0.0300    1.4600 c3        1 EYK     -0.088433
      4 CAC         2.0240   -1.2860   -0.6590 c3        1 EYK     -0.088433
      5 CAK         2.0080    1.1940   -0.7300 ca        1 EYK     -0.048300
      6 CAH         1.1200    2.1030   -1.3060 ca        1 EYK     -0.128000
      7 CAI         1.5930    3.2300   -2.0000 ca        1 EYK      0.091100
      8 OAD         0.6290    4.0630   -2.5290 oh        1 EYK     -0.499100
      9 CAF         2.9620    3.4760   -2.1350 ca        1 EYK     -0.179000
     10 CAG         3.8600    2.5790   -1.5660 ca        1 EYK     -0.178000
     11 CAJ         3.3930    1.4540   -0.8740 ca        1 EYK      0.094100
     12 OAE         4.2850    0.5640   -0.3090 oh        1 EYK     -0.500100
     13 HAA        -0.4270   -0.1570   -0.9950 hc        1 EYK      0.039589
     14 HAAA       -0.4470    0.8040    0.5520 hc        1 EYK      0.039589
     15 HAAB       -0.3350   -1.0020    0.6020 hc        1 EYK      0.039589
     16 HAB         1.6320    0.9580    1.9610 hc        1 EYK      0.039589
     17 HABA        1.6060   -0.8550    2.0190 hc        1 EYK      0.039589
     18 HABB        3.1120    0.0120    1.5000 hc        1 EYK      0.039589
     19 HAC         1.6340   -2.1830   -0.1210 hc        1 EYK      0.039589
     20 HACA        3.1390   -1.3170   -0.6400 hc        1 EYK      0.039589
     21 HACB        1.6800   -1.3270   -1.7200 hc        1 EYK      0.039589
     22 HAH         0.0300    1.9690   -1.2370 ha        1 EYK      0.157000
     23 HOAD        1.0820    4.7920   -2.9760 ho        1 EYK      0.416000
     24 HAF         3.3240    4.3590   -2.6780 ha        1 EYK      0.135000
     25 HAG         4.9420    2.7550   -1.6610 ha        1 EYK      0.133000
     26 HOAE        5.1800    0.8820   -0.4950 ho        1 EYK      0.414000
@<TRIPOS>BOND
     1    1    2 1   
     2    1   13 1   
     3    1   14 1   
     4    1   15 1   
     5    2    3 1   
     6    2    4 1   
     7    2    5 1   
     8    3   16 1   
     9    3   17 1   
    10    3   18 1   
    11    4   19 1   
    12    4   20 1   
    13    4   21 1   
    14    5    6 ar  
    15    5   11 ar  
    16    6    7 ar  
    17    6   22 1   
    18    7    8 1   
    19    7    9 ar  
    20    8   23 1   
    21    9   10 ar  
    22    9   24 1   
    23   10   11 ar  
    24   10   25 1   
    25   11   12 1   
    26   12   26 1   
@<TRIPOS>SUBSTRUCTURE
     1 EYK         1 TEMP              0 ****  ****    0 ROOT
