@<TRIPOS>MOLECULE
EYS
   15    14     1     0     0
SMALL
bcc


@<TRIPOS>ATOM
      1 N          44.4200  135.3240   97.5450 n4        1 EYS     -0.857600
      2 CA         43.4560  135.6310   98.6520 c3        1 EYS     -0.014500
      3 CB         42.0390  135.8640   98.1420 c3        1 EYS     -0.103300
      4 SE         42.2000  133.7560   95.9500 sh        1 EYS     -0.287800
      5 SG         41.1470  134.4360   97.6590 ss        1 EYS     -0.014100
      6 C          43.4650  134.5420   99.7420 c         1 EYS      0.573900
      7 O          44.3620  133.7110   99.7880 o         1 EYS     -0.463100
      8 H3         45.1760  134.7270   97.9150 hn        1 EYS      0.472800
      9 H2         43.9330  134.8090   96.7730 hn        1 EYS      0.472800
     10 H          44.8210  136.1870   97.1730 hn        1 EYS      0.472800
     11 HA         43.8190  136.5840   99.1560 hx        1 EYS      0.132700
     12 HB2        41.4270  136.2710   99.0010 h1        1 EYS      0.128200
     13 HB3        42.0350  136.6580   97.3530 h1        1 EYS      0.128200
     14 HE         41.4920  134.3080   94.9570 hs        1 EYS      0.278800
     15 HC         42.6250  134.6200  100.4610 h4        1 EYS      0.083200
@<TRIPOS>BOND
     1    1    2 1   
     2    1    8 1   
     3    1    9 1   
     4    1   10 1   
     5    2    3 1   
     6    2    6 1   
     7    2   11 1   
     8    3    5 1   
     9    3   12 1   
    10    3   13 1   
    11    4    5 1   
    12    4   14 1   
    13    6    7 2   
    14    6   15 1   
@<TRIPOS>SUBSTRUCTURE
     1 EYS         1 TEMP              0 ****  ****    0 ROOT
