@<TRIPOS>MOLECULE
EYS
   15    14     1     0     0
SMALL
bcc


@<TRIPOS>ATOM
      1 N          -1.8380    0.1780   -0.6880 n4        1 EYS     -0.834600
      2 CA         -0.4140    0.1780   -0.6880 c3        1 EYS     -0.020500
      3 CB          0.0890    0.1780    0.7360 c3        1 EYS     -0.094300
      4 SE          2.6010    0.6700    2.7800 sh        1 EYS     -0.211800
      5 SG          1.8620    0.1890    0.7360 ss        1 EYS     -0.058100
      6 C           0.0890   -1.0560   -1.4010 c         1 EYS      0.565900
      7 O           0.9680   -0.9590   -2.2370 o         1 EYS     -0.474100
      8 H3         -2.1420    0.1200   -1.5460 hn        1 EYS      0.468133
      9 H2         -2.1420    0.9500   -0.3090 hn        1 EYS      0.468133
     10 H          -2.1420   -0.5360   -0.2100 hn        1 EYS      0.468133
     11 HA         -0.0890    0.9750   -1.1490 hx        1 EYS      0.142700
     12 HB2        -0.2310   -0.6220    1.1940 h1        1 EYS      0.111700
     13 HB3        -0.2410    0.9720    1.1980 h1        1 EYS      0.111700
     14 HE          3.9230    0.6940    2.7770 hs        1 EYS      0.254800
     15 HC         -0.2920   -1.9300   -1.1920 h4        1 EYS      0.102200
@<TRIPOS>BOND
     1    1    2 1   
     2    1    8 1   
     3    1    9 1   
     4    1   10 1   
     5    2    3 1   
     6    2    6 1   
     7    2   11 1   
     8    3    5 1   
     9    3   12 1   
    10    3   13 1   
    11    4    5 1   
    12    4   14 1   
    13    6    7 2   
    14    6   15 1   
@<TRIPOS>SUBSTRUCTURE
     1 EYS         1 TEMP              0 ****  ****    0 ROOT
