@<TRIPOS>MOLECULE
EZ4
   21    20     1     0     0
SMALL
bcc


@<TRIPOS>ATOM
      1 OAA        -0.2380    0.7740    0.8610 oh        1 EZ4     -0.589800
      2 OAB         3.2110   -0.2990    0.5500 oh        1 EZ4     -0.613800
      3 OAC         3.5510    0.1180   -2.8370 o         1 EZ4     -0.063700
      4 NAD         2.4950   -0.1320   -2.4590 n2        1 EZ4      0.124700
      5 CAE         1.5290    0.9580   -2.1590 c         1 EZ4      0.398100
      6 CAF         1.4760    1.4500   -0.7180 c3        1 EZ4      0.039100
      7 CAG         0.9440    0.3430    0.2180 c3        1 EZ4      0.118100
      8 CAH         2.0100   -0.0390    1.2600 c3        1 EZ4      0.115100
      9 CAI         1.5540   -1.2720    2.0460 c3        1 EZ4      0.093400
     10 OAJ         2.5650   -1.5160    3.0110 oh        1 EZ4     -0.614800
     11 OAK         0.7230    1.3570   -3.0050 o         1 EZ4     -0.491100
     12 OAL         0.6690    2.6020   -0.6120 oh        1 EZ4     -0.581800
     13 HOAA       -0.0530    1.6260    1.2820 ho        1 EZ4      0.420000
     14 HOAB        3.8220   -0.7040    1.1810 ho        1 EZ4      0.433000
     15 HAF         2.5040    1.7890   -0.3990 h1        1 EZ4      0.121700
     16 HAG         0.6310   -0.5700   -0.3610 h1        1 EZ4      0.096700
     17 HAH         2.1790    0.8170    1.9720 h1        1 EZ4      0.055700
     18 HAI         0.5710   -1.0610    2.5420 h1        1 EZ4      0.047200
     19 HAIA        1.4540   -2.1560    1.3620 h1        1 EZ4      0.047200
     20 HOAJ        2.2860   -2.2870    3.5180 ho        1 EZ4      0.414000
     21 HOAL       -0.1800    2.4110   -1.0410 ho        1 EZ4      0.430000
@<TRIPOS>BOND
     1    1    7 1   
     2    1   13 1   
     3    2    8 1   
     4    2   14 1   
     5    3    4 2   
     6    4    5 1   
     7    5    6 1   
     8    5   11 2   
     9    6    7 1   
    10    6   12 1   
    11    6   15 1   
    12    7    8 1   
    13    7   16 1   
    14    8    9 1   
    15    8   17 1   
    16    9   10 1   
    17    9   18 1   
    18    9   19 1   
    19   10   20 1   
    20   12   21 1   
@<TRIPOS>SUBSTRUCTURE
     1 EZ4         1 TEMP              0 ****  ****    0 ROOT
