@<TRIPOS>MOLECULE
EZ4
   21    19     1     0     0
SMALL
bcc


@<TRIPOS>ATOM
      1 OAA        -1.7340   -0.2350   -0.2410 oh        1 EZ4     -0.315000
      2 OAB         1.5900   -0.2370    1.1710 oh        1 EZ4     -0.342000
      3 OAC         1.4940    0.4860   -4.3160 o         1 EZ4     -0.119000
      4 NAD         1.4480    0.7010   -3.1130 n1        1 EZ4      0.189000
      5 CAE         0.1940    0.7830   -2.4540 c1        1 EZ4      0.102000
      6 CAF         0.1380    1.0520   -0.9680 c3        1 EZ4     -0.020000
      7 CAG        -0.3260   -0.1930   -0.2470 c3        1 EZ4      0.003000
      8 CAH         0.1830   -0.1710    1.1760 c3        1 EZ4      0.004000
      9 CAI        -0.3750   -1.3580    1.9290 c3        1 EZ4     -0.056000
     10 OAJ         0.1670   -1.3850    3.2310 oh        1 EZ4     -0.342000
     11 OAK        -0.8340    0.6370   -3.0850 o         1 EZ4     -0.255000
     12 OAL        -0.7640    2.1030   -0.7150 oh        1 EZ4     -0.308000
     13 HOAA       -2.0100   -0.9610   -0.6740 ho        1 EZ4      0.220000
     14 HOAB        1.9190    0.4270    1.6620 ho        1 EZ4      0.234000
     15 HAF         1.0270    1.3020   -0.6480 h1        1 EZ4      0.163000
     16 HAG         0.0220   -0.9830   -0.7060 h1        1 EZ4      0.132000
     17 HAH        -0.1030    0.6560    1.6110 h1        1 EZ4      0.096000
     18 HAI        -0.1370   -2.1840    1.4590 h1        1 EZ4      0.086500
     19 HAIA       -1.3500   -1.2810    1.9830 h1        1 EZ4      0.086500
     20 HOAJ       -0.2170   -2.0370    3.6980 ho        1 EZ4      0.213000
     21 HOAL       -0.3330    2.8800   -0.7540 ho        1 EZ4      0.229000
@<TRIPOS>BOND
     1    1    7 1   
     2    1   13 1   
     3    2    8 1   
     4    2   14 1   
     5    3    4 1   
     6    5    6 1   
     7    5   11 1   
     8    6    7 1   
     9    6   12 1   
    10    6   15 1   
    11    7    8 1   
    12    7   16 1   
    13    8    9 1   
    14    8   17 1   
    15    9   10 1   
    16    9   18 1   
    17    9   19 1   
    18   10   20 1   
    19   12   21 1   
@<TRIPOS>SUBSTRUCTURE
     1 EZ4         1 TEMP              0 ****  ****    0 ROOT
