@<TRIPOS>MOLECULE
EZ4
   21    20     1     0     0
SMALL
bcc


@<TRIPOS>ATOM
      1 OAA        -0.2490    0.7750    0.8060 oh        1 EZ4     -0.589800
      2 OAB         3.2040   -0.3110    0.5990 oh        1 EZ4     -0.613800
      3 OAC         3.6540    0.1280   -2.7740 o         1 EZ4     -0.063700
      4 NAD         2.5860   -0.1200   -2.4310 n2        1 EZ4      0.124700
      5 CAE         1.6150    0.9720   -2.1550 c         1 EZ4      0.398100
      6 CAF         1.5170    1.4540   -0.7130 c3        1 EZ4      0.039100
      7 CAG         0.9510    0.3440    0.1990 c3        1 EZ4      0.118100
      8 CAH         1.9820   -0.0500    1.2720 c3        1 EZ4      0.115100
      9 CAI         1.4960   -1.2850    2.0340 c3        1 EZ4      0.093400
     10 OAJ         2.4740   -1.5400    3.0300 oh        1 EZ4     -0.614800
     11 OAK         0.8380    1.3800   -3.0220 o         1 EZ4     -0.491100
     12 OAL         0.7120    2.6090   -0.6250 oh        1 EZ4     -0.581800
     13 HOAA       -0.0740    1.6240    1.2390 ho        1 EZ4      0.420000
     14 HOAB        3.7920   -0.7230    1.2470 ho        1 EZ4      0.433000
     15 HAF         2.5360    1.7870   -0.3580 h1        1 EZ4      0.121700
     16 HAG         0.6530   -0.5650   -0.3970 h1        1 EZ4      0.096700
     17 HAH         2.1310    0.8010    1.9940 h1        1 EZ4      0.055700
     18 HAI         0.4970   -1.0730    2.5000 h1        1 EZ4      0.047200
     19 HAIA        1.4140   -2.1650    1.3420 h1        1 EZ4      0.047200
     20 HOAJ        2.1750   -2.3130    3.5230 ho        1 EZ4      0.414000
     21 HOAL       -0.1230    2.4250   -1.0810 ho        1 EZ4      0.430000
@<TRIPOS>BOND
     1    1    7 1   
     2    1   13 1   
     3    2    8 1   
     4    2   14 1   
     5    3    4 2   
     6    4    5 1   
     7    5    6 1   
     8    5   11 2   
     9    6    7 1   
    10    6   12 1   
    11    6   15 1   
    12    7    8 1   
    13    7   16 1   
    14    8    9 1   
    15    8   17 1   
    16    9   10 1   
    17    9   18 1   
    18    9   19 1   
    19   10   20 1   
    20   12   21 1   
@<TRIPOS>SUBSTRUCTURE
     1 EZ4         1 TEMP              0 ****  ****    0 ROOT
