@<TRIPOS>MOLECULE
EZ4
   21    20     1     0     0
SMALL
bcc


@<TRIPOS>ATOM
      1 OAA        -0.7240   -0.4940    1.9590 oh        1 EZ4     -0.587800
      2 OAB        -1.1960    0.4050   -1.5210 oh        1 EZ4     -0.614800
      3 OAC         1.6510    1.6130   -1.7360 o         1 EZ4     -0.064700
      4 NAD         1.8570    0.4840   -1.6840 n2        1 EZ4      0.127700
      5 CAE         1.8980   -0.2090   -0.3680 c         1 EZ4      0.398100
      6 CAF         0.6550   -0.9990    0.0250 c3        1 EZ4      0.041100
      7 CAG        -0.3830   -0.0490    0.6630 c3        1 EZ4      0.114100
      8 CAH        -1.6380    0.0500   -0.2210 c3        1 EZ4      0.115100
      9 CAI        -2.5950    1.1030    0.3450 c3        1 EZ4      0.094400
     10 OAJ        -3.7350    1.0890   -0.5010 oh        1 EZ4     -0.614800
     11 OAK         2.9250   -0.2490    0.3160 o         1 EZ4     -0.494100
     12 OAL         0.9800   -2.0340    0.9260 oh        1 EZ4     -0.580800
     13 HOAA       -0.9630   -1.4310    1.8970 ho        1 EZ4      0.421000
     14 HOAB       -1.9860    0.6350   -2.0290 ho        1 EZ4      0.435000
     15 HAF         0.2230   -1.5270   -0.8730 h1        1 EZ4      0.123700
     16 HAG         0.0500    0.9790    0.8220 h1        1 EZ4      0.092700
     17 HAH        -2.1610   -0.9470   -0.2650 h1        1 EZ4      0.056700
     18 HAI        -2.8750    0.8330    1.3970 h1        1 EZ4      0.047200
     19 HAIA       -2.1150    2.1170    0.3260 h1        1 EZ4      0.047200
     20 HOAJ       -4.3480    1.7470   -0.1540 ho        1 EZ4      0.414000
     21 HOAL        1.4990   -1.6480    1.6480 ho        1 EZ4      0.430000
@<TRIPOS>BOND
     1    1    7 1   
     2    1   13 1   
     3    2    8 1   
     4    2   14 1   
     5    3    4 2   
     6    4    5 1   
     7    5    6 1   
     8    5   11 2   
     9    6    7 1   
    10    6   12 1   
    11    6   15 1   
    12    7    8 1   
    13    7   16 1   
    14    8    9 1   
    15    8   17 1   
    16    9   10 1   
    17    9   18 1   
    18    9   19 1   
    19   10   20 1   
    20   12   21 1   
@<TRIPOS>SUBSTRUCTURE
     1 EZ4         1 TEMP              0 ****  ****    0 ROOT
