@<TRIPOS>MOLECULE
EZ4
   21    20     1     0     0
SMALL
bcc


@<TRIPOS>ATOM
      1 OAA        -0.2510    0.7720    0.8030 oh        1 EZ4     -0.589800
      2 OAB         3.2050   -0.3040    0.6030 oh        1 EZ4     -0.613800
      3 OAC         3.6570    0.1200   -2.7700 o         1 EZ4     -0.063700
      4 NAD         2.5890   -0.1300   -2.4280 n2        1 EZ4      0.124700
      5 CAE         1.6150    0.9610   -2.1580 c         1 EZ4      0.398100
      6 CAF         1.5140    1.4500   -0.7180 c3        1 EZ4      0.039100
      7 CAG         0.9500    0.3420    0.1980 c3        1 EZ4      0.118100
      8 CAH         1.9820   -0.0440    1.2730 c3        1 EZ4      0.115100
      9 CAI         1.4990   -1.2780    2.0410 c3        1 EZ4      0.093400
     10 OAJ         2.4770   -1.5260    3.0380 oh        1 EZ4     -0.614800
     11 OAK         0.8370    1.3630   -3.0280 o         1 EZ4     -0.491100
     12 OAL         0.7050    2.6020   -0.6360 oh        1 EZ4     -0.581800
     13 HOAA       -0.0790    1.6230    1.2310 ho        1 EZ4      0.420000
     14 HOAB        3.7940   -0.7110    1.2530 ho        1 EZ4      0.433000
     15 HAF         2.5320    1.7870   -0.3640 h1        1 EZ4      0.121700
     16 HAG         0.6560   -0.5700   -0.3940 h1        1 EZ4      0.096700
     17 HAH         2.1270    0.8100    1.9930 h1        1 EZ4      0.055700
     18 HAI         0.4990   -1.0670    2.5040 h1        1 EZ4      0.047200
     19 HAIA        1.4200   -2.1610    1.3520 h1        1 EZ4      0.047200
     20 HOAJ        2.1800   -2.2980    3.5340 ho        1 EZ4      0.414000
     21 HOAL       -0.1290    2.4130   -1.0930 ho        1 EZ4      0.430000
@<TRIPOS>BOND
     1    1    7 1   
     2    1   13 1   
     3    2    8 1   
     4    2   14 1   
     5    3    4 2   
     6    4    5 1   
     7    5    6 1   
     8    5   11 2   
     9    6    7 1   
    10    6   12 1   
    11    6   15 1   
    12    7    8 1   
    13    7   16 1   
    14    8    9 1   
    15    8   17 1   
    16    9   10 1   
    17    9   18 1   
    18    9   19 1   
    19   10   20 1   
    20   12   21 1   
@<TRIPOS>SUBSTRUCTURE
     1 EZ4         1 TEMP              0 ****  ****    0 ROOT
