@<TRIPOS>MOLECULE
EZL
   26    27     1     0     0
SMALL
bcc


@<TRIPOS>ATOM
      1 N1         -3.8830    0.6510   -1.2330 n3        1 EZL     -1.017700
      2 C2          0.2680    0.7360   -0.1520 ca        1 EZL      0.027400
      3 C3          0.6180   -0.6340    0.1210 ca        1 EZL     -0.072100
      4 C4          1.9570   -1.0200    0.1930 ca        1 EZL     -0.144000
      5 C5          2.9430   -0.0510   -0.0050 ca        1 EZL      0.160100
      6 C8          5.2810    0.4480   -0.0810 c3        1 EZL      0.128400
      7 S1         -3.4940   -0.1270    0.0980 sy        1 EZL      1.481000
      8 C1         -1.7660   -0.1630    0.0410 cc        1 EZL      0.031600
      9 N2         -1.1000    0.9720   -0.1930 nd        1 EZL     -0.440100
     10 S2         -0.7810   -1.5310    0.3060 ss        1 EZL      0.181900
     11 C6          2.6090    1.3020   -0.2730 ca        1 EZL     -0.203000
     12 C7          1.2910    1.6940   -0.3460 ca        1 EZL     -0.022000
     13 C9          6.5750   -0.3150    0.0830 c3        1 EZL     -0.101100
     14 HN1        -3.8070    1.6330   -1.3370 hn        1 EZL      0.455800
     15 HN1A       -4.1630    0.1990   -2.0680 hn        1 EZL      0.455800
     16 H4          2.2430   -2.0610    0.4010 ha        1 EZL      0.161000
     17 H8          5.2060    0.9080   -1.1010 h1        1 EZL      0.041200
     18 H8A         5.1760    1.2430    0.7030 h1        1 EZL      0.041200
     19 H6          3.4040    2.0460   -0.4230 ha        1 EZL      0.145000
     20 H7          1.0240    2.7430   -0.5510 ha        1 EZL      0.154000
     21 H9          7.4310    0.3920   -0.0360 hc        1 EZL      0.052033
     22 H9A         6.6260   -0.7870    1.0930 hc        1 EZL      0.052033
     23 H9B         6.6540   -1.1200   -0.6860 hc        1 EZL      0.052033
     24 O3          4.2340   -0.5210    0.0800 os        1 EZL     -0.326900
     25 O1         -3.8700    0.5950    1.2360 o         1 EZL     -0.645800
     26 O2         -3.9250   -1.4640    0.0130 o         1 EZL     -0.645800
@<TRIPOS>BOND
     1    1    7 1   
     2    1   14 1   
     3    1   15 1   
     4    2    3 ar  
     5    2    9 1   
     6    2   12 ar  
     7    3    4 ar  
     8    3   10 1   
     9    4    5 ar  
    10    4   16 1   
    11    5   11 ar  
    12    5   24 1   
    13    6   13 1   
    14    6   17 1   
    15    6   18 1   
    16    6   24 1   
    17    7    8 1   
    18    7   25 2   
    19    7   26 2   
    20    8    9 2   
    21    8   10 1   
    22   11   12 ar  
    23   11   19 1   
    24   12   20 1   
    25   13   21 1   
    26   13   22 1   
    27   13   23 1   
@<TRIPOS>SUBSTRUCTURE
     1 EZL         1 TEMP              0 ****  ****    0 ROOT
