@<TRIPOS>MOLECULE
EZL
   26    26     1     0     0
SMALL
bcc


@<TRIPOS>ATOM
      1 N1          0.4960   -0.6260   -0.2200 n3        1 EZL     -1.015700
      2 C2          2.6950   -0.2010    3.4180 cc        1 EZL      0.419300
      3 C3          2.6370    1.1810    3.7460 cd        1 EZL     -0.105200
      4 C4          2.9400    1.8440    4.9720 cf        1 EZL     -0.196200
      5 C5          3.5360    1.2620    6.0370 c2        1 EZL      0.080100
      6 C8          4.4160    1.3570    8.2230 c3        1 EZL      0.127400
      7 S1          1.5530    0.5610   -0.1840 sy        1 EZL      1.480800
      8 C1          1.9980    0.6590    1.4730 cd        1 EZL      0.017300
      9 N2          2.3300   -0.4810    2.1180 nc        1 EZL     -0.533000
     10 S2          2.1240    2.0400    2.4200 ss        1 EZL      0.170700
     11 C6          3.3870   -2.1230    5.0310 c1        1 EZL     -0.133500
     12 C7          3.0720   -1.2300    4.2980 cg        1 EZL     -0.196000
     13 C9          4.5790    2.3700    9.3310 c3        1 EZL     -0.101100
     14 HN1        -0.4830   -0.4850   -0.2230 hn        1 EZL      0.455300
     15 HN1A        0.7450   -1.5830   -0.1620 hn        1 EZL      0.455300
     16 H4          2.6670    2.9140    5.0310 ha        1 EZL      0.150000
     17 H8          5.4080    0.9750    7.8670 h1        1 EZL      0.040200
     18 H8A         3.7770    0.4940    8.5470 h1        1 EZL      0.040200
     19 H6          3.8560    0.2090    6.0850 h4        1 EZL      0.151000
     20 H7          3.6660   -2.9140    5.6790 ha        1 EZL      0.170500
     21 H9          5.1960    3.2330    8.9830 hc        1 EZL      0.052367
     22 H9A         3.5840    2.7570    9.6560 hc        1 EZL      0.052367
     23 H9B         5.0850    1.8830   10.1990 hc        1 EZL      0.052367
     24 O3          3.7610    2.0470    7.1430 os        1 EZL     -0.331900
     25 O1          2.6970    0.2450   -0.9260 o         1 EZL     -0.651800
     26 O2          0.9120    1.7800   -0.4900 o         1 EZL     -0.651800
@<TRIPOS>BOND
     1    1    7 1   
     2    1   14 1   
     3    1   15 1   
     4    2    3 2   
     5    2    9 1   
     6    2   12 1   
     7    3    4 1   
     8    3   10 1   
     9    4    5 2   
    10    4   16 1   
    11    5   19 1   
    12    5   24 1   
    13    6   13 1   
    14    6   17 1   
    15    6   18 1   
    16    6   24 1   
    17    7    8 1   
    18    7   25 2   
    19    7   26 2   
    20    8    9 2   
    21    8   10 1   
    22   11   12 3   
    23   11   20 1   
    24   13   21 1   
    25   13   22 1   
    26   13   23 1   
@<TRIPOS>SUBSTRUCTURE
     1 EZL         1 TEMP              0 ****  ****    0 ROOT
