@<TRIPOS>MOLECULE
EZR
   61    50     1     0     0
SMALL
bcc


@<TRIPOS>ATOM
      1 C4          3.7280    3.8240   -3.1180 c1        1 EZR     -0.145000
      2 C5         -4.5620   -1.1560    0.7800 c1        1 EZR     -0.128000
      3 C6         -4.2770   -3.4800    1.4150 c1        1 EZR     -0.145000
      4 C7          4.5310    4.5700   -4.0090 c1        1 EZR     -0.145000
      5 C8          2.7000    2.7590   -0.3190 c1        1 EZR     -0.128000
      6 C10         0.6080    1.5730   -0.1680 c1        1 EZR     -0.025250
      7 C13        -2.3570   -1.9920    1.2280 c1        1 EZR     -0.100000
      8 C15         1.8560    1.8050    0.3160 c1        1 EZR     -0.025250
      9 C17         4.5260    5.9670   -3.9520 c1        1 EZR      0.108000
     10 C20        -1.0970   -0.2190    0.9180 c2        1 EZR      0.077000
     11 C21        -2.0920   -4.7950    3.0920 c3        1 EZR     -0.082500
     12 C22        -2.0280   -5.3150    0.7580 c3        1 EZR     -0.082500
     13 C24        -1.1070   -6.4810    1.0350 c3        1 EZR     -0.078000
     14 C26         2.0460    7.7430   -0.8000 c3        1 EZR     -0.077000
     15 C1         -5.1100   -2.4170    1.0510 c1        1 EZR     -0.145000
     16 C2          0.1480    2.2750   -1.3010 c1        1 EZR     -0.128000
     17 C3          0.9820    3.2170   -1.9300 c1        1 EZR     -0.128000
     18 C9          3.7200    6.6320   -3.0030 c1        1 EZR     -0.275000
     19 C11         2.2470    3.4530   -1.4390 c1        1 EZR     -0.025250
     20 C12         2.9200    4.4920   -2.1680 c1        1 EZR     -0.119000
     21 C14        -3.1680   -0.9580    0.8740 c1        1 EZR     -0.025250
     22 C16        -2.9250   -3.2900    1.5070 c1        1 EZR      0.129000
     23 C18         2.9180    5.8880   -2.1120 c1        1 EZR      0.134000
     24 C19         0.0040    0.6260    0.6470 c1        1 EZR     -0.066000
     25 C23        -1.1700   -5.9580    3.3730 c3        1 EZR     -0.078000
     26 C25        -2.5620   -7.7010    2.4730 c3        1 EZR     -0.128000
     27 N27        -1.0760   -1.5300    1.2540 n1        1 EZR     -0.169000
     28 N28         0.8820    0.2890    1.6170 n2        1 EZR      0.011000
     29 N29        -2.3930    0.1360    0.6830 n1        1 EZR     -0.169000
     30 N30         2.0340    1.0150    1.4220 n1        1 EZR     -0.189000
     31 N31        -1.9350   -4.2860    1.7620 n3        1 EZR     -0.228000
     32 N32         5.2800    6.7200   -4.8880 n3        1 EZR     -0.336000
     33 N33        -1.2620   -6.9920    2.3600 n3        1 EZR     -0.247000
     34 O34         2.0490    6.3330   -1.0090 os        1 EZR     -0.210000
     35 H4          3.7280    2.7780   -3.1630 ha        1 EZR      0.134000
     36 H5         -5.1850   -0.3640    0.5090 ha        1 EZR      0.140250
     37 H6         -4.6610   -4.3570    1.6040 ha        1 EZR      0.134000
     38 H7          5.1000    4.1010   -4.6780 ha        1 EZR      0.134000
     39 H8          3.5960    2.9270    0.0300 ha        1 EZR      0.140250
     40 H21        -1.8940   -4.0630    3.7410 h1        1 EZR      0.085750
     41 H21A       -3.0450   -5.0920    3.2170 h1        1 EZR      0.085750
     42 H22        -1.8000   -4.9320   -0.0990 h1        1 EZR      0.085750
     43 H22A       -2.9730   -5.6500    0.7230 h1        1 EZR      0.085750
     44 H24        -0.2270   -6.2060    0.9160 h1        1 EZR      0.100000
     45 H24A       -1.3050   -7.1970    0.3950 h1        1 EZR      0.100000
     46 H26         2.8310    7.9950   -0.3510 h1        1 EZR      0.084667
     47 H26A        1.2960    7.9810   -0.2790 h1        1 EZR      0.084667
     48 H26B        2.0020    8.1890   -1.6360 h1        1 EZR      0.084667
     49 H1         -6.0680   -2.5520    0.9860 ha        1 EZR      0.134000
     50 H2         -0.7070    2.1160   -1.6310 ha        1 EZR      0.140250
     51 H3          0.6560    3.7150   -2.7370 ha        1 EZR      0.140250
     52 H9          3.7150    7.6510   -2.9610 ha        1 EZR      0.139000
     53 H23        -1.4040   -6.3510    4.2610 h1        1 EZR      0.100000
     54 H23A       -0.2740   -5.6380    3.4040 h1        1 EZR      0.100000
     55 H25        -3.2930   -7.1140    2.1410 h1        1 EZR      0.070000
     56 H25A       -2.7240   -7.9260    3.3910 h1        1 EZR      0.070000
     57 H25B       -2.5340   -8.5020    1.9500 h1        1 EZR      0.070000
     58 HN29       -2.6620    0.9010    0.3950 DU        1 EZR      0.269000
     59 HN30        2.7680    0.9770    1.9260 DU        1 EZR      0.269000
     60 HN32        6.0320    6.3880   -5.2200 hn        1 EZR      0.193500
     61 HN3A        4.9740    7.4810   -5.1820 hn        1 EZR      0.193500
@<TRIPOS>BOND
     1    1    4 1   
     2    1   35 1   
     3    2   21 1   
     4    2   36 1   
     5    3   15 1   
     6    3   37 1   
     7    4   38 1   
     8    5    8 1   
     9    5   39 1   
    10    6   16 1   
    11    7   22 1   
    12    9   18 1   
    13    9   32 1   
    14   10   24 1   
    15   10   27 1   
    16   10   29 1   
    17   11   25 1   
    18   11   31 1   
    19   11   40 1   
    20   11   41 1   
    21   12   13 1   
    22   12   31 1   
    23   12   42 1   
    24   12   43 1   
    25   13   33 1   
    26   13   44 1   
    27   13   45 1   
    28   14   34 1   
    29   14   46 1   
    30   14   47 1   
    31   14   48 1   
    32   15   49 1   
    33   16   50 1   
    34   17   19 1   
    35   17   51 1   
    36   18   52 1   
    37   20   23 1   
    38   22   31 1   
    39   23   34 1   
    40   24   28 1   
    41   25   33 1   
    42   25   53 1   
    43   25   54 1   
    44   26   33 1   
    45   26   55 1   
    46   26   56 1   
    47   26   57 1   
    48   28   30 1   
    49   32   60 1   
    50   32   61 1   
@<TRIPOS>SUBSTRUCTURE
     1 EZR         1 TEMP              0 ****  ****    0 ROOT
