@<TRIPOS>MOLECULE
EZR
   62    67     1     0     0
SMALL
bcc


@<TRIPOS>ATOM
      1 C4         -0.0500   -0.2510   -0.0180 ca        1 EZR     -0.090000
      2 C5        -11.0550   -0.9330    2.4340 ca        1 EZR     -0.163000
      3 C6        -10.6980   -2.6830    4.1010 ca        1 EZR     -0.209000
      4 C7          1.3440   -0.2670   -0.0850 ca        1 EZR     -0.123000
      5 C8         -2.8730    0.6290    0.2840 ca        1 EZR     -0.120000
      6 C10        -4.9880   -0.2290    1.2620 ca        1 EZR     -0.152900
      7 C13        -8.7730   -1.7980    2.9660 ca        1 EZR      0.045400
      8 C15        -4.2710    0.6010    0.3170 ca        1 EZR     -0.060200
      9 C17         2.0750   -0.2030    1.1050 ca        1 EZR     -0.051400
     10 C20        -7.5280   -0.5630    1.6420 cc        1 EZR      0.379500
     11 C21        -9.0000   -4.0290    5.9440 c3        1 EZR      0.151800
     12 C22        -7.6340   -4.4740    3.9900 c3        1 EZR      0.151800
     13 C24        -6.5770   -5.1370    4.9010 c3        1 EZR      0.161300
     14 C26         0.0530    0.1600    4.7740 c3        1 EZR      0.100700
     15 C1        -11.5390   -1.8220    3.3770 ca        1 EZR     -0.076000
     16 C2         -4.2800   -1.0130    2.1700 ca        1 EZR     -0.037000
     17 C3         -2.8930   -0.9700    2.1390 ca        1 EZR     -0.132000
     18 C9          1.4350   -0.1210    2.3550 ca        1 EZR     -0.206000
     19 C11        -2.1930   -0.1650    1.2110 cp        1 EZR     -0.049000
     20 C12        -0.7320   -0.1750    1.1980 cp        1 EZR      0.030000
     21 C14        -9.6680   -0.9210    2.2310 ca        1 EZR     -0.043200
     22 C16        -9.3060   -2.7040    3.9290 ca        1 EZR      0.199600
     23 C18         0.0380   -0.1100    2.3980 ca        1 EZR      0.172100
     24 C19        -6.3920    0.0330    0.9610 cc        1 EZR      0.335600
     25 C23        -7.9190   -4.6870    6.8310 c3        1 EZR      0.161300
     26 C25        -7.6900   -6.9700    6.0380 c3        1 EZR      0.147100
     27 N27        -7.4490   -1.5450    2.5730 nd        1 EZR     -0.547100
     28 N28        -6.4850    0.9300   -0.0590 nd        1 EZR     -0.492100
     29 N29        -8.8580   -0.1510    1.3980 na        1 EZR     -0.259300
     30 N30        -5.2510    1.2550   -0.4450 na        1 EZR     -0.008100
     31 N31        -8.4370   -3.4970    4.7120 nh        1 EZR     -0.626000
     32 N32         3.5380   -0.2270    1.0650 n4        1 EZR     -0.699000
     33 N33        -7.0780   -5.6650    6.1600 n3        1 EZR     -0.722600
     34 O34        -0.6770   -0.0420    3.5640 os        1 EZR     -0.289900
     35 H4         -0.6310   -0.3090   -0.9560 ha        1 EZR      0.176000
     36 H5        -11.7210   -0.2660    1.8730 ha        1 EZR      0.142000
     37 H6        -11.1740   -3.3600    4.8280 ha        1 EZR      0.139000
     38 H7          1.8340   -0.3340   -1.0700 ha        1 EZR      0.156000
     39 H8         -2.3340    1.2640   -0.4320 ha        1 EZR      0.138000
     40 H21        -9.4610   -3.1790    6.5180 h1        1 EZR      0.045950
     41 H21A       -9.8060   -4.7930    5.7370 h1        1 EZR      0.045950
     42 H22        -8.2890   -5.2810    3.5480 h1        1 EZR      0.045950
     43 H22A       -7.0960   -3.9650    3.1460 h1        1 EZR      0.045950
     44 H24        -6.0890   -5.9630    4.3130 h1        1 EZR      0.058200
     45 H24A       -5.7900   -4.3730    5.1600 h1        1 EZR      0.058200
     46 H26        -0.7610    0.2430    5.5420 h1        1 EZR      0.061367
     47 H26A        0.7080   -0.7190    4.9870 h1        1 EZR      0.061367
     48 H26B        0.6470    1.1040    4.7250 h1        1 EZR      0.061367
     49 H1        -12.6230   -1.8650    3.5710 ha        1 EZR      0.138000
     50 H2         -4.8110   -1.6490    2.8970 ha        1 EZR      0.182000
     51 H3         -2.3180   -1.5730    2.8590 ha        1 EZR      0.146000
     52 H9          2.0170   -0.0660    3.2880 ha        1 EZR      0.157000
     53 H23        -7.2340   -3.8850    7.2270 h1        1 EZR      0.058200
     54 H23A       -8.4380   -5.1710    7.7030 h1        1 EZR      0.058200
     55 H25        -6.9430   -7.6810    5.5970 h1        1 EZR      0.033700
     56 H25A       -7.9690   -7.3350    7.0610 h1        1 EZR      0.033700
     57 H25B       -8.6120   -6.9770    5.3940 h1        1 EZR      0.033700
     58 HN29       -9.1530    0.5330    0.7530 hn        1 EZR      0.319700
     59 HN30       -5.1110    1.9400   -1.1500 hn        1 EZR      0.335700
     60 HN32        3.8820   -1.0550    1.5630 hn        1 EZR      0.462133
     61 HN3A        3.9090    0.6160    1.5190 hn        1 EZR      0.462133
     62 H323        3.8630   -0.2580    0.0920 hn        1 EZR      0.462133
@<TRIPOS>BOND
     1    1    4 ar  
     2    1   20 ar  
     3    1   35 1   
     4    2   15 ar  
     5    2   21 ar  
     6    2   36 1   
     7    3   15 ar  
     8    3   22 ar  
     9    3   37 1   
    10    4    9 ar  
    11    4   38 1   
    12    5    8 ar  
    13    5   19 ar  
    14    5   39 1   
    15    6    8 ar  
    16    6   16 ar  
    17    6   24 1   
    18    7   21 ar  
    19    7   22 ar  
    20    7   27 1   
    21    8   30 1   
    22    9   18 ar  
    23    9   32 1   
    24   10   24 1   
    25   10   27 2   
    26   10   29 1   
    27   11   25 1   
    28   11   31 1   
    29   11   40 1   
    30   11   41 1   
    31   12   13 1   
    32   12   31 1   
    33   12   42 1   
    34   12   43 1   
    35   13   33 1   
    36   13   44 1   
    37   13   45 1   
    38   14   34 1   
    39   14   46 1   
    40   14   47 1   
    41   14   48 1   
    42   15   49 1   
    43   16   17 ar  
    44   16   50 1   
    45   17   19 ar  
    46   17   51 1   
    47   18   23 ar  
    48   18   52 1   
    49   19   20 1   
    50   20   23 ar  
    51   21   29 1   
    52   22   31 1   
    53   23   34 1   
    54   24   28 2   
    55   25   33 1   
    56   25   53 1   
    57   25   54 1   
    58   26   33 1   
    59   26   55 1   
    60   26   56 1   
    61   26   57 1   
    62   28   30 1   
    63   29   58 1   
    64   30   59 1   
    65   32   60 1   
    66   32   61 1   
    67   32   62 1   
@<TRIPOS>SUBSTRUCTURE
     1 EZR         1 TEMP              0 ****  ****    0 ROOT
