@<TRIPOS>MOLECULE
EZR
   61    66     1     0     0
SMALL
bcc


@<TRIPOS>ATOM
      1 C4         -0.0550   -0.1700   -0.0360 ca        1 EZR     -0.051000
      2 C5        -11.0730   -1.0390    2.3020 ca        1 EZR     -0.167000
      3 C6        -10.7460   -2.7820    3.9810 ca        1 EZR     -0.218000
      4 C7          1.3280   -0.1820   -0.1340 ca        1 EZR     -0.230000
      5 C8         -2.8670    0.7080    0.3830 ca        1 EZR     -0.145000
      6 C10        -4.9750   -0.1950    1.3320 ca        1 EZR     -0.175900
      7 C13        -8.7930   -1.8170    2.9610 ca        1 EZR      0.046400
      8 C15        -4.2640    0.6850    0.4350 ca        1 EZR     -0.063200
      9 C17         2.1240   -0.2000    1.0360 ca        1 EZR      0.188600
     10 C20        -7.5210   -0.5410    1.7010 cc        1 EZR      0.403500
     11 C21        -9.1320   -4.1010    5.8970 c3        1 EZR      0.153800
     12 C22        -7.5520   -4.3910    4.0780 c3        1 EZR      0.153800
     13 C24        -6.5460   -5.0070    5.0760 c3        1 EZR      0.159300
     14 C26         0.1770   -0.0800    4.7520 c3        1 EZR      0.111700
     15 C1        -11.5750   -1.9510    3.2130 ca        1 EZR     -0.084000
     16 C2         -4.2580   -1.0410    2.1750 ca        1 EZR     -0.054000
     17 C3         -2.8720   -1.0070    2.1230 ca        1 EZR     -0.135000
     18 C9          1.4800   -0.1890    2.2940 ca        1 EZR     -0.276000
     19 C11        -2.1740   -0.1490    1.2400 cp        1 EZR      0.027000
     20 C12        -0.7130   -0.1680    1.2000 cp        1 EZR     -0.119000
     21 C14        -9.6790   -0.9740    2.1790 ca        1 EZR     -0.047200
     22 C16        -9.3430   -2.7450    3.8920 ca        1 EZR      0.202600
     23 C18         0.0850   -0.1850    2.3670 ca        1 EZR      0.182100
     24 C19        -6.3810    0.0950    1.0620 cc        1 EZR      0.326600
     25 C23        -8.0990   -4.7130    6.8700 c3        1 EZR      0.159300
     26 C25        -7.6460   -6.9460    6.0350 c3        1 EZR      0.148100
     27 N27        -7.4590   -1.5170    2.6370 nd        1 EZR     -0.551100
     28 N28        -6.4810    1.0580    0.1070 nd        1 EZR     -0.524100
     29 N29        -8.8530   -0.1750    1.3900 na        1 EZR     -0.266300
     30 N30        -5.2500    1.3670   -0.3110 na        1 EZR     -0.005100
     31 N31        -8.4980   -3.5010    4.7340 nh        1 EZR     -0.625000
     32 N32         3.5120   -0.3000    0.9520 nh        1 EZR     -0.827200
     33 N33        -7.1330   -5.6130    6.2610 n3        1 EZR     -0.721600
     34 O34        -0.6010   -0.1920    3.5660 os        1 EZR     -0.321900
     35 H4         -0.6590   -0.1660   -0.9590 ha        1 EZR      0.137000
     36 H5        -11.7300   -0.3940    1.7070 ha        1 EZR      0.136000
     37 H6        -11.2370   -3.4810    4.6750 ha        1 EZR      0.132000
     38 H7          1.8010   -0.1910   -1.1260 ha        1 EZR      0.135000
     39 H8         -2.3330    1.3800   -0.3010 ha        1 EZR      0.139000
     40 H21        -9.6980   -3.2980    6.4440 h1        1 EZR      0.045200
     41 H21A       -9.8650   -4.9090    5.6010 h1        1 EZR      0.045200
     42 H22        -8.0950   -5.2280    3.5480 h1        1 EZR      0.045200
     43 H22A       -6.9660   -3.8180    3.3110 h1        1 EZR      0.045200
     44 H24        -5.8500   -4.1980    5.4360 h1        1 EZR      0.059950
     45 H24A       -5.9390   -5.7740    4.5210 h1        1 EZR      0.059950
     46 H26         0.8380   -0.9730    4.8750 h1        1 EZR      0.046033
     47 H26A       -0.5950   -0.0460    5.5620 h1        1 EZR      0.046033
     48 H26B        0.7820    0.8590    4.7450 h1        1 EZR      0.046033
     49 H1        -12.6660   -2.0370    3.3440 ha        1 EZR      0.130000
     50 H2         -4.7820   -1.7190    2.8660 ha        1 EZR      0.164000
     51 H3         -2.2850   -1.6560    2.7930 ha        1 EZR      0.149000
     52 H9          2.0840   -0.2000    3.2120 ha        1 EZR      0.139000
     53 H23        -7.5110   -3.8800    7.3490 h1        1 EZR      0.059950
     54 H23A       -8.6650   -5.2550    7.6760 h1        1 EZR      0.059950
     55 H25        -6.8150   -7.5920    5.6480 h1        1 EZR      0.031033
     56 H25A       -8.4970   -6.9840    5.3010 h1        1 EZR      0.031033
     57 H25B       -8.0010   -7.3680    7.0120 h1        1 EZR      0.031033
     58 HN29       -9.1370    0.5010    0.7330 hn        1 EZR      0.316700
     59 HN30       -5.1080    2.2250   -0.7940 hn        1 EZR      0.316700
     60 HN32        4.0100    0.0050    1.7570 hn        1 EZR      0.396800
     61 HN3A        3.9060    0.0040    0.0900 hn        1 EZR      0.396800
@<TRIPOS>BOND
     1    1    4 ar  
     2    1   20 ar  
     3    1   35 1   
     4    2   15 ar  
     5    2   21 ar  
     6    2   36 1   
     7    3   15 ar  
     8    3   22 ar  
     9    3   37 1   
    10    4    9 ar  
    11    4   38 1   
    12    5    8 ar  
    13    5   19 ar  
    14    5   39 1   
    15    6    8 ar  
    16    6   16 ar  
    17    6   24 1   
    18    7   21 ar  
    19    7   22 ar  
    20    7   27 1   
    21    8   30 1   
    22    9   18 ar  
    23    9   32 1   
    24   10   24 1   
    25   10   27 2   
    26   10   29 1   
    27   11   25 1   
    28   11   31 1   
    29   11   40 1   
    30   11   41 1   
    31   12   13 1   
    32   12   31 1   
    33   12   42 1   
    34   12   43 1   
    35   13   33 1   
    36   13   44 1   
    37   13   45 1   
    38   14   34 1   
    39   14   46 1   
    40   14   47 1   
    41   14   48 1   
    42   15   49 1   
    43   16   17 ar  
    44   16   50 1   
    45   17   19 ar  
    46   17   51 1   
    47   18   23 ar  
    48   18   52 1   
    49   19   20 1   
    50   20   23 ar  
    51   21   29 1   
    52   22   31 1   
    53   23   34 1   
    54   24   28 2   
    55   25   33 1   
    56   25   53 1   
    57   25   54 1   
    58   26   33 1   
    59   26   55 1   
    60   26   56 1   
    61   26   57 1   
    62   28   30 1   
    63   29   58 1   
    64   30   59 1   
    65   32   60 1   
    66   32   61 1   
@<TRIPOS>SUBSTRUCTURE
     1 EZR         1 TEMP              0 ****  ****    0 ROOT
