@<TRIPOS>MOLECULE
EZR
   61    66     1     0     0
SMALL
bcc


@<TRIPOS>ATOM
      1 C4         -5.5770   -0.3310   -1.3540 ca        1 EZR     -0.052000
      2 C5          5.2190   -3.1180    0.4640 ca        1 EZR     -0.167000
      3 C6          5.9890   -0.8000    0.4480 ca        1 EZR     -0.218000
      4 C7         -6.8370    0.2230   -1.5240 ca        1 EZR     -0.228000
      5 C8         -3.2620   -1.8510   -0.2700 ca        1 EZR     -0.144000
      6 C10        -0.8010   -1.5980   -0.0650 ca        1 EZR     -0.175900
      7 C13         3.6280   -1.2050    0.2430 ca        1 EZR      0.046400
      8 C15        -1.9870   -2.4160   -0.1580 ca        1 EZR     -0.063200
      9 C17        -7.2460    1.3200   -0.7290 ca        1 EZR      0.186600
     10 C20         1.7020   -2.2600    0.1290 cc        1 EZR      0.404500
     11 C21         5.5140    1.9680    0.8060 c3        1 EZR      0.153800
     12 C22         3.7350    1.6720   -0.8170 c3        1 EZR      0.153800
     13 C24         3.3130    3.1420   -0.5940 c3        1 EZR      0.159300
     14 C26        -4.6040    2.6950    2.2280 c3        1 EZR      0.112700
     15 C1          6.2340   -2.1790    0.5260 ca        1 EZR     -0.084000
     16 C2         -0.9220   -0.2100   -0.0790 ca        1 EZR     -0.054000
     17 C3         -2.1900    0.3420   -0.1830 ca        1 EZR     -0.135000
     18 C9         -6.3380    1.8450    0.2170 ca        1 EZR     -0.274000
     19 C11        -3.3520   -0.4580   -0.2800 cp        1 EZR      0.026000
     20 C12        -4.6660    0.1680   -0.4150 cp        1 EZR     -0.118000
     21 C14         3.9150   -2.6270    0.3230 ca        1 EZR     -0.047200
     22 C16         4.6960   -0.2660    0.3120 ca        1 EZR      0.202600
     23 C18        -5.0720    1.2730    0.3680 ca        1 EZR      0.181100
     24 C19         0.2850   -2.5700    0.0290 cc        1 EZR      0.325600
     25 C23         5.0610    3.4310    1.0120 c3        1 EZR      0.159300
     26 C25         5.2470    4.4940   -1.1620 c3        1 EZR      0.148100
     27 N27         2.2400   -1.0180    0.1240 nd        1 EZR     -0.551100
     28 N28        -0.2190   -3.8330    0.0020 nd        1 EZR     -0.523100
     29 N29         2.6830   -3.2740    0.2490 na        1 EZR     -0.266300
     30 N30        -1.5420   -3.7560   -0.1670 na        1 EZR     -0.004100
     31 N31         4.4300    1.1210    0.3370 nh        1 EZR     -0.625000
     32 N32        -8.5410    1.8270   -0.8260 nh        1 EZR     -0.825200
     33 N33         4.3640    4.0270   -0.1160 n3        1 EZR     -0.721600
     34 O34        -4.1400    1.7530    1.2660 os        1 EZR     -0.322900
     35 H4         -5.2770   -1.1860   -1.9820 ha        1 EZR      0.137000
     36 H5          5.4220   -4.1940    0.5260 ha        1 EZR      0.137000
     37 H6          6.8610   -0.1300    0.4990 ha        1 EZR      0.132000
     38 H7         -7.5190   -0.2030   -2.2730 ha        1 EZR      0.135000
     39 H8         -4.1600   -2.4790   -0.3380 ha        1 EZR      0.140000
     40 H21         6.3860    1.9630    0.0870 h1        1 EZR      0.045200
     41 H21A        5.8730    1.5680    1.7950 h1        1 EZR      0.045200
     42 H22         2.8040    1.0750   -1.0160 h1        1 EZR      0.045200
     43 H22A        4.3880    1.6180   -1.7380 h1        1 EZR      0.045200
     44 H24         2.9040    3.5320   -1.5660 h1        1 EZR      0.059950
     45 H24A        2.4890    3.1710    0.1740 h1        1 EZR      0.059950
     46 H26        -3.7230    2.8240    2.9070 h1        1 EZR      0.045700
     47 H26A       -4.8620    3.6630    1.7320 h1        1 EZR      0.045700
     48 H26B       -5.4810    2.2950    2.7900 h1        1 EZR      0.045700
     49 H1          7.2760   -2.5190    0.6360 ha        1 EZR      0.130000
     50 H2         -0.0290    0.4310   -0.0090 ha        1 EZR      0.164000
     51 H3         -2.3080    1.4380   -0.1780 ha        1 EZR      0.149000
     52 H9         -6.6360    2.7010    0.8400 ha        1 EZR      0.139000
     53 H23         4.3560    3.4740    1.8900 h1        1 EZR      0.059950
     54 H23A        5.9710    4.0420    1.2590 h1        1 EZR      0.059950
     55 H25         4.6360    5.0140   -1.9450 h1        1 EZR      0.031033
     56 H25A        5.9700    5.2310   -0.7230 h1        1 EZR      0.031033
     57 H25B        5.8340    3.6710   -1.6560 h1        1 EZR      0.031033
     58 HN29        2.5230   -4.2450    0.2620 hn        1 EZR      0.316700
     59 HN30       -2.1030   -4.5450    0.0610 hn        1 EZR      0.317700
     60 HN32       -9.0010    1.6420   -1.6890 hn        1 EZR      0.396300
     61 HN3A       -8.6560    2.7590   -0.4980 hn        1 EZR      0.396300
@<TRIPOS>BOND
     1    1    4 ar  
     2    1   20 ar  
     3    1   35 1   
     4    2   15 ar  
     5    2   21 ar  
     6    2   36 1   
     7    3   15 ar  
     8    3   22 ar  
     9    3   37 1   
    10    4    9 ar  
    11    4   38 1   
    12    5    8 ar  
    13    5   19 ar  
    14    5   39 1   
    15    6    8 ar  
    16    6   16 ar  
    17    6   24 1   
    18    7   21 ar  
    19    7   22 ar  
    20    7   27 1   
    21    8   30 1   
    22    9   18 ar  
    23    9   32 1   
    24   10   24 1   
    25   10   27 2   
    26   10   29 1   
    27   11   25 1   
    28   11   31 1   
    29   11   40 1   
    30   11   41 1   
    31   12   13 1   
    32   12   31 1   
    33   12   42 1   
    34   12   43 1   
    35   13   33 1   
    36   13   44 1   
    37   13   45 1   
    38   14   34 1   
    39   14   46 1   
    40   14   47 1   
    41   14   48 1   
    42   15   49 1   
    43   16   17 ar  
    44   16   50 1   
    45   17   19 ar  
    46   17   51 1   
    47   18   23 ar  
    48   18   52 1   
    49   19   20 1   
    50   20   23 ar  
    51   21   29 1   
    52   22   31 1   
    53   23   34 1   
    54   24   28 2   
    55   25   33 1   
    56   25   53 1   
    57   25   54 1   
    58   26   33 1   
    59   26   55 1   
    60   26   56 1   
    61   26   57 1   
    62   28   30 1   
    63   29   58 1   
    64   30   59 1   
    65   32   60 1   
    66   32   61 1   
@<TRIPOS>SUBSTRUCTURE
     1 EZR         1 TEMP              0 ****  ****    0 ROOT
