@<TRIPOS>MOLECULE
EZR
   61    66     1     0     0
SMALL
bcc


@<TRIPOS>ATOM
      1 C4         -0.0520   -0.1720   -0.0320 ca        1 EZR     -0.051000
      2 C5        -11.0720   -1.0320    2.2970 ca        1 EZR     -0.167000
      3 C6        -10.7480   -2.7730    3.9780 ca        1 EZR     -0.218000
      4 C7          1.3310   -0.1860   -0.1290 ca        1 EZR     -0.230000
      5 C8         -2.8630    0.7090    0.3870 ca        1 EZR     -0.145000
      6 C10        -4.9720   -0.1920    1.3350 ca        1 EZR     -0.175900
      7 C13        -8.7930   -1.8100    2.9610 ca        1 EZR      0.046400
      8 C15        -4.2600    0.6880    0.4390 ca        1 EZR     -0.063200
      9 C17         2.1270   -0.2080    1.0410 ca        1 EZR      0.188600
     10 C20        -7.5190   -0.5340    1.7020 cc        1 EZR      0.403500
     11 C21        -9.1380   -4.0900    5.8990 c3        1 EZR      0.153800
     12 C22        -7.5540   -4.3810    4.0840 c3        1 EZR      0.153800
     13 C24        -6.5490   -4.9950    5.0850 c3        1 EZR      0.159300
     14 C26         0.1790   -0.0940    4.7560 c3        1 EZR      0.111700
     15 C1        -11.5760   -1.9430    3.2080 ca        1 EZR     -0.084000
     16 C2         -4.2570   -1.0410    2.1760 ca        1 EZR     -0.054000
     17 C3         -2.8710   -1.0090    2.1240 ca        1 EZR     -0.135000
     18 C9          1.4820   -0.1990    2.2990 ca        1 EZR     -0.276000
     19 C11        -2.1710   -0.1510    1.2440 cp        1 EZR      0.027000
     20 C12        -0.7110   -0.1720    1.2040 cp        1 EZR     -0.119000
     21 C14        -9.6780   -0.9680    2.1760 ca        1 EZR     -0.047200
     22 C16        -9.3450   -2.7360    3.8930 ca        1 EZR      0.202600
     23 C18         0.0870   -0.1930    2.3720 ca        1 EZR      0.182100
     24 C19        -6.3780    0.1010    1.0650 cc        1 EZR      0.326600
     25 C23        -8.1070   -4.7000    6.8750 c3        1 EZR      0.159300
     26 C25        -7.6510   -6.9340    6.0450 c3        1 EZR      0.148100
     27 N27        -7.4590   -1.5100    2.6400 nd        1 EZR     -0.551100
     28 N28        -6.4760    1.0650    0.1110 nd        1 EZR     -0.524100
     29 N29        -8.8510   -0.1690    1.3880 na        1 EZR     -0.266300
     30 N30        -5.2450    1.3730   -0.3060 na        1 EZR     -0.005100
     31 N31        -8.5020   -3.4910    4.7370 nh        1 EZR     -0.625000
     32 N32         3.5150   -0.3100    0.9570 nv        1 EZR     -0.827200
     33 N33        -7.1390   -5.6000    6.2700 n3        1 EZR     -0.721600
     34 O34        -0.5990   -0.2010    3.5700 os        1 EZR     -0.321900
     35 H4         -0.6550   -0.1650   -0.9550 ha        1 EZR      0.137000
     36 H5        -11.7290   -0.3880    1.7000 ha        1 EZR      0.136000
     37 H6        -11.2400   -3.4720    4.6720 ha        1 EZR      0.132000
     38 H7          1.8050   -0.1940   -1.1210 ha        1 EZR      0.135000
     39 H8         -2.3270    1.3820   -0.2950 ha        1 EZR      0.139000
     40 H21        -9.8700   -4.8990    5.6030 h1        1 EZR      0.045200
     41 H21A       -9.7060   -3.2860    6.4440 h1        1 EZR      0.045200
     42 H22        -8.0950   -5.2200    3.5540 h1        1 EZR      0.045200
     43 H22A       -6.9660   -3.8090    3.3180 h1        1 EZR      0.045200
     44 H24        -5.8550   -4.1850    5.4460 h1        1 EZR      0.059950
     45 H24A       -5.9410   -5.7630    4.5330 h1        1 EZR      0.059950
     46 H26         0.7850    0.8440    4.7520 h1        1 EZR      0.046033
     47 H26A       -0.5940   -0.0600    5.5670 h1        1 EZR      0.046033
     48 H26B        0.8370   -0.9880    4.8780 h1        1 EZR      0.046033
     49 H1        -12.6670   -2.0300    3.3360 ha        1 EZR      0.130000
     50 H2         -4.7820   -1.7200    2.8660 ha        1 EZR      0.164000
     51 H3         -2.2860   -1.6600    2.7930 ha        1 EZR      0.149000
     52 H9          2.0860   -0.2130    3.2170 ha        1 EZR      0.139000
     53 H23        -8.6740   -5.2410    7.6810 h1        1 EZR      0.059950
     54 H23A       -7.5200   -3.8660    7.3540 h1        1 EZR      0.059950
     55 H25        -6.8180   -7.5800    5.6610 h1        1 EZR      0.031033
     56 H25A       -8.0070   -7.3540    7.0220 h1        1 EZR      0.031033
     57 H25B       -8.5000   -6.9730    5.3090 h1        1 EZR      0.031033
     58 HN29       -9.1330    0.5060    0.7300 hn        1 EZR      0.316700
     59 HN30       -5.1010    2.2320   -0.7870 hn        1 EZR      0.316700
     60 HN32        4.0130   -0.0080    1.7630 hn        1 EZR      0.396800
     61 HN3A        3.9090   -0.0050    0.0970 hn        1 EZR      0.396800
@<TRIPOS>BOND
     1    1    4 ar  
     2    1   20 ar  
     3    1   35 1   
     4    2   15 ar  
     5    2   21 ar  
     6    2   36 1   
     7    3   15 ar  
     8    3   22 ar  
     9    3   37 1   
    10    4    9 ar  
    11    4   38 1   
    12    5    8 ar  
    13    5   19 ar  
    14    5   39 1   
    15    6    8 ar  
    16    6   16 ar  
    17    6   24 1   
    18    7   21 ar  
    19    7   22 ar  
    20    7   27 1   
    21    8   30 1   
    22    9   18 ar  
    23    9   32 1   
    24   10   24 1   
    25   10   27 2   
    26   10   29 1   
    27   11   25 1   
    28   11   31 1   
    29   11   40 1   
    30   11   41 1   
    31   12   13 1   
    32   12   31 1   
    33   12   42 1   
    34   12   43 1   
    35   13   33 1   
    36   13   44 1   
    37   13   45 1   
    38   14   34 1   
    39   14   46 1   
    40   14   47 1   
    41   14   48 1   
    42   15   49 1   
    43   16   17 ar  
    44   16   50 1   
    45   17   19 ar  
    46   17   51 1   
    47   18   23 ar  
    48   18   52 1   
    49   19   20 1   
    50   20   23 ar  
    51   21   29 1   
    52   22   31 1   
    53   23   34 1   
    54   24   28 2   
    55   25   33 1   
    56   25   53 1   
    57   25   54 1   
    58   26   33 1   
    59   26   55 1   
    60   26   56 1   
    61   26   57 1   
    62   28   30 1   
    63   29   58 1   
    64   30   59 1   
    65   32   60 1   
    66   32   61 1   
@<TRIPOS>SUBSTRUCTURE
     1 EZR         1 TEMP              0 ****  ****    0 ROOT
