@<TRIPOS>MOLECULE
EZT
   61    65     1     0     0
SMALL
bcc


@<TRIPOS>ATOM
      1 C18         1.4920   -0.3460   -0.6430 c3        1 EZT     -0.078100
      2 C13         0.1750    0.1910   -0.1020 c3        1 EZT     -0.032000
      3 C12         0.3220    0.5340    1.3700 c3        1 EZT     -0.066400
      4 C11         0.5480   -0.7180    2.2050 c3        1 EZT     -0.071400
      5 C9         -0.4970   -1.8050    1.9740 c3        1 EZT     -0.008400
      6 C10        -0.2150   -3.0680    2.7290 ca        1 EZT     -0.100300
      7 C1          0.4550   -3.0290    3.9600 ca        1 EZT     -0.096000
      8 C2          0.6820   -4.1800    4.7030 ca        1 EZT     -0.158000
      9 C3          0.2220   -5.4100    4.2060 ca        1 EZT      0.123100
     10 O3          0.4690   -6.5210    4.9810 oh        1 EZT     -0.498100
     11 C4         -0.4510   -5.4740    2.9820 ca        1 EZT     -0.217000
     12 C5         -0.6710   -4.3060    2.2420 ca        1 EZT     -0.033300
     13 C6         -1.3700   -4.4520    0.9340 c3        1 EZT     -0.037100
     14 C7         -1.7820   -3.1360    0.3100 c3        1 EZT     -0.072400
     15 C8         -0.6770   -2.1090    0.4760 c3        1 EZT     -0.048700
     16 C14        -0.9940   -0.8110   -0.2330 c3        1 EZT     -0.065700
     17 C15        -1.3150   -0.8310   -1.7200 c3        1 EZT     -0.067400
     18 C16        -1.0300    0.5940   -2.1980 c3        1 EZT     -0.106400
     19 C17        -0.3040    1.3400   -1.0520 c3        1 EZT      0.187000
     20 O17         0.8550    1.9970   -1.5710 oh        1 EZT     -0.592800
     21 C19        -1.0950    2.3750   -0.3090 c2        1 EZT     -0.146200
     22 C20        -2.3870    2.7040   -0.3020 ce        1 EZT     -0.143200
     23 C21        -3.5260    2.1180   -1.0000 ca        1 EZT      0.008200
     24 C22        -4.1930    1.0240   -0.4290 ca        1 EZT     -0.130000
     25 C23        -5.3300    0.4900   -1.0300 ca        1 EZT     -0.099000
     26 C24        -5.8240    1.0450   -2.2100 ca        1 EZT     -0.138000
     27 C25        -5.1800    2.1390   -2.7840 ca        1 EZT     -0.084000
     28 C26        -4.0400    2.6790   -2.1810 ca        1 EZT     -0.166300
     29 C27        -3.3750    3.8890   -2.8320 c3        1 EZT      0.691200
     30 F02        -4.0690    4.4250   -3.8910 f         1 EZT     -0.238967
     31 F03        -3.1850    4.9630   -1.9960 f         1 EZT     -0.238967
     32 F01        -2.1290    3.6420   -3.3570 f         1 EZT     -0.238967
     33 H181        1.8370   -1.2380   -0.0690 hc        1 EZT      0.042367
     34 H182        2.2770    0.4460   -0.5680 hc        1 EZT      0.042367
     35 H183        1.3810   -0.6290   -1.7170 hc        1 EZT      0.042367
     36 H121       -0.6040    1.0540    1.7340 hc        1 EZT      0.045700
     37 H122        1.1850    1.2350    1.5120 hc        1 EZT      0.045700
     38 H111        0.5230   -0.4090    3.2840 hc        1 EZT      0.044700
     39 H112        1.5680   -1.1340    2.0000 hc        1 EZT      0.044700
     40 H9         -1.4840   -1.4090    2.3600 hc        1 EZT      0.051700
     41 H1          0.8160   -2.0700    4.3620 ha        1 EZT      0.135000
     42 H2          1.2090   -4.1440    5.6660 ha        1 EZT      0.150000
     43 HO3         0.1060   -7.2910    4.5190 ho        1 EZT      0.417000
     44 H4         -0.8080   -6.4400    2.5980 ha        1 EZT      0.131000
     45 H61        -0.6790   -4.9940    0.2310 hc        1 EZT      0.051200
     46 H62        -2.2780   -5.0990    1.0670 hc        1 EZT      0.051200
     47 H71        -2.7240   -2.7610    0.7900 hc        1 EZT      0.043200
     48 H72        -1.9980   -3.2870   -0.7790 hc        1 EZT      0.043200
     49 H8          0.2760   -2.5450    0.0670 hc        1 EZT      0.064700
     50 H14        -1.8890   -0.3550    0.2880 hc        1 EZT      0.044700
     51 H151       -0.6700   -1.5680   -2.2590 hc        1 EZT      0.045200
     52 H152       -2.3810   -1.1130   -1.8990 hc        1 EZT      0.045200
     53 H161       -0.3620    0.5730   -3.0960 hc        1 EZT      0.056700
     54 H162       -1.9680    1.1250   -2.4880 hc        1 EZT      0.056700
     55 H17         0.5360    2.6530   -2.2040 ho        1 EZT      0.407000
     56 H19        -0.4180    2.9850    0.3280 ha        1 EZT      0.136000
     57 H20        -2.7000    3.5630    0.3290 ha        1 EZT      0.142000
     58 H22        -3.8110    0.5910    0.5090 ha        1 EZT      0.147000
     59 H23        -5.8410   -0.3700   -0.5690 ha        1 EZT      0.140000
     60 H24        -6.7210    0.6240   -2.6880 ha        1 EZT      0.143000
     61 H25        -5.5720    2.5850   -3.7120 ha        1 EZT      0.154000
@<TRIPOS>BOND
     1    1    2 1   
     2    1   33 1   
     3    1   34 1   
     4    1   35 1   
     5    2    3 1   
     6    2   16 1   
     7    2   19 1   
     8    3    4 1   
     9    3   36 1   
    10    3   37 1   
    11    4    5 1   
    12    4   38 1   
    13    4   39 1   
    14    5    6 1   
    15    5   15 1   
    16    5   40 1   
    17    6    7 ar  
    18    6   12 ar  
    19    7    8 ar  
    20    7   41 1   
    21    8    9 ar  
    22    8   42 1   
    23    9   10 1   
    24    9   11 ar  
    25   10   43 1   
    26   11   12 ar  
    27   11   44 1   
    28   12   13 1   
    29   13   14 1   
    30   13   45 1   
    31   13   46 1   
    32   14   15 1   
    33   14   47 1   
    34   14   48 1   
    35   15   16 1   
    36   15   49 1   
    37   16   17 1   
    38   16   50 1   
    39   17   18 1   
    40   17   51 1   
    41   17   52 1   
    42   18   19 1   
    43   18   53 1   
    44   18   54 1   
    45   19   20 1   
    46   19   21 1   
    47   20   55 1   
    48   21   22 2   
    49   21   56 1   
    50   22   23 1   
    51   22   57 1   
    52   23   24 ar  
    53   23   28 ar  
    54   24   25 ar  
    55   24   58 1   
    56   25   26 ar  
    57   25   59 1   
    58   26   27 ar  
    59   26   60 1   
    60   27   28 ar  
    61   27   61 1   
    62   28   29 1   
    63   29   30 1   
    64   29   31 1   
    65   29   32 1   
@<TRIPOS>SUBSTRUCTURE
     1 EZT         1 TEMP              0 ****  ****    0 ROOT
