@<TRIPOS>MOLECULE
EZT
   61    65     1     0     0
SMALL
bcc


@<TRIPOS>ATOM
      1 C18        -0.0440   -6.6720    3.6060 c3        1 EZT     -0.081100
      2 C13         1.3150   -6.1070    3.9980 c3        1 EZT     -0.076000
      3 C12         1.1540   -4.6790    4.4880 c3        1 EZT     -0.065400
      4 C11         0.7140   -3.7580    3.3600 c3        1 EZT     -0.071400
      5 C9          1.6020   -3.8390    2.1220 c3        1 EZT     -0.007400
      6 C10         1.1100   -2.9960    0.9860 ca        1 EZT     -0.101300
      7 C1          0.3970   -1.8140    1.2290 ca        1 EZT     -0.096000
      8 C2         -0.0240   -0.9900    0.1930 ca        1 EZT     -0.159000
      9 C3          0.2800   -1.3530   -1.1280 ca        1 EZT      0.124100
     10 O3         -0.1560   -0.5020   -2.1190 oh        1 EZT     -0.498100
     11 C4          0.9930   -2.5250   -1.3960 ca        1 EZT     -0.217000
     12 C5          1.4090   -3.3480   -0.3420 ca        1 EZT     -0.032300
     13 C6          2.1400   -4.5960   -0.7030 c3        1 EZT     -0.037100
     14 C7          2.7560   -5.3090    0.4810 c3        1 EZT     -0.073400
     15 C8          1.7990   -5.2930    1.6590 c3        1 EZT     -0.049700
     16 C14         2.3260   -6.0930    2.8290 c3        1 EZT     -0.058700
     17 C15         2.6890   -7.5580    2.6290 c3        1 EZT     -0.074400
     18 C16         2.6650   -8.1640    4.0330 c3        1 EZT     -0.069400
     19 C17         1.9890   -7.1270    4.9750 c3        1 EZT      0.183000
     20 O17         1.0360   -7.8450    5.7440 oh        1 EZT     -0.583800
     21 C19         3.0180   -6.4660    5.8420 c2        1 EZT     -0.157200
     22 C20         3.0940   -6.6260    7.1700 ce        1 EZT     -0.135200
     23 C21         4.0930   -5.9820    8.0110 ca        1 EZT      0.005200
     24 C22         4.6380   -4.7430    7.6360 ca        1 EZT     -0.135000
     25 C23         5.5900   -4.1090    8.4300 ca        1 EZT     -0.099000
     26 C24         6.0150   -4.7010    9.6180 ca        1 EZT     -0.136000
     27 C25         5.4810   -5.9260   10.0100 ca        1 EZT     -0.084000
     28 C26         4.5240   -6.5640    9.2160 ca        1 EZT     -0.159300
     29 C27         3.9610   -7.9010    9.6950 c3        1 EZT      0.688200
     30 F02         4.5440   -8.3920   10.8400 f         1 EZT     -0.236967
     31 F03         2.6210   -7.8760   10.0020 f         1 EZT     -0.236967
     32 F01         4.0850   -8.9360    8.8010 f         1 EZT     -0.236967
     33 H181       -0.7310   -6.6520    4.4870 hc        1 EZT      0.041367
     34 H182       -0.5140   -6.0770    2.7880 hc        1 EZT      0.041367
     35 H183        0.0620   -7.7310    3.2690 hc        1 EZT      0.041367
     36 H121        2.1250   -4.3090    4.9110 hc        1 EZT      0.041200
     37 H122        0.3920   -4.6420    5.3100 hc        1 EZT      0.041200
     38 H111       -0.3440   -3.9890    3.0730 hc        1 EZT      0.045200
     39 H112        0.7340   -2.7080    3.7580 hc        1 EZT      0.045200
     40 H9          2.6180   -3.4350    2.4110 hc        1 EZT      0.053700
     41 H1          0.1560   -1.5160    2.2610 ha        1 EZT      0.134000
     42 H2         -0.5850   -0.0650    0.3890 ha        1 EZT      0.150000
     43 HO3         0.1180   -0.8720   -2.9700 ho        1 EZT      0.418000
     44 H4          1.2280   -2.8040   -2.4330 ha        1 EZT      0.132000
     45 H61         1.4140   -5.2870   -1.2140 hc        1 EZT      0.052200
     46 H62         2.9440   -4.3540   -1.4490 hc        1 EZT      0.052200
     47 H71         2.9940   -6.3680    0.2000 hc        1 EZT      0.045200
     48 H72         3.7200   -4.8140    0.7690 hc        1 EZT      0.045200
     49 H8          0.8130   -5.7140    1.3180 hc        1 EZT      0.063700
     50 H14         3.2600   -5.5690    3.1910 hc        1 EZT      0.044700
     51 H151        3.6980   -7.6650    2.1600 hc        1 EZT      0.047200
     52 H152        1.9470   -8.0650    1.9640 hc        1 EZT      0.047200
     53 H161        2.0740   -9.1130    4.0530 hc        1 EZT      0.063200
     54 H162        3.6970   -8.3890    4.3920 hc        1 EZT      0.063200
     55 H17         0.5490   -7.1950    6.2650 ho        1 EZT      0.403000
     56 H19         3.7460   -5.8500    5.2890 ha        1 EZT      0.131000
     57 H20         2.3860   -7.2940    7.6960 ha        1 EZT      0.152000
     58 H22         4.2980   -4.2640    6.7040 ha        1 EZT      0.140000
     59 H23         6.0050   -3.1380    8.1180 ha        1 EZT      0.139000
     60 H24         6.7680   -4.2040   10.2480 ha        1 EZT      0.143000
     61 H25         5.8140   -6.3950   10.9500 ha        1 EZT      0.154000
@<TRIPOS>BOND
     1    1    2 1   
     2    1   33 1   
     3    1   34 1   
     4    1   35 1   
     5    2    3 1   
     6    2   16 1   
     7    2   19 1   
     8    3    4 1   
     9    3   36 1   
    10    3   37 1   
    11    4    5 1   
    12    4   38 1   
    13    4   39 1   
    14    5    6 1   
    15    5   15 1   
    16    5   40 1   
    17    6    7 ar  
    18    6   12 ar  
    19    7    8 ar  
    20    7   41 1   
    21    8    9 ar  
    22    8   42 1   
    23    9   10 1   
    24    9   11 ar  
    25   10   43 1   
    26   11   12 ar  
    27   11   44 1   
    28   12   13 1   
    29   13   14 1   
    30   13   45 1   
    31   13   46 1   
    32   14   15 1   
    33   14   47 1   
    34   14   48 1   
    35   15   16 1   
    36   15   49 1   
    37   16   17 1   
    38   16   50 1   
    39   17   18 1   
    40   17   51 1   
    41   17   52 1   
    42   18   19 1   
    43   18   53 1   
    44   18   54 1   
    45   19   20 1   
    46   19   21 1   
    47   20   55 1   
    48   21   22 2   
    49   21   56 1   
    50   22   23 1   
    51   22   57 1   
    52   23   24 ar  
    53   23   28 ar  
    54   24   25 ar  
    55   24   58 1   
    56   25   26 ar  
    57   25   59 1   
    58   26   27 ar  
    59   26   60 1   
    60   27   28 ar  
    61   27   61 1   
    62   28   29 1   
    63   29   30 1   
    64   29   31 1   
    65   29   32 1   
@<TRIPOS>SUBSTRUCTURE
     1 EZT         1 TEMP              0 ****  ****    0 ROOT
