@<TRIPOS>MOLECULE
EZT
   61    65     1     0     0
SMALL
bcc


@<TRIPOS>ATOM
      1 C18         1.5640   -0.3610   -0.5370 c3        1 EZT     -0.082100
      2 C13         0.2170    0.2030   -0.1100 c3        1 EZT     -0.075000
      3 C12         0.2370    0.5150    1.3770 c3        1 EZT     -0.066400
      4 C11         0.3680   -0.7570    2.2010 c3        1 EZT     -0.070400
      5 C9         -0.6750   -1.8160    1.8600 c3        1 EZT     -0.007400
      6 C10        -0.4860   -3.0980    2.6120 ca        1 EZT     -0.101300
      7 C1          0.0850   -3.0990    3.8920 ca        1 EZT     -0.096000
      8 C2          0.2220   -4.2680    4.6290 ca        1 EZT     -0.159000
      9 C3         -0.2290   -5.4760    4.0730 ca        1 EZT      0.124100
     10 O3         -0.0750   -6.6060    4.8430 oh        1 EZT     -0.498100
     11 C4         -0.8050   -5.5000    2.8000 ca        1 EZT     -0.217000
     12 C5         -0.9340   -4.3140    2.0670 ca        1 EZT     -0.032300
     13 C6         -1.5310   -4.4180    0.7050 c3        1 EZT     -0.038100
     14 C7         -1.8500   -3.0820    0.0710 c3        1 EZT     -0.072400
     15 C8         -0.7330   -2.0910    0.3470 c3        1 EZT     -0.048700
     16 C14        -0.9530   -0.7730   -0.3600 c3        1 EZT     -0.061700
     17 C15        -1.1490   -0.7460   -1.8680 c3        1 EZT     -0.071400
     18 C16        -0.8860    0.7090   -2.2570 c3        1 EZT     -0.070400
     19 C17        -0.1440    1.3840   -1.0770 c3        1 EZT      0.190000
     20 O17         1.0250    1.9580   -1.6640 oh        1 EZT     -0.586800
     21 C19        -0.8740    2.4830   -0.3640 c2        1 EZT     -0.137200
     22 C20        -2.1630    2.8160   -0.2750 ce        1 EZT     -0.138200
     23 C21        -3.3620    2.1660   -0.7910 ca        1 EZT      0.009200
     24 C22        -3.9450    1.1300   -0.0450 ca        1 EZT     -0.133000
     25 C23        -5.1270    0.5260   -0.4650 ca        1 EZT     -0.100000
     26 C24        -5.7540    0.9540   -1.6350 ca        1 EZT     -0.138000
     27 C25        -5.2020    1.9990   -2.3720 ca        1 EZT     -0.085000
     28 C26        -4.0190    2.6130   -1.9490 ca        1 EZT     -0.162300
     29 C27        -3.4790    3.7790   -2.7730 c3        1 EZT      0.689200
     30 F02        -4.3750    4.2950   -3.6820 f         1 EZT     -0.235967
     31 F03        -3.1000    4.8790   -2.0430 f         1 EZT     -0.235967
     32 F01        -2.3800    3.4780   -3.5400 f         1 EZT     -0.235967
     33 H181        1.7940   -1.3170   -0.0110 hc        1 EZT      0.041367
     34 H182        2.3770    0.3660   -0.2930 hc        1 EZT      0.041367
     35 H183        1.5730   -0.5410   -1.6390 hc        1 EZT      0.041367
     36 H121       -0.7080    1.0480    1.6630 hc        1 EZT      0.040700
     37 H122        1.0950    1.1970    1.6130 hc        1 EZT      0.040700
     38 H111        0.2610   -0.4690    3.2810 hc        1 EZT      0.044700
     39 H112        1.3940   -1.1900    2.0690 hc        1 EZT      0.044700
     40 H9         -1.6830   -1.4030    2.1680 hc        1 EZT      0.051700
     41 H1          0.4390   -2.1580    4.3400 ha        1 EZT      0.135000
     42 H2          0.6730   -4.2640    5.6310 ha        1 EZT      0.150000
     43 HO3        -0.4210   -7.3580    4.3410 ho        1 EZT      0.418000
     44 H4         -1.1560   -6.4490    2.3700 ha        1 EZT      0.132000
     45 H61        -2.4680   -5.0370    0.7560 hc        1 EZT      0.051700
     46 H62        -0.8040   -4.9740    0.0510 hc        1 EZT      0.051700
     47 H71        -1.9750   -3.2110   -1.0360 hc        1 EZT      0.044200
     48 H72        -2.8180   -2.6850    0.4740 hc        1 EZT      0.044200
     49 H8          0.2350   -2.5530    0.0130 hc        1 EZT      0.063700
     50 H14        -1.8810   -0.3080    0.0920 hc        1 EZT      0.047700
     51 H151       -2.1830   -1.0610   -2.1520 hc        1 EZT      0.046200
     52 H152       -0.4280   -1.4320   -2.3770 hc        1 EZT      0.046200
     53 H161       -0.2450    0.7670   -3.1730 hc        1 EZT      0.065700
     54 H162       -1.8380    1.2530   -2.4730 hc        1 EZT      0.065700
     55 H17         1.5750    2.2950   -0.9470 ho        1 EZT      0.397000
     56 H19        -0.1600    3.1560    0.1590 ha        1 EZT      0.119000
     57 H20        -2.4190    3.7390    0.2890 ha        1 EZT      0.141000
     58 H22        -3.4630    0.8040    0.8910 ha        1 EZT      0.145000
     59 H23        -5.5680   -0.2880    0.1310 ha        1 EZT      0.140000
     60 H24        -6.6840    0.4750   -1.9730 ha        1 EZT      0.143000
     61 H25        -5.7040    2.3510   -3.2880 ha        1 EZT      0.154000
@<TRIPOS>BOND
     1    1    2 1   
     2    1   33 1   
     3    1   34 1   
     4    1   35 1   
     5    2    3 1   
     6    2   16 1   
     7    2   19 1   
     8    3    4 1   
     9    3   36 1   
    10    3   37 1   
    11    4    5 1   
    12    4   38 1   
    13    4   39 1   
    14    5    6 1   
    15    5   15 1   
    16    5   40 1   
    17    6    7 ar  
    18    6   12 ar  
    19    7    8 ar  
    20    7   41 1   
    21    8    9 ar  
    22    8   42 1   
    23    9   10 1   
    24    9   11 ar  
    25   10   43 1   
    26   11   12 ar  
    27   11   44 1   
    28   12   13 1   
    29   13   14 1   
    30   13   45 1   
    31   13   46 1   
    32   14   15 1   
    33   14   47 1   
    34   14   48 1   
    35   15   16 1   
    36   15   49 1   
    37   16   17 1   
    38   16   50 1   
    39   17   18 1   
    40   17   51 1   
    41   17   52 1   
    42   18   19 1   
    43   18   53 1   
    44   18   54 1   
    45   19   20 1   
    46   19   21 1   
    47   20   55 1   
    48   21   22 2   
    49   21   56 1   
    50   22   23 1   
    51   22   57 1   
    52   23   24 ar  
    53   23   28 ar  
    54   24   25 ar  
    55   24   58 1   
    56   25   26 ar  
    57   25   59 1   
    58   26   27 ar  
    59   26   60 1   
    60   27   28 ar  
    61   27   61 1   
    62   28   29 1   
    63   29   30 1   
    64   29   31 1   
    65   29   32 1   
@<TRIPOS>SUBSTRUCTURE
     1 EZT         1 TEMP              0 ****  ****    0 ROOT
