@<TRIPOS>MOLECULE
EZV
   58    63     1     0     0
SMALL
bcc


@<TRIPOS>ATOM
      1 C1         -0.0290   -0.0630   -0.0880 ca        1 EZV     -0.150000
      2 C2          1.3820    0.0140   -0.0020 cp        1 EZV     -0.064000
      3 C3          2.0280    0.0900    1.2320 ca        1 EZV     -0.112000
      4 C4          1.2260    0.0950    2.3790 ca        1 EZV     -0.060200
      5 C5         -0.2170    0.0140    2.2920 ca        1 EZV     -0.151900
      6 C6         -0.8310   -0.0690    1.0440 ca        1 EZV     -0.030000
      7 N7          1.5280    0.1630    3.7470 na        1 EZV     -0.005100
      8 N8          0.4310    0.1380    4.5030 nc        1 EZV     -0.486100
      9 C9         -0.6530    0.0470    3.6850 cd        1 EZV      0.335600
     10 C10        -2.0300   -0.0090    4.1430 cd        1 EZV      0.384500
     11 N11        -3.1160   -0.0930    3.3300 nc        1 EZV     -0.564100
     12 C12        -4.2230   -0.1210    4.1920 ca        1 EZV      0.061400
     13 C13        -3.7630   -0.0500    5.5680 ca        1 EZV     -0.047200
     14 N14        -2.3740    0.0200    5.5120 na        1 EZV     -0.237300
     15 C15        -5.6000   -0.2010    3.9280 ca        1 EZV     -0.071000
     16 C16        -6.4700   -0.2090    5.0030 ca        1 EZV     -0.142000
     17 C17        -6.0230   -0.1410    6.3350 ca        1 EZV     -0.127000
     18 C18        -4.6660   -0.0590    6.6590 ca        1 EZV      0.084600
     19 C19         2.1680    0.0150   -1.2320 cp        1 EZV      0.060000
     20 N20        -4.1320    0.0140    7.9860 nh        1 EZV     -0.625000
     21 C21        -4.4130   -1.1890    8.7660 c3        1 EZV      0.167800
     22 C22        -3.8580   -1.1060   10.2000 c3        1 EZV      0.167800
     23 N23        -4.2650    0.1070   10.8940 n3        1 EZV     -0.733600
     24 C24        -3.9830    1.3050   10.1170 c3        1 EZV      0.167800
     25 C25        -4.5390    1.2320    8.6830 c3        1 EZV      0.167800
     26 C26        -3.7400    0.1800   12.2380 c3        1 EZV      0.157100
     27 C27         1.7220    0.7240   -2.3610 ca        1 EZV     -0.107000
     28 C28         2.4560    0.7260   -3.5410 ca        1 EZV     -0.092500
     29 C29         3.6620    0.0050   -3.5980 ca        1 EZV     -0.099400
     30 C30         4.1270   -0.7100   -2.4810 ca        1 EZV     -0.092500
     31 C31         3.3780   -0.6970   -1.3100 ca        1 EZV     -0.107000
     32 N32         4.4440    0.0040   -4.8340 n4        1 EZV     -0.696000
     33 H1         -0.5010   -0.1380   -1.0800 ha        1 EZV      0.138000
     34 H3          3.1220    0.1590    1.3040 ha        1 EZV      0.140000
     35 H6         -1.9290   -0.1370    0.9610 ha        1 EZV      0.184000
     36 HN7         2.4250    0.2460    4.1660 hn        1 EZV      0.337700
     37 HN14       -1.7590    0.0790    6.2820 hn        1 EZV      0.329700
     38 H15        -5.9650   -0.2560    2.8920 ha        1 EZV      0.148000
     39 H16        -7.5550   -0.2720    4.8200 ha        1 EZV      0.140000
     40 H17        -6.7730   -0.1520    7.1430 ha        1 EZV      0.143000
     41 H21        -5.5210   -1.4020    8.8160 h1        1 EZV      0.044700
     42 H21A       -3.9170   -2.0560    8.2480 h1        1 EZV      0.044700
     43 H22        -4.2660   -1.9840   10.7750 h1        1 EZV      0.038700
     44 H22A       -2.7350   -1.2100   10.1610 h1        1 EZV      0.038700
     45 H24        -4.4810    2.1740   10.6330 h1        1 EZV      0.038700
     46 H24A       -2.8760    1.5210   10.0680 h1        1 EZV      0.038700
     47 H25        -5.6620    1.3320    8.7230 h1        1 EZV      0.044700
     48 H25A       -4.1320    2.1080    8.1060 h1        1 EZV      0.044700
     49 H26        -4.0690   -0.7310   12.8030 h1        1 EZV      0.035033
     50 H26A       -4.1630    1.0890   12.7410 h1        1 EZV      0.035033
     51 H26B       -2.6180    0.2390   12.2770 h1        1 EZV      0.035033
     52 H27         0.7770    1.2940   -2.3090 ha        1 EZV      0.176000
     53 H28         2.0810    1.2920   -4.4100 ha        1 EZV      0.154500
     54 H30         5.0670   -1.2840   -2.5140 ha        1 EZV      0.154500
     55 H31         3.7330   -1.2660   -0.4330 ha        1 EZV      0.176000
     56 HN32        3.8160    0.0690   -5.6430 hn        1 EZV      0.461133
     57 HN3A        4.9920   -0.8600   -4.9000 hn        1 EZV      0.461133
     58 H323        5.0810    0.8090   -4.8380 hn        1 EZV      0.461133
@<TRIPOS>BOND
     1    1    2 ar  
     2    1    6 ar  
     3    1   33 1   
     4    2    3 ar  
     5    2   19 1   
     6    3    4 ar  
     7    3   34 1   
     8    4    5 ar  
     9    4    7 1   
    10    5    6 ar  
    11    5    9 1   
    12    6   35 1   
    13    7    8 1   
    14    7   36 1   
    15    8    9 2   
    16    9   10 1   
    17   10   11 2   
    18   10   14 1   
    19   11   12 1   
    20   12   13 ar  
    21   12   15 ar  
    22   13   14 1   
    23   13   18 ar  
    24   14   37 1   
    25   15   16 ar  
    26   15   38 1   
    27   16   17 ar  
    28   16   39 1   
    29   17   18 ar  
    30   17   40 1   
    31   18   20 1   
    32   19   27 ar  
    33   19   31 ar  
    34   20   21 1   
    35   20   25 1   
    36   21   22 1   
    37   21   41 1   
    38   21   42 1   
    39   22   23 1   
    40   22   43 1   
    41   22   44 1   
    42   23   24 1   
    43   23   26 1   
    44   24   25 1   
    45   24   45 1   
    46   24   46 1   
    47   25   47 1   
    48   25   48 1   
    49   26   49 1   
    50   26   50 1   
    51   26   51 1   
    52   27   28 ar  
    53   27   52 1   
    54   28   29 ar  
    55   28   53 1   
    56   29   30 ar  
    57   29   32 1   
    58   30   31 ar  
    59   30   54 1   
    60   31   55 1   
    61   32   56 1   
    62   32   57 1   
    63   32   58 1   
@<TRIPOS>SUBSTRUCTURE
     1 EZV         1 TEMP              0 ****  ****    0 ROOT
