@<TRIPOS>MOLECULE
EZV
   57    62     1     0     0
SMALL
bcc


@<TRIPOS>ATOM
      1 C1         -0.0300    0.0720   -0.1060 ca        1 EZV     -0.155000
      2 C2          1.3790   -0.0330   -0.0160 cp        1 EZV      0.013000
      3 C3          2.0090   -0.1440    1.2240 ca        1 EZV     -0.141000
      4 C4          1.1950   -0.1520    2.3630 ca        1 EZV     -0.057200
      5 C5         -0.2420   -0.0460    2.2700 ca        1 EZV     -0.175900
      6 C6         -0.8420    0.0700    1.0170 ca        1 EZV     -0.047000
      7 N7          1.4940   -0.2120    3.7380 na        1 EZV     -0.007100
      8 N8          0.3900   -0.2190    4.4850 nc        1 EZV     -0.514100
      9 C9         -0.6860   -0.0920    3.6600 cd        1 EZV      0.320600
     10 C10        -2.0620   -0.0120    4.1220 cd        1 EZV      0.411500
     11 N11        -3.1550    0.0760    3.3230 nc        1 EZV     -0.563100
     12 C12        -4.2530    0.1280    4.1990 ca        1 EZV      0.065400
     13 C13        -3.7770    0.0680    5.5710 ca        1 EZV     -0.051200
     14 N14        -2.3910   -0.0210    5.4970 na        1 EZV     -0.247300
     15 C15        -5.6300    0.2230    3.9500 ca        1 EZV     -0.071000
     16 C16        -6.4900    0.2550    5.0350 ca        1 EZV     -0.150000
     17 C17        -6.0290    0.1970    6.3610 ca        1 EZV     -0.135000
     18 C18        -4.6680    0.1020    6.6690 ca        1 EZV      0.079600
     19 C19         2.1810   -0.0260   -1.2380 cp        1 EZV     -0.094000
     20 N20        -4.1240    0.0380    7.9930 nh        1 EZV     -0.622000
     21 C21        -4.5410   -1.1630    8.7100 c3        1 EZV      0.168800
     22 C22        -3.9620   -1.2290   10.1360 c3        1 EZV      0.166800
     23 N23        -4.2070   -0.0160   10.9050 n3        1 EZV     -0.733600
     24 C24        -3.8020    1.1830   10.1860 c3        1 EZV      0.166800
     25 C25        -4.3800    1.2540    8.7600 c3        1 EZV      0.168800
     26 C26        -3.6420   -0.0810   12.2330 c3        1 EZV      0.157100
     27 C27         1.7600   -0.7320   -2.3730 ca        1 EZV     -0.075500
     28 C28         2.5150   -0.7320   -3.5370 ca        1 EZV     -0.195000
     29 C29         3.7350   -0.0170   -3.6010 ca        1 EZV      0.149600
     30 C30         4.1510    0.7030   -2.4560 ca        1 EZV     -0.195000
     31 C31         3.3850    0.6870   -1.2980 ca        1 EZV     -0.075500
     32 N32         4.5450   -0.0850   -4.7370 nh        1 EZV     -0.822200
     33 H1         -0.4860    0.1680   -1.1030 ha        1 EZV      0.139000
     34 H3          3.1000   -0.2300    1.3010 ha        1 EZV      0.142000
     35 H6         -1.9360    0.1610    0.9270 ha        1 EZV      0.166000
     36 HN7         2.3610   -0.4840    4.1390 hn        1 EZV      0.323700
     37 HN14       -1.7660   -0.0770    6.2590 hn        1 EZV      0.326700
     38 H15        -6.0060    0.2690    2.9180 ha        1 EZV      0.147000
     39 H16        -7.5740    0.3290    4.8610 ha        1 EZV      0.133000
     40 H17        -6.7690    0.2280    7.1770 ha        1 EZV      0.135000
     41 H21        -5.6650   -1.2430    8.7710 h1        1 EZV      0.043700
     42 H21A       -4.1600   -2.0540    8.1380 h1        1 EZV      0.043700
     43 H22        -2.8600   -1.4660   10.0700 h1        1 EZV      0.037200
     44 H22A       -4.4670   -2.0810   10.6710 h1        1 EZV      0.037200
     45 H24        -2.6780    1.2750   10.1260 h1        1 EZV      0.037200
     46 H24A       -4.1910    2.0730   10.7570 h1        1 EZV      0.037200
     47 H25        -5.4840    1.4790    8.8270 h1        1 EZV      0.043700
     48 H25A       -3.8830    2.1090    8.2230 h1        1 EZV      0.043700
     49 H26        -4.0620   -0.9780   12.7590 h1        1 EZV      0.032367
     50 H26A       -2.5200   -0.1560   12.2390 h1        1 EZV      0.032367
     51 H26B       -3.9410    0.8410   12.7970 h1        1 EZV      0.032367
     52 H27         0.8180   -1.3020   -2.3400 ha        1 EZV      0.135000
     53 H28         2.1630   -1.3020   -4.4090 ha        1 EZV      0.133500
     54 H30         5.0910    1.2740   -2.4740 ha        1 EZV      0.133500
     55 H31         3.7260    1.2550   -0.4180 ha        1 EZV      0.135000
     56 HN32        5.1850    0.6710   -4.8370 hn        1 EZV      0.392800
     57 HN3A        4.0650   -0.3150   -5.5770 hn        1 EZV      0.392800
@<TRIPOS>BOND
     1    1    2 ar  
     2    1    6 ar  
     3    1   33 1   
     4    2    3 ar  
     5    2   19 1   
     6    3    4 ar  
     7    3   34 1   
     8    4    5 ar  
     9    4    7 1   
    10    5    6 ar  
    11    5    9 1   
    12    6   35 1   
    13    7    8 1   
    14    7   36 1   
    15    8    9 2   
    16    9   10 1   
    17   10   11 2   
    18   10   14 1   
    19   11   12 1   
    20   12   13 ar  
    21   12   15 ar  
    22   13   14 1   
    23   13   18 ar  
    24   14   37 1   
    25   15   16 ar  
    26   15   38 1   
    27   16   17 ar  
    28   16   39 1   
    29   17   18 ar  
    30   17   40 1   
    31   18   20 1   
    32   19   27 ar  
    33   19   31 ar  
    34   20   21 1   
    35   20   25 1   
    36   21   22 1   
    37   21   41 1   
    38   21   42 1   
    39   22   23 1   
    40   22   43 1   
    41   22   44 1   
    42   23   24 1   
    43   23   26 1   
    44   24   25 1   
    45   24   45 1   
    46   24   46 1   
    47   25   47 1   
    48   25   48 1   
    49   26   49 1   
    50   26   50 1   
    51   26   51 1   
    52   27   28 ar  
    53   27   52 1   
    54   28   29 ar  
    55   28   53 1   
    56   29   30 ar  
    57   29   32 1   
    58   30   31 ar  
    59   30   54 1   
    60   31   55 1   
    61   32   56 1   
    62   32   57 1   
@<TRIPOS>SUBSTRUCTURE
     1 EZV         1 TEMP              0 ****  ****    0 ROOT
