@<TRIPOS>MOLECULE
EZV
   57    62     1     0     0
SMALL
bcc


@<TRIPOS>ATOM
      1 C1         -0.0410    0.0690   -0.1100 ca        1 EZV     -0.155000
      2 C2          1.3690   -0.0290   -0.0230 cp        1 EZV      0.013000
      3 C3          2.0020   -0.1310    1.2150 ca        1 EZV     -0.141000
      4 C4          1.1920   -0.1390    2.3570 ca        1 EZV     -0.057200
      5 C5         -0.2470   -0.0400    2.2670 ca        1 EZV     -0.175900
      6 C6         -0.8510    0.0680    1.0150 ca        1 EZV     -0.047000
      7 N7          1.4950   -0.1920    3.7310 na        1 EZV     -0.007100
      8 N8          0.3920   -0.2020    4.4810 nc        1 EZV     -0.514100
      9 C9         -0.6860   -0.0830    3.6580 cd        1 EZV      0.320600
     10 C10        -2.0610   -0.0090    4.1230 cd        1 EZV      0.411500
     11 N11        -3.1570    0.0730    3.3270 nc        1 EZV     -0.563100
     12 C12        -4.2530    0.1210    4.2060 ca        1 EZV      0.065400
     13 C13        -3.7740    0.0640    5.5770 ca        1 EZV     -0.051200
     14 N14        -2.3870   -0.0180    5.5000 na        1 EZV     -0.247300
     15 C15        -5.6310    0.2090    3.9600 ca        1 EZV     -0.071000
     16 C16        -6.4880    0.2390    5.0480 ca        1 EZV     -0.150000
     17 C17        -6.0240    0.1840    6.3730 ca        1 EZV     -0.135000
     18 C18        -4.6620    0.0960    6.6780 ca        1 EZV      0.079600
     19 C19         2.1670   -0.0230   -1.2470 cp        1 EZV     -0.094000
     20 N20        -4.1130    0.0360    8.0000 nh        1 EZV     -0.622000
     21 C21        -4.5220   -1.1680    8.7190 c3        1 EZV      0.168800
     22 C22        -3.9400   -1.2290   10.1440 c3        1 EZV      0.166800
     23 N23        -4.1890   -0.0180   10.9120 n3        1 EZV     -0.733600
     24 C24        -3.7930    1.1840   10.1920 c3        1 EZV      0.166800
     25 C25        -4.3750    1.2500    8.7670 c3        1 EZV      0.168800
     26 C26        -3.6210   -0.0790   12.2390 c3        1 EZV      0.157100
     27 C27         1.7460   -0.7360   -2.3780 ca        1 EZV     -0.075500
     28 C28         2.4980   -0.7370   -3.5440 ca        1 EZV     -0.195000
     29 C29         3.7150   -0.0170   -3.6150 ca        1 EZV      0.149600
     30 C30         4.1300    0.7100   -2.4740 ca        1 EZV     -0.195000
     31 C31         3.3680    0.6960   -1.3140 ca        1 EZV     -0.075500
     32 N32         4.5220   -0.0850   -4.7530 nv        1 EZV     -0.822200
     33 H1         -0.5010    0.1590   -1.1070 ha        1 EZV      0.139000
     34 H3          3.0940   -0.2110    1.2900 ha        1 EZV      0.142000
     35 H6         -1.9450    0.1520    0.9270 ha        1 EZV      0.166000
     36 HN7         2.3640   -0.4570    4.1300 hn        1 EZV      0.323700
     37 HN14       -1.7590   -0.0700    6.2600 hn        1 EZV      0.326700
     38 H15        -6.0100    0.2530    2.9300 ha        1 EZV      0.147000
     39 H16        -7.5740    0.3070    4.8770 ha        1 EZV      0.133000
     40 H17        -6.7610    0.2120    7.1910 ha        1 EZV      0.135000
     41 H21        -4.1380   -2.0560    8.1460 h1        1 EZV      0.043700
     42 H21A       -5.6460   -1.2540    8.7820 h1        1 EZV      0.043700
     43 H22        -2.8360   -1.4600   10.0740 h1        1 EZV      0.037200
     44 H22A       -4.4380   -2.0840   10.6800 h1        1 EZV      0.037200
     45 H24        -2.6690    1.2820   10.1290 h1        1 EZV      0.037200
     46 H24A       -4.1850    2.0710   10.7630 h1        1 EZV      0.037200
     47 H25        -3.8840    2.1080    8.2290 h1        1 EZV      0.043700
     48 H25A       -5.4800    1.4700    8.8370 h1        1 EZV      0.043700
     49 H26        -2.4980   -0.1470   12.2420 h1        1 EZV      0.032367
     50 H26A       -4.0340   -0.9780   12.7670 h1        1 EZV      0.032367
     51 H26B       -3.9230    0.8420   12.8030 h1        1 EZV      0.032367
     52 H27         0.8070   -1.3110   -2.3400 ha        1 EZV      0.135000
     53 H28         2.1470   -1.3130   -4.4130 ha        1 EZV      0.133500
     54 H30         5.0670    1.2860   -2.4970 ha        1 EZV      0.133500
     55 H31         3.7070    1.2690   -0.4370 ha        1 EZV      0.135000
     56 HN32        4.0400   -0.3220   -5.5910 hn        1 EZV      0.392800
     57 HN3A        5.1570    0.6730   -4.8580 hn        1 EZV      0.392800
@<TRIPOS>BOND
     1    1    2 ar  
     2    1    6 ar  
     3    1   33 1   
     4    2    3 ar  
     5    2   19 1   
     6    3    4 ar  
     7    3   34 1   
     8    4    5 ar  
     9    4    7 1   
    10    5    6 ar  
    11    5    9 1   
    12    6   35 1   
    13    7    8 1   
    14    7   36 1   
    15    8    9 2   
    16    9   10 1   
    17   10   11 2   
    18   10   14 1   
    19   11   12 1   
    20   12   13 ar  
    21   12   15 ar  
    22   13   14 1   
    23   13   18 ar  
    24   14   37 1   
    25   15   16 ar  
    26   15   38 1   
    27   16   17 ar  
    28   16   39 1   
    29   17   18 ar  
    30   17   40 1   
    31   18   20 1   
    32   19   27 ar  
    33   19   31 ar  
    34   20   21 1   
    35   20   25 1   
    36   21   22 1   
    37   21   41 1   
    38   21   42 1   
    39   22   23 1   
    40   22   43 1   
    41   22   44 1   
    42   23   24 1   
    43   23   26 1   
    44   24   25 1   
    45   24   45 1   
    46   24   46 1   
    47   25   47 1   
    48   25   48 1   
    49   26   49 1   
    50   26   50 1   
    51   26   51 1   
    52   27   28 ar  
    53   27   52 1   
    54   28   29 ar  
    55   28   53 1   
    56   29   30 ar  
    57   29   32 1   
    58   30   31 ar  
    59   30   54 1   
    60   31   55 1   
    61   32   56 1   
    62   32   57 1   
@<TRIPOS>SUBSTRUCTURE
     1 EZV         1 TEMP              0 ****  ****    0 ROOT
