@<TRIPOS>MOLECULE
EZV
   57    62     1     0     0
SMALL
bcc


@<TRIPOS>ATOM
      1 C1         -3.8020    1.0610   -0.0840 ca        1 EZV     -0.155000
      2 C2         -4.5010   -0.1650    0.0320 cp        1 EZV      0.013000
      3 C3         -3.8120   -1.3710    0.1540 ca        1 EZV     -0.141000
      4 C4         -2.4130   -1.3190    0.1620 ca        1 EZV     -0.057200
      5 C5         -1.7000   -0.0680    0.0440 ca        1 EZV     -0.175900
      6 C6         -2.4170    1.1210   -0.0830 ca        1 EZV     -0.047000
      7 N7         -1.4300   -2.3240    0.2310 na        1 EZV     -0.007100
      8 N8         -0.1980   -1.8130    0.2340 nc        1 EZV     -0.514100
      9 C9         -0.2960   -0.4620    0.0940 cd        1 EZV      0.320600
     10 C10         0.8470    0.4330    0.0070 cd        1 EZV      0.411500
     11 N11         0.7810    1.7840   -0.0970 nc        1 EZV     -0.563100
     12 C12         2.1160    2.2190   -0.1510 ca        1 EZV      0.065400
     13 C13         3.0010    1.0680   -0.0740 ca        1 EZV     -0.051200
     14 N14         2.1770   -0.0490    0.0260 na        1 EZV     -0.247300
     15 C15         2.6660    3.5050   -0.2590 ca        1 EZV     -0.071000
     16 C16         4.0450    3.6260   -0.2890 ca        1 EZV     -0.150000
     17 C17         4.8990    2.5120   -0.2140 ca        1 EZV     -0.135000
     18 C18         4.4080    1.2080   -0.1050 ca        1 EZV      0.079600
     19 C19        -5.9630   -0.1620    0.0250 cp        1 EZV     -0.094000
     20 N20         5.2140    0.0260   -0.0250 nh        1 EZV     -0.622000
     21 C21         6.0390   -0.0060    1.1800 c3        1 EZV      0.168800
     22 C22         6.9120   -1.2720    1.2630 c3        1 EZV      0.166800
     23 N23         7.6910   -1.5050    0.0560 n3        1 EZV     -0.733600
     24 C24         6.8730   -1.4620   -1.1470 c3        1 EZV      0.166800
     25 C25         6.0000   -0.1960   -1.2350 c3        1 EZV      0.168800
     26 C26         8.4910   -2.7060    0.1380 c3        1 EZV      0.157100
     27 C27        -6.6790    0.8200    0.7230 ca        1 EZV     -0.075500
     28 C28        -8.0660    0.8290    0.7230 ca        1 EZV     -0.195000
     29 C29        -8.7910   -0.1600    0.0160 ca        1 EZV      0.149600
     30 C30        -8.0640   -1.1440   -0.6950 ca        1 EZV     -0.195000
     31 C31        -6.6760   -1.1410   -0.6800 ca        1 EZV     -0.075500
     32 N32       -10.1850   -0.2110    0.0850 nh        1 EZV     -0.822200
     33 H1         -4.3830    1.9900   -0.1890 ha        1 EZV      0.139000
     34 H3         -4.3480   -2.3250    0.2480 ha        1 EZV      0.142000
     35 H6         -1.8910    2.0840   -0.1820 ha        1 EZV      0.166000
     36 HN7        -1.5720   -3.2660    0.5110 hn        1 EZV      0.323700
     37 HN14        2.4690   -0.9890    0.0930 hn        1 EZV      0.326700
     38 H15         2.0110    4.3860   -0.3180 ha        1 EZV      0.147000
     39 H16         4.4970    4.6260   -0.3730 ha        1 EZV      0.133000
     40 H17         5.9880    2.6810   -0.2440 ha        1 EZV      0.135000
     41 H21         6.7070    0.9010    1.2510 h1        1 EZV      0.043700
     42 H21A        5.3480    0.0020    2.0680 h1        1 EZV      0.043700
     43 H22         7.6330   -1.1350    2.1170 h1        1 EZV      0.037200
     44 H22A        6.2490   -2.1530    1.5090 h1        1 EZV      0.037200
     45 H24         7.5660   -1.4620   -2.0340 h1        1 EZV      0.037200
     46 H24A        6.2050   -2.3690   -1.2300 h1        1 EZV      0.037200
     47 H25         5.2810   -0.3270   -2.0910 h1        1 EZV      0.043700
     48 H25A        6.6630    0.6860   -1.4690 h1        1 EZV      0.043700
     49 H26         7.8780   -3.6460    0.2220 h1        1 EZV      0.032367
     50 H26A        9.1290   -2.7780   -0.7810 h1        1 EZV      0.032367
     51 H26B        9.1580   -2.6340    1.0370 h1        1 EZV      0.032367
     52 H27        -6.1330    1.5940    1.2860 ha        1 EZV      0.135000
     53 H28        -8.6010    1.6090    1.2860 ha        1 EZV      0.133500
     54 H30        -8.5960   -1.9230   -1.2600 ha        1 EZV      0.133500
     55 H31        -6.1280   -1.9140   -1.2410 ha        1 EZV      0.135000
     56 HN32      -10.6230    0.6540    0.3080 hn        1 EZV      0.392800
     57 HN3A      -10.6210   -0.6970   -0.6670 hn        1 EZV      0.392800
@<TRIPOS>BOND
     1    1    2 ar  
     2    1    6 ar  
     3    1   33 1   
     4    2    3 ar  
     5    2   19 1   
     6    3    4 ar  
     7    3   34 1   
     8    4    5 ar  
     9    4    7 1   
    10    5    6 ar  
    11    5    9 1   
    12    6   35 1   
    13    7    8 1   
    14    7   36 1   
    15    8    9 2   
    16    9   10 1   
    17   10   11 2   
    18   10   14 1   
    19   11   12 1   
    20   12   13 ar  
    21   12   15 ar  
    22   13   14 1   
    23   13   18 ar  
    24   14   37 1   
    25   15   16 ar  
    26   15   38 1   
    27   16   17 ar  
    28   16   39 1   
    29   17   18 ar  
    30   17   40 1   
    31   18   20 1   
    32   19   27 ar  
    33   19   31 ar  
    34   20   21 1   
    35   20   25 1   
    36   21   22 1   
    37   21   41 1   
    38   21   42 1   
    39   22   23 1   
    40   22   43 1   
    41   22   44 1   
    42   23   24 1   
    43   23   26 1   
    44   24   25 1   
    45   24   45 1   
    46   24   46 1   
    47   25   47 1   
    48   25   48 1   
    49   26   49 1   
    50   26   50 1   
    51   26   51 1   
    52   27   28 ar  
    53   27   52 1   
    54   28   29 ar  
    55   28   53 1   
    56   29   30 ar  
    57   29   32 1   
    58   30   31 ar  
    59   30   54 1   
    60   31   55 1   
    61   32   56 1   
    62   32   57 1   
@<TRIPOS>SUBSTRUCTURE
     1 EZV         1 TEMP              0 ****  ****    0 ROOT
