@<TRIPOS>MOLECULE
EZV
   57    47     1     0     0
SMALL
bcc


@<TRIPOS>ATOM
      1 C1          2.1230   -1.7000   -3.3410 c1        1 EZV     -0.126000
      2 C2          3.0400   -0.7690   -3.8790 c1        1 EZV     -0.040000
      3 C3          3.0020    0.5750   -3.4640 c1        1 EZV     -0.109500
      4 C4          2.0420    0.9950   -2.5030 c1        1 EZV     -0.052000
      5 C5          1.1450    0.0870   -1.9750 c1        1 EZV     -0.052000
      6 C6          1.1810   -1.2870   -2.3980 c1        1 EZV     -0.126000
      7 N7          1.7960    2.1910   -1.9480 n1        1 EZV     -0.182000
      8 N8          0.7340    2.0440   -1.0590 n2        1 EZV     -0.047000
      9 C9          0.3430    0.7570   -1.0820 c1        1 EZV     -0.051000
     10 C10        -0.7110    0.9580   -0.1260 c2        1 EZV      0.085000
     11 N11        -1.8700    0.9340   -0.8730 n2        1 EZV     -0.136000
     12 C12        -2.9300    0.8830   -0.0100 c1        1 EZV     -0.074000
     13 C13        -2.4390    0.8760    1.2610 c1        1 EZV     -0.006000
     14 N14        -1.0570    0.9220    1.1840 n1        1 EZV     -0.204000
     15 C15        -4.3400    0.8400   -0.2310 c1        1 EZV     -0.070000
     16 C16        -5.2170    0.7900    0.8550 c1        1 EZV     -0.126000
     17 C17        -4.7170    0.7820    2.1510 c1        1 EZV     -0.126000
     18 C18        -3.3340    0.8250    2.3680 c1        1 EZV     -0.002000
     19 C19         3.9030   -1.2530   -4.8320 c1        1 EZV     -0.040000
     20 N20        -2.7380    0.7860    3.6420 n3        1 EZV     -0.223000
     21 C21        -3.1370   -0.4160    4.3220 c3        1 EZV     -0.068000
     22 C22        -2.6530   -0.4580    5.7480 c3        1 EZV     -0.070000
     23 N23        -2.9940    0.7230    6.4740 n3        1 EZV     -0.259000
     24 C24        -2.5960    1.9180    5.8000 c3        1 EZV     -0.070000
     25 C25        -3.0810    1.9590    4.3590 c3        1 EZV     -0.068000
     26 C26        -2.3780    0.6730    7.7990 c3        1 EZV     -0.119000
     27 C27         3.5760   -1.3200   -6.1750 c1        1 EZV     -0.126000
     28 C28         4.4820   -1.8430   -7.0810 c1        1 EZV     -0.126000
     29 C29         5.7150   -2.3000   -6.6440 c1        1 EZV      0.069000
     30 C30         6.0430   -2.2330   -5.3010 c1        1 EZV     -0.196000
     31 C31         5.1410   -1.7120   -4.3940 c1        1 EZV     -0.109500
     32 N32         6.6070   -2.8780   -7.5490 n3        1 EZV     -0.331000
     33 H1          2.1490   -2.6280   -3.6250 ha        1 EZV      0.140833
     34 H3          3.6260    1.2110   -3.8300 ha        1 EZV      0.137000
     35 H6          0.5620   -1.9140   -2.0350 ha        1 EZV      0.140833
     36 HN7         2.2630    2.9940   -2.1280 DU        1 EZV      0.275500
     37 HN14       -0.4710    0.8950    1.9020 DU        1 EZV      0.275500
     38 H15        -4.6800    0.8460   -1.1130 ha        1 EZV      0.147000
     39 H16        -6.2030    0.7590    0.6990 ha        1 EZV      0.140833
     40 H17        -5.3300    0.7480    2.9100 ha        1 EZV      0.140833
     41 H21        -2.7630   -1.2110    3.8300 h1        1 EZV      0.083000
     42 H21A       -4.1560   -0.4720    4.3170 h1        1 EZV      0.083000
     43 H22        -1.6450   -0.5620    5.7460 h1        1 EZV      0.076500
     44 H22A       -3.0530   -1.2380    6.1980 h1        1 EZV      0.076500
     45 H24        -1.6400    1.9740    5.8050 h1        1 EZV      0.076500
     46 H24A       -2.9560    2.6760    6.2720 h1        1 EZV      0.076500
     47 H25        -4.0430    2.0600    4.3540 h1        1 EZV      0.083000
     48 H25A       -2.6840    2.7250    3.9160 h1        1 EZV      0.083000
     49 H26        -1.3980    0.4870    7.7040 h1        1 EZV      0.071667
     50 H26A       -2.8000   -0.0480    8.3310 h1        1 EZV      0.071667
     51 H26B       -2.5080    1.5530    8.2650 h1        1 EZV      0.071667
     52 H27         2.7050   -0.9960   -6.4840 ha        1 EZV      0.140833
     53 H28         4.2520   -1.8900   -8.0270 ha        1 EZV      0.140833
     54 H30         6.8980   -2.5500   -4.9990 ha        1 EZV      0.133000
     55 H31         5.3850   -1.6620   -3.3980 ha        1 EZV      0.137000
     56 HN32        7.3710   -3.2740   -7.2460 hn        1 EZV      0.188000
     57 HN3A        6.4400   -2.8300   -8.4610 hn        1 EZV      0.188000
@<TRIPOS>BOND
     1    1    6 1   
     2    1   33 1   
     3    2    3 1   
     4    3   34 1   
     5    4    5 1   
     6    6   35 1   
     7    7    8 1   
     8    8    9 1   
     9    9   10 1   
    10   10   11 1   
    11   10   14 1   
    12   11   12 1   
    13   12   15 1   
    14   13   18 1   
    15   15   38 1   
    16   16   17 1   
    17   16   39 1   
    18   17   40 1   
    19   18   20 1   
    20   19   31 1   
    21   20   21 1   
    22   20   25 1   
    23   21   22 1   
    24   21   41 1   
    25   21   42 1   
    26   22   23 1   
    27   22   43 1   
    28   22   44 1   
    29   23   24 1   
    30   23   26 1   
    31   24   25 1   
    32   24   45 1   
    33   24   46 1   
    34   25   47 1   
    35   25   48 1   
    36   26   49 1   
    37   26   50 1   
    38   26   51 1   
    39   27   28 1   
    40   27   52 1   
    41   28   53 1   
    42   29   30 1   
    43   29   32 1   
    44   30   54 1   
    45   31   55 1   
    46   32   56 1   
    47   32   57 1   
@<TRIPOS>SUBSTRUCTURE
     1 EZV         1 TEMP              0 ****  ****    0 ROOT
