@<TRIPOS>MOLECULE
F01
   30    28     1     0     0
SMALL
bcc


@<TRIPOS>ATOM
      1 O1         -0.8650    1.9350    1.5730 o         1 F01     -0.360000
      2 C6          0.3060    1.6410    1.4490 c1        1 F01      0.362000
      3 N1          1.2790    2.0830    2.4460 n1        1 F01     -0.292000
      4 C7          2.6230    1.6400    2.3710 c1        1 F01      0.233000
      5 N2          3.5450    1.9970    3.3850 n2        1 F01     -0.358000
      6 C8          3.0700    0.8530    1.2140 c2        1 F01     -0.128000
      7 F1          4.3260    0.3920    1.1630 f         1 F01     -0.096000
      8 C9          2.1050    0.4730    0.1720 c1        1 F01      0.037000
      9 N3          0.7440    0.8580    0.2950 n2        1 F01     -0.275000
     10 C1         -0.1870    0.5210   -0.7310 c3        1 F01      0.114000
     11 O4         -1.6190    0.2150   -0.0940 os        1 F01     -0.285000
     12 C4         -2.2390   -0.5360   -0.9460 c3        1 F01     -0.048000
     13 C5         -3.1460   -1.5460   -0.2090 c3        1 F01     -0.038000
     14 O5         -4.0490   -0.8510    0.6170 oh        1 F01     -0.323000
     15 C3         -1.1270   -1.2760   -1.7110 c3        1 F01     -0.021000
     16 O3         -1.3370   -1.1890   -3.0450 oh        1 F01     -0.326000
     17 C2          0.1850   -0.5620   -1.3280 c3        1 F01      0.030000
     18 O2          0.9710   -0.2320   -2.5550 oh        1 F01     -0.306000
     19 HN2         3.2730    2.5100    4.0900 hn        1 F01      0.249500
     20 HN2A        4.4090    1.6970    3.3440 hn        1 F01      0.249500
     21 H9          2.3980   -0.0490   -0.5980 ha        1 F01      0.175000
     22 H1         -0.2560    1.2550   -1.3770 h2        1 F01      0.133000
     23 H4         -2.7680    0.0120   -1.5610 h1        1 F01      0.126000
     24 H5         -3.6460   -2.0760   -0.8670 h1        1 F01      0.105000
     25 H5A        -2.5940   -2.1410    0.3380 h1        1 F01      0.105000
     26 HO5        -4.6910   -1.4050    0.8880 ho        1 F01      0.209000
     27 H3         -1.0940   -2.2130   -1.4350 h1        1 F01      0.130000
     28 HO3        -1.7330   -1.9320   -3.3320 ho        1 F01      0.217000
     29 H2          0.7130   -1.1200   -0.7240 h1        1 F01      0.161000
     30 HO2         1.4030   -0.9550   -2.8320 ho        1 F01      0.223000
@<TRIPOS>BOND
     1    1    2 1   
     2    2    9 1   
     3    3    4 1   
     4    4    6 1   
     5    5   19 1   
     6    5   20 1   
     7    6    7 1   
     8    6    8 1   
     9    8   21 1   
    10    9   10 1   
    11   10   11 1   
    12   10   17 1   
    13   10   22 1   
    14   11   12 1   
    15   12   13 1   
    16   12   15 1   
    17   12   23 1   
    18   13   14 1   
    19   13   24 1   
    20   13   25 1   
    21   14   26 1   
    22   15   16 1   
    23   15   17 1   
    24   15   27 1   
    25   16   28 1   
    26   17   18 1   
    27   17   29 1   
    28   18   30 1   
@<TRIPOS>SUBSTRUCTURE
     1 F01         1 TEMP              0 ****  ****    0 ROOT
