@<TRIPOS>MOLECULE
F01
   31    32     1     0     0
SMALL
bcc


@<TRIPOS>ATOM
      1 O1         -0.2130   -0.9610   -0.3210 o         1 F01     -0.528500
      2 C6          0.9340   -0.4990   -0.2710 c         1 F01      0.843900
      3 N1          1.4590   -0.0620    0.9850 nc        1 F01     -0.600100
      4 C7          2.6740    0.4320    1.0240 cd        1 F01      0.589500
      5 N2          3.1920    0.9240    2.3270 n4        1 F01     -0.798600
      6 C8          3.5430    0.5420   -0.1280 cd        1 F01     -0.162100
      7 F1          4.7940    1.0390   -0.0200 f         1 F01     -0.134500
      8 C9          3.0110    0.1240   -1.3500 cc        1 F01      0.109600
      9 N3          1.7630   -0.4150   -1.4480 n         1 F01     -0.326000
     10 C1          1.2430   -0.6790   -2.8110 c3        1 F01      0.247500
     11 O4          0.7250    0.5210   -3.3670 os        1 F01     -0.404600
     12 C4         -0.7160    0.5200   -3.3360 c3        1 F01      0.086100
     13 C5         -1.1920    1.4000   -2.1750 c3        1 F01      0.106400
     14 O5         -0.1220    2.1580   -1.6460 oh        1 F01     -0.610800
     15 C3         -1.1670   -0.9490   -3.2090 c3        1 F01      0.093100
     16 O3         -1.7100   -1.3260   -4.4570 oh        1 F01     -0.586800
     17 C2          0.1230   -1.7620   -2.9250 c3        1 F01      0.100100
     18 O2          0.4500   -2.6450   -3.9640 oh        1 F01     -0.572800
     19 HN2         4.1750    0.6360    2.4150 hn        1 F01      0.483800
     20 HN2A        2.6430    0.5510    3.1150 hn        1 F01      0.483800
     21 H9          3.6170    0.2230   -2.2780 h4        1 F01      0.215000
     22 H1          2.1310   -0.9620   -3.4550 h2        1 F01      0.119700
     23 H4         -1.0200    0.9510   -4.3300 h1        1 F01      0.118700
     24 H5         -1.5550    0.7850   -1.3060 h1        1 F01      0.072700
     25 H5A        -2.0170    2.0730   -2.5290 h1        1 F01      0.072700
     26 HO5         0.2270    2.7020   -2.3640 ho        1 F01      0.415000
     27 H3         -1.9100   -1.0890   -2.3800 h1        1 F01      0.090700
     28 HO3        -2.1410   -2.1830   -4.3360 ho        1 F01      0.432000
     29 H2          0.0310   -2.4080   -2.0110 h1        1 F01      0.124700
     30 HO2         0.2600   -2.2110   -4.8120 ho        1 F01      0.433000
     31 H23         3.1360    1.9520    2.3300 hn        1 F01      0.483800
@<TRIPOS>BOND
     1    1    2 2   
     2    2    3 1   
     3    2    9 1   
     4    3    4 2   
     5    4    5 1   
     6    4    6 1   
     7    5   19 1   
     8    5   20 1   
     9    5   31 1   
    10    6    7 1   
    11    6    8 2   
    12    8    9 1   
    13    8   21 1   
    14    9   10 1   
    15   10   11 1   
    16   10   17 1   
    17   10   22 1   
    18   11   12 1   
    19   12   13 1   
    20   12   15 1   
    21   12   23 1   
    22   13   14 1   
    23   13   24 1   
    24   13   25 1   
    25   14   26 1   
    26   15   16 1   
    27   15   17 1   
    28   15   27 1   
    29   16   28 1   
    30   17   18 1   
    31   17   29 1   
    32   18   30 1   
@<TRIPOS>SUBSTRUCTURE
     1 F01         1 TEMP              0 ****  ****    0 ROOT
