@<TRIPOS>MOLECULE
F01
   31    32     1     0     0
SMALL
bcc


@<TRIPOS>ATOM
      1 O1         -0.2280   -0.9340   -0.3140 o         1 F01     -0.528500
      2 C6          0.9280   -0.4950   -0.2690 c         1 F01      0.844900
      3 N1          1.4640   -0.0630    0.9830 nc        1 F01     -0.600100
      4 C7          2.6890    0.4080    1.0180 cd        1 F01      0.589500
      5 N2          3.2200    0.8960    2.3170 n4        1 F01     -0.798600
      6 C8          3.5580    0.4970   -0.1380 cd        1 F01     -0.162100
      7 F1          4.8180    0.9690   -0.0350 f         1 F01     -0.134500
      8 C9          3.0140    0.0840   -1.3560 cc        1 F01      0.109600
      9 N3          1.7550   -0.4320   -1.4490 n         1 F01     -0.326000
     10 C1          1.2270   -0.6920   -2.8090 c3        1 F01      0.247500
     11 O4          0.7300    0.5160   -3.3690 os        1 F01     -0.404600
     12 C4         -0.7100    0.5420   -3.3340 c3        1 F01      0.086100
     13 C5         -1.1660    1.4360   -2.1760 c3        1 F01      0.106400
     14 O5         -0.0810    2.1760   -1.6530 oh        1 F01     -0.610800
     15 C3         -1.1890   -0.9170   -3.1990 c3        1 F01      0.093100
     16 O3         -1.7420   -1.2890   -4.4450 oh        1 F01     -0.586800
     17 C2          0.0860   -1.7530   -2.9160 c3        1 F01      0.100100
     18 O2          0.3940   -2.6470   -3.9520 oh        1 F01     -0.572800
     19 HN2         2.6620    0.5430    3.1080 hn        1 F01      0.483800
     20 HN2A        4.1950    0.5830    2.4070 hn        1 F01      0.483800
     21 H9          3.6190    0.1660   -2.2870 h4        1 F01      0.215000
     22 H1          2.1080   -0.9950   -3.4540 h2        1 F01      0.119700
     23 H4         -1.0080    0.9750   -4.3300 h1        1 F01      0.118700
     24 H5         -1.9790    2.1240   -2.5310 h1        1 F01      0.072700
     25 H5A        -1.5390    0.8330   -1.3040 h1        1 F01      0.072700
     26 HO5         0.2770    2.7100   -2.3740 ho        1 F01      0.415000
     27 H3         -1.9320   -1.0390   -2.3680 h1        1 F01      0.090700
     28 HO3        -2.1890   -2.1370   -4.3190 ho        1 F01      0.432000
     29 H2         -0.0160   -2.3930   -1.9990 h1        1 F01      0.124700
     30 HO2         0.2100   -2.2130   -4.8010 ho        1 F01      0.433000
     31 H23         3.1910    1.9240    2.3130 hn        1 F01      0.483800
@<TRIPOS>BOND
     1    1    2 2   
     2    2    3 1   
     3    2    9 1   
     4    3    4 2   
     5    4    5 1   
     6    4    6 1   
     7    5   19 1   
     8    5   20 1   
     9    5   31 1   
    10    6    7 1   
    11    6    8 2   
    12    8    9 1   
    13    8   21 1   
    14    9   10 1   
    15   10   11 1   
    16   10   17 1   
    17   10   22 1   
    18   11   12 1   
    19   12   13 1   
    20   12   15 1   
    21   12   23 1   
    22   13   14 1   
    23   13   24 1   
    24   13   25 1   
    25   14   26 1   
    26   15   16 1   
    27   15   17 1   
    28   15   27 1   
    29   16   28 1   
    30   17   18 1   
    31   17   29 1   
    32   18   30 1   
@<TRIPOS>SUBSTRUCTURE
     1 F01         1 TEMP              0 ****  ****    0 ROOT
