@<TRIPOS>MOLECULE
F01
   30    31     1     0     0
SMALL
bcc


@<TRIPOS>ATOM
      1 O1         -0.2610    0.4640    1.7480 o         1 F01     -0.636500
      2 C6          0.7330    0.3840    0.9950 c         1 F01      0.843900
      3 N1          1.9470    0.9980    1.3220 nc        1 F01     -0.719100
      4 C7          2.9890    0.9050    0.4810 cd        1 F01      0.758500
      5 N2          4.1870    1.4890    0.7940 nh        1 F01     -0.920800
      6 C8          2.8660    0.1690   -0.7950 cd        1 F01     -0.153100
      7 F1          3.9140    0.0940   -1.6490 f         1 F01     -0.159500
      8 C9          1.6590   -0.4280   -1.0960 cc        1 F01      0.040600
      9 N3          0.5970   -0.3790   -0.2260 n         1 F01     -0.384000
     10 C1         -0.6640   -0.9850   -0.6440 c3        1 F01      0.294500
     11 O4         -1.5380    0.0040   -1.2070 os        1 F01     -0.424600
     12 C4         -2.7170    0.1820   -0.4090 c3        1 F01      0.068100
     13 C5         -2.7520    1.6240    0.0980 c3        1 F01      0.113400
     14 O5         -2.8700    2.5340   -0.9750 oh        1 F01     -0.595800
     15 C3         -2.6870   -0.8410    0.7400 c3        1 F01      0.089100
     16 O3         -3.8290   -1.6760    0.7320 oh        1 F01     -0.604800
     17 C2         -1.4450   -1.7220    0.4880 c3        1 F01      0.140100
     18 O2         -1.7190   -3.0100   -0.0240 oh        1 F01     -0.601800
     19 HN2         4.2980    2.0100    1.6300 hn        1 F01      0.453800
     20 HN2A        4.9290    1.4370    0.1410 hn        1 F01      0.453800
     21 H9          1.5250   -0.9740   -2.0500 h4        1 F01      0.176000
     22 H1         -0.4500   -1.7070   -1.4910 h2        1 F01      0.104700
     23 H4         -3.5790   -0.0090   -1.1070 h1        1 F01      0.085700
     24 H5         -3.6700    1.7880    0.7210 h1        1 F01      0.064700
     25 H5A        -1.8310    1.8420    0.7040 h1        1 F01      0.064700
     26 HO5        -2.1120    2.3850   -1.5550 ho        1 F01      0.411000
     27 H3         -2.5840   -0.3210    1.7330 h1        1 F01      0.088700
     28 HO3        -4.5820   -1.1240    0.9770 ho        1 F01      0.421000
     29 H2         -0.8460   -1.8270    1.4330 h1        1 F01      0.088700
     30 HO2        -2.5510   -3.3180    0.3600 ho        1 F01      0.437000
@<TRIPOS>BOND
     1    1    2 2   
     2    2    3 1   
     3    2    9 1   
     4    3    4 2   
     5    4    5 1   
     6    4    6 1   
     7    5   19 1   
     8    5   20 1   
     9    6    7 1   
    10    6    8 2   
    11    8    9 1   
    12    8   21 1   
    13    9   10 1   
    14   10   11 1   
    15   10   17 1   
    16   10   22 1   
    17   11   12 1   
    18   12   13 1   
    19   12   15 1   
    20   12   23 1   
    21   13   14 1   
    22   13   24 1   
    23   13   25 1   
    24   14   26 1   
    25   15   16 1   
    26   15   17 1   
    27   15   27 1   
    28   16   28 1   
    29   17   18 1   
    30   17   29 1   
    31   18   30 1   
@<TRIPOS>SUBSTRUCTURE
     1 F01         1 TEMP              0 ****  ****    0 ROOT
