@<TRIPOS>MOLECULE
F01
   31    32     1     0     0
SMALL
bcc


@<TRIPOS>ATOM
      1 O1         -0.1730   -0.9940   -0.3090 o         1 F01     -0.528500
      2 C6          0.9650   -0.5080   -0.2750 c         1 F01      0.843900
      3 N1          1.5000   -0.0640    0.9740 nc        1 F01     -0.600100
      4 C7          2.7050    0.4560    0.9970 cd        1 F01      0.589500
      5 N2          3.2320    0.9550    2.2930 nz        1 F01     -0.798600
      6 C8          3.5530    0.5900   -0.1690 cd        1 F01     -0.162100
      7 F1          4.7950    1.1130   -0.0770 f         1 F01     -0.134500
      8 C9          3.0110    0.1650   -1.3840 cc        1 F01      0.109600
      9 N3          1.7730   -0.4010   -1.4640 n         1 F01     -0.326000
     10 C1          1.2380   -0.6710   -2.8200 c3        1 F01      0.247500
     11 O4          0.6850    0.5200   -3.3630 os        1 F01     -0.404600
     12 C4         -0.7550    0.4870   -3.3090 c3        1 F01      0.086100
     13 C5         -1.2310    1.3520   -2.1380 c3        1 F01      0.106400
     14 O5         -0.1700    2.1310   -1.6230 oh        1 F01     -0.610800
     15 C3         -1.1710   -0.9910   -3.1810 c3        1 F01      0.093100
     16 O3         -1.7260   -1.3760   -4.4230 oh        1 F01     -0.586800
     17 C2          0.1400   -1.7780   -2.9210 c3        1 F01      0.100100
     18 O2          0.4700   -2.6500   -3.9690 oh        1 F01     -0.572800
     19 HN2         2.7040    0.5670    3.0880 hn        1 F01      0.483800
     20 HN2A        3.1540    1.9800    2.3020 hn        1 F01      0.483800
     21 H9          3.6000    0.2800   -2.3210 h4        1 F01      0.215000
     22 H1          2.1220   -0.9330   -3.4790 h2        1 F01      0.119700
     23 H4         -1.0830    0.9150   -4.2970 h1        1 F01      0.118700
     24 H5         -1.5670    0.7270   -1.2660 h1        1 F01      0.072700
     25 H5A        -2.0760    2.0090   -2.4760 h1        1 F01      0.072700
     26 HO5         0.1560    2.6850   -2.3440 ho        1 F01      0.415000
     27 H3         -1.8980   -1.1510   -2.3410 h1        1 F01      0.090700
     28 HO3        -2.1360   -2.2430   -4.2990 ho        1 F01      0.432000
     29 H2          0.0760   -2.4280   -2.0090 h1        1 F01      0.124700
     30 HO2         0.2580   -2.2170   -4.8120 ho        1 F01      0.433000
     31 H23         4.2220    0.6870    2.3650 hn        1 F01      0.483800
@<TRIPOS>BOND
     1    1    2 2   
     2    2    3 1   
     3    2    9 1   
     4    3    4 2   
     5    4    5 1   
     6    4    6 1   
     7    5   19 1   
     8    5   20 1   
     9    5   31 1   
    10    6    7 1   
    11    6    8 2   
    12    8    9 1   
    13    8   21 1   
    14    9   10 1   
    15   10   11 1   
    16   10   17 1   
    17   10   22 1   
    18   11   12 1   
    19   12   13 1   
    20   12   15 1   
    21   12   23 1   
    22   13   14 1   
    23   13   24 1   
    24   13   25 1   
    25   14   26 1   
    26   15   16 1   
    27   15   17 1   
    28   15   27 1   
    29   16   28 1   
    30   17   18 1   
    31   17   29 1   
    32   18   30 1   
@<TRIPOS>SUBSTRUCTURE
     1 F01         1 TEMP              0 ****  ****    0 ROOT
