@<TRIPOS>MOLECULE
F02
   34    33     1     0     0
SMALL
bcc


@<TRIPOS>ATOM
      1 C1       -219.4290   12.4550  239.9380 cc        1 F02      0.036000
      2 C2       -218.8640   12.4560  241.2530 cc        1 F02     -0.338100
      3 C3       -219.5450   11.7380  242.2860 cc        1 F02      0.036000
      4 C4       -220.7040   11.0690  242.0270 cd        1 F02     -0.315600
      5 C5       -221.2940   11.0540  240.7050 cd        1 F02      0.456900
      6 C6       -220.5880   11.7880  239.6750 cd        1 F02     -0.315600
      7 N7       -222.4400   10.3910  240.4460 nh        1 F02     -0.196100
      8 C8       -223.1250   10.4990  239.1610 c3        1 F02      0.003300
      9 C9       -222.6440    9.5200  238.1030 c3        1 F02     -0.122100
     10 C10      -223.0730    9.5220  241.4330 c3        1 F02      0.003300
     11 C11      -224.0240   10.2300  242.3830 c3        1 F02     -0.122100
     12 C12      -217.7080   13.1220  241.5130 c1        1 F02      0.719600
     13 O13      -216.7140   13.6940  241.7370 o         1 F02     -0.215500
     14 N14       857.4920  -41.9160 -918.7990 n8        1 F02     -0.673600
     15 N15       858.1260  -41.8630 -920.0350 nz        1 F02     -0.609400
     16 H1       -218.9110   13.0010  239.1310 ha        1 F02      0.165000
     17 H3       -219.1230   11.7350  243.3070 ha        1 F02      0.165000
     18 H4       -221.2100   10.5440  242.8560 ha        1 F02      0.174000
     19 H6       -220.9810   11.7950  238.6440 ha        1 F02      0.174000
     20 H8       -224.2240   10.3250  239.3540 h1        1 F02      0.079200
     21 H8A      -223.0220   11.5550  238.7780 h1        1 F02      0.079200
     22 H9       -222.7810    8.4630  238.4370 hc        1 F02      0.062367
     23 H9A      -221.5660    9.6780  237.8580 hc        1 F02      0.062367
     24 H9B      -223.2480    9.6800  237.1760 hc        1 F02      0.062367
     25 H10      -223.6430    8.7300  240.8620 h1        1 F02      0.079200
     26 H10A     -222.2710    8.9900  242.0210 h1        1 F02      0.079200
     27 H11      -224.4610    9.4690  243.0760 hc        1 F02      0.062367
     28 H11A     -223.4950   11.0030  242.9910 hc        1 F02      0.062367
     29 H11B     -224.8580   10.7240  241.8290 hc        1 F02      0.062367
     30 HN14      857.6920  -42.7910 -918.3250 hn        1 F02      0.429800
     31 HN15      857.8460  -40.9770 -920.4960 hn        1 F02      0.474800
     32 HN1A      859.1590  -41.9150 -920.0110 hn        1 F02      0.474800
     33 H142      857.7730  -41.1360 -918.2120 hn        1 F02      0.429800
     34 H153      857.7640  -42.6470 -920.6100 hn        1 F02      0.474800
@<TRIPOS>BOND
     1    1    2 1   
     2    1    6 2   
     3    1   16 1   
     4    2    3 1   
     5    2   12 2   
     6    3    4 2   
     7    3   17 1   
     8    4    5 1   
     9    4   18 1   
    10    5    6 1   
    11    5    7 2   
    12    6   19 1   
    13    7    8 1   
    14    7   10 1   
    15    8    9 1   
    16    8   20 1   
    17    8   21 1   
    18    9   22 1   
    19    9   23 1   
    20    9   24 1   
    21   10   11 1   
    22   10   25 1   
    23   10   26 1   
    24   11   27 1   
    25   11   28 1   
    26   11   29 1   
    27   12   13 2   
    28   14   15 1   
    29   14   30 1   
    30   14   33 1   
    31   15   31 1   
    32   15   32 1   
    33   15   34 1   
@<TRIPOS>SUBSTRUCTURE
     1 F02         1 TEMP              0 ****  ****    0 ROOT
