@<TRIPOS>MOLECULE
F02
   32    29     1     0     0
SMALL
bcc


@<TRIPOS>ATOM
      1 C1         -0.0690   -0.2950   -1.8950 c1        1 F02     -0.075500
      2 C2          1.3430    0.0130   -1.9130 cg        1 F02     -0.131200
      3 C3          2.0290    0.3010   -0.6880 c1        1 F02      0.004500
      4 C4          1.3180    0.2840    0.5510 c1        1 F02     -0.116500
      5 C5         -0.0580   -0.0170    0.5790 c1        1 F02      0.147800
      6 C6         -0.7680   -0.3110   -0.6710 c1        1 F02     -0.075500
      7 N7         -0.7370   -0.0790    1.8240 n3        1 F02     -0.619200
      8 C8         -1.5710   -1.2110    2.1350 c3        1 F02      0.187800
      9 C9         -0.9380   -2.0160    3.2070 c3        1 F02     -0.114100
     10 C10        -0.6670    1.0720    2.7590 c3        1 F02      0.187800
     11 C11        -1.8070    1.9570    2.5270 c3        1 F02     -0.114100
     12 C12         2.1180    0.0720   -3.2830 c         1 F02      0.588300
     13 O13         3.3290    0.3340   -3.3010 o         1 F02     -0.601100
     14 N14         1.4180   -0.1310   -4.5050 n         1 F02     -0.434300
     15 N15         1.9090    0.3660   -5.6490 n3        1 F02     -0.637800
     16 H1         -0.5090   -0.4820   -2.6800 ha        1 F02      0.081500
     17 H3          3.0030    0.5150   -0.6990 ha        1 F02      0.096500
     18 H4          1.7380    0.4600    1.2980 ha        1 F02      0.085500
     19 H6         -1.7510   -0.5250   -0.6540 ha        1 F02      0.081500
     20 H8         -1.6810   -1.7780    1.3180 h1        1 F02      0.046200
     21 H8A        -2.3790   -0.9200    2.4120 h1        1 F02      0.046200
     22 H9         -1.6440   -2.6210    3.6420 hc        1 F02      0.042867
     23 H9A        -0.2580   -2.5450    2.8340 hc        1 F02      0.042867
     24 H9B        -0.5410   -1.3960    3.9140 hc        1 F02      0.042867
     25 H10         0.1520    1.5580    2.6080 h1        1 F02      0.046200
     26 H10A       -0.6850    0.7820    3.5810 h1        1 F02      0.046200
     27 H11        -1.6400    2.4970    1.7580 hc        1 F02      0.042867
     28 H11A       -2.5950    1.4280    2.3810 hc        1 F02      0.042867
     29 H11B       -1.9560    2.5920    3.3940 hc        1 F02      0.042867
     30 HN14        0.6220   -0.6560   -4.5170 hn        1 F02      0.319500
     31 HN15        1.9220   -0.3290   -6.3220 hn        1 F02      0.349300
     32 HN1A        1.3560    1.0830   -5.9450 hn        1 F02      0.349300
@<TRIPOS>BOND
     1    1    6 3   
     2    1   16 1   
     3    2    3 3   
     4    2   12 1   
     5    3   17 1   
     6    4    5 3   
     7    4   18 1   
     8    5    7 1   
     9    6   19 1   
    10    7    8 1   
    11    7   10 1   
    12    8    9 1   
    13    8   20 1   
    14    8   21 1   
    15    9   22 1   
    16    9   23 1   
    17    9   24 1   
    18   10   11 1   
    19   10   25 1   
    20   10   26 1   
    21   11   27 1   
    22   11   28 1   
    23   11   29 1   
    24   12   13 2   
    25   12   14 1   
    26   14   15 1   
    27   14   30 1   
    28   15   31 1   
    29   15   32 1   
@<TRIPOS>SUBSTRUCTURE
     1 F02         1 TEMP              0 ****  ****    0 ROOT
