@<TRIPOS>MOLECULE
F02
   32    32     1     0     0
SMALL
bcc


@<TRIPOS>ATOM
      1 C1         -0.8340    1.2780    0.0860 ca        1 F02     -0.041500
      2 C2         -1.5910    0.1110    0.2540 ca        1 F02     -0.207600
      3 C3         -0.9290   -1.1180    0.3280 ca        1 F02     -0.041500
      4 C4          0.4510   -1.1900    0.2170 ca        1 F02     -0.219500
      5 C5          1.2330   -0.0180    0.0300 ca        1 F02      0.225600
      6 C6          0.5470    1.2240   -0.0260 ca        1 F02     -0.219500
      7 N7          2.6130   -0.1000   -0.1270 nh        1 F02     -0.691000
      8 C8          3.3900    1.0530   -0.5110 c3        1 F02      0.217800
      9 C9          3.8140    1.9820    0.6190 c3        1 F02     -0.120100
     10 C10         3.3430   -1.2330    0.3960 c3        1 F02      0.217800
     11 C11         3.6610   -2.3070   -0.6370 c3        1 F02     -0.120100
     12 C12        -3.0600    0.2470    0.3710 c         1 F02      0.642700
     13 O13        -3.6050    1.2870    0.7950 o         1 F02     -0.606100
     14 N14        -3.8490   -0.8740    0.0280 n         1 F02     -0.433300
     15 N15        -5.2040   -0.8200   -0.1050 n3        1 F02     -0.638800
     16 H1         -1.3510    2.2520    0.0560 ha        1 F02      0.145500
     17 H3         -1.4930   -2.0510    0.4900 ha        1 F02      0.145500
     18 H4          0.9330   -2.1790    0.2630 ha        1 F02      0.138500
     19 H6          1.1020    2.1670   -0.1450 ha        1 F02      0.138500
     20 H8          4.3180    0.6700   -1.0270 h1        1 F02      0.049700
     21 H8A         2.8050    1.6440   -1.2730 h1        1 F02      0.049700
     22 H9          4.4510    1.4450    1.3620 hc        1 F02      0.042867
     23 H9A         4.4040    2.8260    0.1890 hc        1 F02      0.042867
     24 H9B         2.9280    2.4010    1.1530 hc        1 F02      0.042867
     25 H10         4.3160   -0.8590    0.8300 h1        1 F02      0.049700
     26 H10A        2.7630   -1.7020    1.2430 h1        1 F02      0.049700
     27 H11         2.7270   -2.7390   -1.0690 hc        1 F02      0.042867
     28 H11A        4.2750   -1.8910   -1.4710 hc        1 F02      0.042867
     29 H11B        4.2380   -3.1230   -0.1400 hc        1 F02      0.042867
     30 HN14       -3.4480   -1.4920   -0.6550 hn        1 F02      0.316500
     31 HN15       -5.6090   -0.9180    0.8210 hn        1 F02      0.348800
     32 HN1A       -5.4930    0.0960   -0.4400 hn        1 F02      0.348800
@<TRIPOS>BOND
     1    1    2 ar  
     2    1    6 ar  
     3    1   16 1   
     4    2    3 ar  
     5    2   12 1   
     6    3    4 ar  
     7    3   17 1   
     8    4    5 ar  
     9    4   18 1   
    10    5    6 ar  
    11    5    7 1   
    12    6   19 1   
    13    7    8 1   
    14    7   10 1   
    15    8    9 1   
    16    8   20 1   
    17    8   21 1   
    18    9   22 1   
    19    9   23 1   
    20    9   24 1   
    21   10   11 1   
    22   10   25 1   
    23   10   26 1   
    24   11   27 1   
    25   11   28 1   
    26   11   29 1   
    27   12   13 2   
    28   12   14 1   
    29   14   15 1   
    30   14   30 1   
    31   15   31 1   
    32   15   32 1   
@<TRIPOS>SUBSTRUCTURE
     1 F02         1 TEMP              0 ****  ****    0 ROOT
