@<TRIPOS>MOLECULE
F02
   34    33     1     0     0
SMALL
bcc


@<TRIPOS>ATOM
      1 C1       -260.7270    1.2410  198.1320 cc        1 F02      0.036000
      2 C2       -260.9180    1.7050  196.7920 cc        1 F02     -0.338100
      3 C3       -259.7990    2.2710  196.1030 cc        1 F02      0.036000
      4 C4       -258.5810    2.3680  196.7060 cd        1 F02     -0.315600
      5 C5       -258.3650    1.9060  198.0620 cd        1 F02      0.456900
      6 C6       -259.5110    1.3360  198.7390 cd        1 F02     -0.315600
      7 N7       -257.1600    2.0020  198.6610 nh        1 F02     -0.196100
      8 C8       -256.9710    1.6870  200.0740 c3        1 F02      0.003300
      9 C9       -256.6860    0.2240  200.3650 c3        1 F02     -0.122100
     10 C10      -255.9660    2.4260  197.9380 c3        1 F02      0.003300
     11 C11      -255.7530    3.9290  197.8930 c3        1 F02     -0.122100
     12 C12      -262.1330    1.6100  196.1880 c1        1 F02      0.719600
     13 O13      -263.1760    1.5280  195.6690 o         1 F02     -0.215500
     14 N14       997.8480   -7.3730 -755.2840 n3        1 F02     -0.673600
     15 N15       998.4640   -7.5260 -756.5210 n4        1 F02     -0.609400
     16 H1       -261.5820    0.7960  198.6730 ha        1 F02      0.165000
     17 H3       -259.9340    2.6370  195.0690 ha        1 F02      0.165000
     18 H4       -257.7480    2.8290  196.1480 ha        1 F02      0.174000
     19 H6       -259.3990    0.9480  199.7670 ha        1 F02      0.174000
     20 H8       -257.8810    2.0210  200.6500 h1        1 F02      0.079200
     21 H8A      -256.1030    2.3130  200.4400 h1        1 F02      0.079200
     22 H9       -255.7580   -0.1200  199.8470 hc        1 F02      0.062367
     23 H9A      -257.5340   -0.4290  200.0460 hc        1 F02      0.062367
     24 H9B      -256.5400    0.1060  201.4670 hc        1 F02      0.062367
     25 H10      -256.0070    2.0150  196.8880 h1        1 F02      0.079200
     26 H10A     -255.0800    1.9410  198.4460 h1        1 F02      0.079200
     27 H11      -255.6570    4.3560  198.9210 hc        1 F02      0.062367
     28 H11A     -254.8050    4.1330  197.3360 hc        1 F02      0.062367
     29 H11B     -256.5920    4.4470  197.3710 hc        1 F02      0.062367
     30 HN14      998.0740   -8.1470 -754.6670 hn        1 F02      0.429800
     31 HN15      998.1580   -6.7400 -757.1260 hn        1 F02      0.474800
     32 HN1A      999.4980   -7.5530 -756.5060 hn        1 F02      0.474800
     33 H142      998.1200   -6.4970 -754.8480 hn        1 F02      0.429800
     34 H153      998.1110   -8.4050 -756.9430 hn        1 F02      0.474800
@<TRIPOS>BOND
     1    1    2 1   
     2    1    6 2   
     3    1   16 1   
     4    2    3 1   
     5    2   12 2   
     6    3    4 2   
     7    3   17 1   
     8    4    5 1   
     9    4   18 1   
    10    5    6 1   
    11    5    7 2   
    12    6   19 1   
    13    7    8 1   
    14    7   10 1   
    15    8    9 1   
    16    8   20 1   
    17    8   21 1   
    18    9   22 1   
    19    9   23 1   
    20    9   24 1   
    21   10   11 1   
    22   10   25 1   
    23   10   26 1   
    24   11   27 1   
    25   11   28 1   
    26   11   29 1   
    27   12   13 2   
    28   14   15 1   
    29   14   30 1   
    30   14   33 1   
    31   15   31 1   
    32   15   32 1   
    33   15   34 1   
@<TRIPOS>SUBSTRUCTURE
     1 F02         1 TEMP              0 ****  ****    0 ROOT
