@<TRIPOS>MOLECULE
F02
   35    34     1     0     0
SMALL
bcc


@<TRIPOS>ATOM
      1 C1       -361.0770    6.2770  184.9470 ca        1 F02      0.010500
      2 C2       -361.9020    5.9250  183.8580 ca        1 F02     -0.150000
      3 C3       -362.9710    5.0200  184.0350 ca        1 F02      0.010500
      4 C4       -363.2070    4.4760  185.2940 ca        1 F02     -0.118500
      5 C5       -362.3860    4.8250  186.3880 ca        1 F02      0.015000
      6 C6       -361.3210    5.7270  186.2040 ca        1 F02     -0.118500
      7 N7       -362.6630    4.2250  187.7030 n4        1 F02      0.011000
      8 C8       -362.7760    5.2480  188.8090 c3        1 F02     -0.119000
      9 C9       -364.0460    6.0660  188.7360 c3        1 F02     -0.258000
     10 C10      -361.6730    3.1320  188.0490 c3        1 F02     -0.119000
     11 C11      -360.2820    3.5960  188.4060 c3        1 F02     -0.258000
     12 C12      -361.6600    6.4780  182.5910 c1        1 F02      0.476000
     13 O13      -361.4610    6.9330  181.5490 o         1 F02      0.165000
     14 N14      1451.8710  -20.2520 -738.9160 n3        1 F02     -0.264000
     15 N15      1451.6850  -19.9160 -737.5800 n4        1 F02      0.005000
     16 H1       -360.2350    6.9860  184.8210 ha        1 F02      0.205500
     17 H3       -363.6260    4.7360  183.1890 ha        1 F02      0.205500
     18 H4       -364.0530    3.7690  185.4050 ha        1 F02      0.202000
     19 H6       -360.6560    6.0180  187.0410 ha        1 F02      0.202000
     20 H8       -361.8700    5.9160  188.7700 hx        1 F02      0.155000
     21 H8A      -362.7480    4.6700  189.7810 hx        1 F02      0.155000
     22 H9       -364.1020    6.6710  187.7990 hc        1 F02      0.126333
     23 H9A      -364.0470    6.7740  189.6080 hc        1 F02      0.126333
     24 H9B      -364.9610    5.4280  188.8170 hc        1 F02      0.126333
     25 H10      -362.1230    2.5780  188.9270 hx        1 F02      0.155000
     26 H10A     -361.6330    2.4340  187.1620 hx        1 F02      0.155000
     27 H11      -360.2790    4.3040  189.2700 hc        1 F02      0.126333
     28 H11A     -359.6910    2.6880  188.7070 hc        1 F02      0.126333
     29 H11B     -359.7610    4.0680  187.5390 hc        1 F02      0.126333
     30 HN14     1450.9880  -20.2550 -739.4170 hn        1 F02      0.225000
     31 HN15     1451.0630  -20.6310 -737.1580 hn        1 F02      0.270000
     32 HN1A     1452.6060  -19.9810 -737.1060 hn        1 F02      0.270000
     33 H71      -363.5890    3.7660  187.6360 hn        1 F02      0.260000
     34 H142     1452.5180  -19.6100 -739.3650 hn        1 F02      0.225000
     35 H153     1451.2850  -18.9790 -737.4050 hn        1 F02      0.270000
@<TRIPOS>BOND
     1    1    2 1   
     2    1    6 1   
     3    1   16 1   
     4    2    3 1   
     5    2   12 1   
     6    3    4 1   
     7    3   17 1   
     8    4    5 1   
     9    4   18 1   
    10    5    6 1   
    11    5    7 1   
    12    6   19 1   
    13    7    8 1   
    14    7   10 1   
    15    7   33 1   
    16    8    9 1   
    17    8   20 1   
    18    8   21 1   
    19    9   22 1   
    20    9   23 1   
    21    9   24 1   
    22   10   11 1   
    23   10   25 1   
    24   10   26 1   
    25   11   27 1   
    26   11   28 1   
    27   11   29 1   
    28   12   13 1   
    29   14   15 1   
    30   14   30 1   
    31   14   34 1   
    32   15   31 1   
    33   15   32 1   
    34   15   35 1   
@<TRIPOS>SUBSTRUCTURE
     1 F02         1 TEMP              0 ****  ****    0 ROOT
