@<TRIPOS>MOLECULE
F03
   25    26     1     0     0
SMALL
bcc


@<TRIPOS>ATOM
      1 C1          0.6040    0.8000    0.2170 c3        1 F03     -0.186100
      2 C2          1.1870    0.5740   -1.1310 c         1 F03      0.569100
      3 O3          1.0940    1.2390   -2.1470 o         1 F03     -0.398100
      4 N4          2.0290   -0.6950   -1.2780 n4        1 F03     -0.656800
      5 C5          3.4910   -0.3660   -1.1440 cc        1 F03      0.525800
      6 N6          4.0290    0.5200   -2.0800 n         1 F03     -0.507400
      7 C7          5.4140    0.8450   -1.9970 c         1 F03      0.722100
      8 O8          5.8580    1.6280   -2.8410 o         1 F03     -0.537500
      9 C9          6.1680    0.2070   -0.9030 ca        1 F03     -0.157600
     10 C10         7.5320    0.4690   -0.7520 ca        1 F03     -0.055000
     11 C11         8.2390   -0.1370    0.2850 ca        1 F03     -0.099000
     12 C12         7.5890   -1.0020    1.1700 ca        1 F03     -0.086000
     13 C13         6.2310   -1.2770    1.0390 ca        1 F03     -0.081000
     14 C14         5.4980   -0.6720   -0.0050 ca        1 F03      0.136400
     15 N15         4.1300   -0.9490   -0.1450 nd        1 F03     -0.561100
     16 H11C       -0.1840    0.0330    0.4350 hc        1 F03      0.122700
     17 H12C        1.3890    0.7590    1.0150 hc        1 F03      0.122700
     18 H13C        0.1270    1.8180    0.2300 hc        1 F03      0.122700
     19 H4          1.8800   -1.1160   -2.2050 hn        1 F03      0.480800
     20 H6          3.4790    0.9350   -2.8040 hn        1 F03      0.360500
     21 H10         8.0340    1.1530   -1.4580 ha        1 F03      0.180000
     22 H11         9.3160    0.0670    0.4050 ha        1 F03      0.169000
     23 H12         8.1600   -1.4770    1.9860 ha        1 F03      0.166000
     24 H13         5.7340   -1.9630    1.7440 ha        1 F03      0.167000
     25 H42         1.7690   -1.3780   -0.5530 hn        1 F03      0.480800
@<TRIPOS>BOND
     1    1    2 1   
     2    1   16 1   
     3    1   17 1   
     4    1   18 1   
     5    2    3 2   
     6    2    4 1   
     7    4    5 1   
     8    4   19 1   
     9    4   25 1   
    10    5    6 1   
    11    5   15 2   
    12    6    7 1   
    13    6   20 1   
    14    7    8 2   
    15    7    9 1   
    16    9   10 ar  
    17    9   14 ar  
    18   10   11 ar  
    19   10   21 1   
    20   11   12 ar  
    21   11   22 1   
    22   12   13 ar  
    23   12   23 1   
    24   13   14 ar  
    25   13   24 1   
    26   14   15 1   
@<TRIPOS>SUBSTRUCTURE
     1 F03         1 TEMP              0 ****  ****    0 ROOT
