@<TRIPOS>MOLECULE
F03
   25    26     1     0     0
SMALL
bcc


@<TRIPOS>ATOM
      1 C1          0.6980    1.1910    0.1610 c3        1 F03     -0.186100
      2 C2          1.2760    0.9050   -1.1790 c         1 F03      0.569100
      3 O3          1.2690    1.5780   -2.1940 o         1 F03     -0.398100
      4 N4          1.9810   -0.4450   -1.3160 ny        1 F03     -0.656800
      5 C5          3.4680   -0.2730   -1.1580 cc        1 F03      0.525800
      6 N6          4.1100    0.5530   -2.0840 ns        1 F03     -0.507400
      7 C7          5.5200    0.7290   -1.9780 c         1 F03      0.722100
      8 O8          6.0580    1.4620   -2.8130 o         1 F03     -0.537500
      9 C9          6.1850    0.0150   -0.8740 ca        1 F03     -0.157600
     10 C10         7.5670    0.1310   -0.7020 ca        1 F03     -0.055000
     11 C11         8.1900   -0.5480    0.3440 ca        1 F03     -0.099000
     12 C12         7.4390   -1.3400    1.2170 ca        1 F03     -0.086000
     13 C13         6.0610   -1.4700    1.0640 ca        1 F03     -0.081000
     14 C14         5.4130   -0.7900    0.0100 ca        1 F03      0.136400
     15 N15         4.0250   -0.9200   -0.1510 nd        1 F03     -0.561100
     16 H11C       -0.1700    0.5110    0.3650 hc        1 F03      0.122700
     17 H12C        1.4620    1.0650    0.9710 hc        1 F03      0.122700
     18 H13C        0.3310    2.2530    0.1700 hc        1 F03      0.122700
     19 H4          1.8030   -0.8470   -2.2470 hn        1 F03      0.480800
     20 H6          3.6180    1.0240   -2.8150 hn        1 F03      0.360500
     21 H10         8.1500    0.7590   -1.3980 ha        1 F03      0.180000
     22 H11         9.2800   -0.4580    0.4820 ha        1 F03      0.169000
     23 H12         7.9430   -1.8730    2.0410 ha        1 F03      0.166000
     24 H13         5.4840   -2.1000    1.7600 ha        1 F03      0.167000
     25 H42         1.6390   -1.0980   -0.5970 hn        1 F03      0.480800
@<TRIPOS>BOND
     1    1    2 1   
     2    1   16 1   
     3    1   17 1   
     4    1   18 1   
     5    2    3 2   
     6    2    4 1   
     7    4    5 1   
     8    4   19 1   
     9    4   25 1   
    10    5    6 1   
    11    5   15 2   
    12    6    7 1   
    13    6   20 1   
    14    7    8 2   
    15    7    9 1   
    16    9   10 ar  
    17    9   14 ar  
    18   10   11 ar  
    19   10   21 1   
    20   11   12 ar  
    21   11   22 1   
    22   12   13 ar  
    23   12   23 1   
    24   13   14 ar  
    25   13   24 1   
    26   14   15 1   
@<TRIPOS>SUBSTRUCTURE
     1 F03         1 TEMP              0 ****  ****    0 ROOT
