@<TRIPOS>MOLECULE
F03
   25    26     1     0     0
SMALL
bcc


@<TRIPOS>ATOM
      1 C1          0.8770    0.4970    0.6820 c3        1 F03     -0.181100
      2 C2          1.3480   -0.7780    0.0830 c         1 F03      0.595100
      3 O3          1.3210   -1.9120    0.5150 o         1 F03     -0.381100
      4 N4          1.9500   -0.6600   -1.3350 n4        1 F03     -0.661800
      5 C5          3.4330   -0.4180   -1.3120 cc        1 F03      0.538800
      6 N6          4.1150   -0.5560   -2.5260 n         1 F03     -0.512400
      7 C7          5.5240   -0.3440   -2.5530 c         1 F03      0.724100
      8 O8          6.0870   -0.4800   -3.6430 o         1 F03     -0.539500
      9 C9          6.1520    0.0190   -1.2720 ca        1 F03     -0.157600
     10 C10         7.5300    0.2420   -1.2100 ca        1 F03     -0.054000
     11 C11         8.1190    0.5780    0.0080 ca        1 F03     -0.100000
     12 C12         7.3370    0.6900    1.1610 ca        1 F03     -0.084000
     13 C13         5.9630    0.4720    1.1210 ca        1 F03     -0.083000
     14 C14         5.3490    0.1330   -0.1030 ca        1 F03      0.140400
     15 N15         3.9640   -0.0900   -0.1480 nd        1 F03     -0.569100
     16 H11C        1.7550    1.1380    0.9610 hc        1 F03      0.120700
     17 H12C        0.3020    0.2530    1.6160 hc        1 F03      0.120700
     18 H13C        0.2110    1.0660   -0.0150 hc        1 F03      0.120700
     19 H4          1.5070    0.1190   -1.8340 hn        1 F03      0.467300
     20 H6          3.6620   -0.8330   -3.3700 hn        1 F03      0.349500
     21 H10         8.1370    0.1480   -2.1280 ha        1 F03      0.180000
     22 H11         9.2060    0.7550    0.0600 ha        1 F03      0.169000
     23 H12         7.8140    0.9540    2.1200 ha        1 F03      0.166000
     24 H13         5.3630    0.5610    2.0410 ha        1 F03      0.165000
     25 H42         1.7720   -1.5390   -1.8390 hn        1 F03      0.467300
@<TRIPOS>BOND
     1    1    2 1   
     2    1   16 1   
     3    1   17 1   
     4    1   18 1   
     5    2    3 2   
     6    2    4 1   
     7    4    5 1   
     8    4   19 1   
     9    4   25 1   
    10    5    6 1   
    11    5   15 2   
    12    6    7 1   
    13    6   20 1   
    14    7    8 2   
    15    7    9 1   
    16    9   10 ar  
    17    9   14 ar  
    18   10   11 ar  
    19   10   21 1   
    20   11   12 ar  
    21   11   22 1   
    22   12   13 ar  
    23   12   23 1   
    24   13   14 ar  
    25   13   24 1   
    26   14   15 1   
@<TRIPOS>SUBSTRUCTURE
     1 F03         1 TEMP              0 ****  ****    0 ROOT
