@<TRIPOS>MOLECULE
F03
   24    25     1     0     0
SMALL
bcc


@<TRIPOS>ATOM
      1 C1          4.8900   -0.2940    0.0190 c3        1 F03     -0.177100
      2 C2          3.4700   -0.7170   -0.2720 c         1 F03      0.676100
      3 O3          3.2170   -1.7930   -0.8420 o         1 F03     -0.582100
      4 N4          2.4790    0.1730    0.1370 n         1 F03     -0.498400
      5 C5          1.0720    0.0400   -0.0030 cc        1 F03      0.562500
      6 N6          0.5340   -1.1010   -0.6210 n         1 F03     -0.494400
      7 C7         -0.8600   -1.2420   -0.7660 c         1 F03      0.717100
      8 O8         -1.2890   -2.2690   -1.3190 o         1 F03     -0.614500
      9 C9         -1.6910   -0.1470   -0.2420 ca        1 F03     -0.207600
     10 C10        -3.0870   -0.2080   -0.3450 ca        1 F03     -0.051000
     11 C11        -3.8600    0.8290    0.1520 ca        1 F03     -0.163000
     12 C12        -3.2440    1.9350    0.7560 ca        1 F03     -0.088000
     13 C13        -1.8660    2.0150    0.8680 ca        1 F03     -0.135000
     14 C14        -1.0520    0.9650    0.3660 ca        1 F03      0.211400
     15 N15         0.3330    1.0520    0.4820 nd        1 F03     -0.687100
     16 H11C        5.0450   -0.1690    1.1180 hc        1 F03      0.077367
     17 H12C        5.5800   -1.0900   -0.3570 hc        1 F03      0.077367
     18 H13C        5.1280    0.6670   -0.4980 hc        1 F03      0.077367
     19 H4          2.7780    1.0140    0.5880 hn        1 F03      0.348500
     20 H6          1.1260   -1.8310   -0.9690 hn        1 F03      0.368500
     21 H10        -3.5480   -1.0880   -0.8230 ha        1 F03      0.158000
     22 H11        -4.9570    0.7890    0.0750 ha        1 F03      0.139000
     23 H12        -3.8680    2.7530    1.1470 ha        1 F03      0.136000
     24 H13        -1.3950    2.8890    1.3440 ha        1 F03      0.150000
@<TRIPOS>BOND
     1    1    2 1   
     2    1   16 1   
     3    1   17 1   
     4    1   18 1   
     5    2    3 2   
     6    2    4 1   
     7    4    5 1   
     8    4   19 1   
     9    5    6 1   
    10    5   15 2   
    11    6    7 1   
    12    6   20 1   
    13    7    8 2   
    14    7    9 1   
    15    9   10 ar  
    16    9   14 ar  
    17   10   11 ar  
    18   10   21 1   
    19   11   12 ar  
    20   11   22 1   
    21   12   13 ar  
    22   12   23 1   
    23   13   14 ar  
    24   13   24 1   
    25   14   15 1   
@<TRIPOS>SUBSTRUCTURE
     1 F03         1 TEMP              0 ****  ****    0 ROOT
