@<TRIPOS>MOLECULE
F03
   24    23     1     0     0
SMALL
bcc


@<TRIPOS>ATOM
      1 C1         -4.5660    0.8450   -0.0620 c3        1 F03     -0.245000
      2 C2         -3.0800    0.6000   -0.2110 c2        1 F03      0.320000
      3 O3         -2.5470    0.7430   -1.2930 o         1 F03     -0.343000
      4 N4         -2.3080    0.2130    0.9150 n         1 F03     -0.338000
      5 C5         -0.9130   -0.0070    0.7770 c2        1 F03      0.261000
      6 N6         -0.1330   -0.3760    1.9160 n         1 F03     -0.334000
      7 C7          1.2460   -0.5910    1.7810 c2        1 F03      0.354000
      8 O8          1.9020   -0.9480    2.7390 o         1 F03     -0.339000
      9 C9          1.9040   -0.4330    0.4340 c2        1 F03     -0.187000
     10 C10         3.2860   -0.6460    0.2950 c1        1 F03     -0.051000
     11 C11         3.8900   -0.4980   -0.9450 c1        1 F03     -0.125500
     12 C12         3.1290   -0.1390   -2.0510 c1        1 F03     -0.125500
     13 C13         1.7650    0.0720   -1.9150 c1        1 F03     -0.135000
     14 C14         1.1510   -0.0780   -0.6580 c2        1 F03      0.072000
     15 N15        -0.2820    0.1450   -0.5140 n2        1 F03     -0.260000
     16 H11C       -4.7560    1.7970   -0.2000 hc        1 F03      0.116667
     17 H12C       -4.8520    0.5820    0.8380 hc        1 F03      0.116667
     18 H13C       -5.0530    0.3150   -0.7270 hc        1 F03      0.116667
     19 H4         -2.7080    0.1120    1.7290 hn        1 F03      0.262000
     20 H6         -0.5290   -0.4580    2.7330 hn        1 F03      0.282000
     21 H10         3.8210   -0.8980    1.0720 ha        1 F03      0.158000
     22 H11         4.8500   -0.6460   -1.0410 ha        1 F03      0.137500
     23 H12         3.5540   -0.0350   -2.9230 ha        1 F03      0.137500
     24 H13         1.2300    0.3250   -2.6920 ha        1 F03      0.150000
@<TRIPOS>BOND
     1    1    2 1   
     2    1   16 1   
     3    1   17 1   
     4    1   18 1   
     5    2    3 1   
     6    2    4 1   
     7    4    5 1   
     8    4   19 1   
     9    5    6 1   
    10    5   15 1   
    11    6    7 1   
    12    6   20 1   
    13    7    8 1   
    14    7    9 1   
    15    9   10 1   
    16    9   14 1   
    17   10   21 1   
    18   11   12 1   
    19   11   22 1   
    20   12   23 1   
    21   13   14 1   
    22   13   24 1   
    23   14   15 1   
@<TRIPOS>SUBSTRUCTURE
     1 F03         1 TEMP              0 ****  ****    0 ROOT
