@<TRIPOS>MOLECULE
F04
   26    27     1     0     0
SMALL
bcc


@<TRIPOS>ATOM
      1 C1          0.0020    0.2560   -0.0590 c3        1 F04     -0.113100
      2 C2          1.4820   -0.0700    0.0220 c3        1 F04      0.108000
      3 N3          2.0350   -0.0530    1.3850 n         1 F04     -0.208800
      4 C4          2.2930   -1.2920    2.0340 c         1 F04      0.685100
      5 O5          2.1170   -2.3660    1.4310 o         1 F04     -0.624500
      6 C6          2.7890   -1.2070    3.4240 ca        1 F04     -0.141600
      7 C7          3.0900   -2.3770    4.1350 ca        1 F04     -0.068000
      8 C8          3.5520   -2.2860    5.4420 ca        1 F04     -0.139000
      9 C9          3.7130   -1.0330    6.0450 ca        1 F04     -0.100000
     10 C10         3.4140    0.1310    5.3470 ca        1 F04     -0.127000
     11 C11         2.9480    0.0570    4.0260 ca        1 F04     -0.106900
     12 C12         2.6080    1.2280    3.2190 cc        1 F04      0.353900
     13 N13         2.1690    1.1330    1.9740 nd        1 F04     -0.427300
     14 C14         2.7680    2.5780    3.8400 c3        1 F04     -0.117400
     15 H11C       -0.3150    0.1940   -1.1280 hc        1 F04      0.046700
     16 H12C       -0.2080    1.2860    0.3160 hc        1 F04      0.046700
     17 H13C       -0.6050   -0.4690    0.5340 hc        1 F04      0.046700
     18 H21C        2.0600    0.6680   -0.6050 h1        1 F04      0.072700
     19 H22C        1.6640   -1.1040   -0.3900 h1        1 F04      0.072700
     20 H7          2.9570   -3.3540    3.6410 ha        1 F04      0.162000
     21 H8          3.7920   -3.2000    6.0060 ha        1 F04      0.141000
     22 H9          4.0790   -0.9710    7.0810 ha        1 F04      0.137000
     23 H10         3.5430    1.1120    5.8290 ha        1 F04      0.141000
     24 H141        3.8360    2.7200    4.1400 hc        1 F04      0.054367
     25 H142        2.1220    2.6420    4.7510 hc        1 F04      0.054367
     26 H143        2.4820    3.4040    3.1440 hc        1 F04      0.054367
@<TRIPOS>BOND
     1    1    2 1   
     2    1   15 1   
     3    1   16 1   
     4    1   17 1   
     5    2    3 1   
     6    2   18 1   
     7    2   19 1   
     8    3    4 1   
     9    3   13 1   
    10    4    5 2   
    11    4    6 1   
    12    6    7 ar  
    13    6   11 ar  
    14    7    8 ar  
    15    7   20 1   
    16    8    9 ar  
    17    8   21 1   
    18    9   10 ar  
    19    9   22 1   
    20   10   11 ar  
    21   10   23 1   
    22   11   12 1   
    23   12   13 2   
    24   12   14 1   
    25   14   24 1   
    26   14   25 1   
    27   14   26 1   
@<TRIPOS>SUBSTRUCTURE
     1 F04         1 TEMP              0 ****  ****    0 ROOT
