@<TRIPOS>MOLECULE
F04
   26    25     1     0     0
SMALL
bcc


@<TRIPOS>ATOM
      1 C1         -2.3330    0.4620   -3.0000 c3        1 F04     -0.231000
      2 C2         -0.9000    0.1450   -2.9240 c3        1 F04     -0.008000
      3 N3         -0.4970    0.1230   -1.5950 n         1 F04     -0.237000
      4 C4         -0.0240   -1.1330   -0.9850 c2        1 F04      0.322000
      5 O5         -0.1430   -2.1720   -1.5740 o         1 F04     -0.349000
      6 C6          0.5790   -1.1170    0.4240 c2        1 F04     -0.121000
      7 C7          0.9440   -2.3330    1.0580 c2        1 F04     -0.068000
      8 C8          1.4050   -2.3240    2.3930 c1        1 F04     -0.139000
      9 C9          1.5020   -1.1370    3.0810 c1        1 F04     -0.113500
     10 C10         1.1440    0.0600    2.4620 c1        1 F04     -0.113500
     11 C11         0.6750    0.0530    1.1020 c1        1 F04     -0.023000
     12 C12         0.1860    1.3570    0.4560 c2        1 F04     -0.093000
     13 N13        -0.3900    1.3390   -0.8820 n2        1 F04     -0.007000
     14 C14         0.2930    2.6560    1.2140 c3        1 F04     -0.160000
     15 H11C       -2.8640   -0.2710   -2.5580 hc        1 F04      0.086000
     16 H12C       -2.5830    0.5340   -3.8800 hc        1 F04      0.086000
     17 H13C       -2.5050    1.3120   -2.5410 hc        1 F04      0.086000
     18 H21C       -0.7260   -0.7830   -3.3580 h1        1 F04      0.112000
     19 H22C       -0.3520    0.8820   -3.4400 h1        1 F04      0.112000
     20 H7          0.8850   -3.0940    0.6170 ha        1 F04      0.162000
     21 H8          1.6620   -3.1710    2.8320 ha        1 F04      0.141000
     22 H9          1.8150   -1.1330    3.9820 ha        1 F04      0.139000
     23 H10         1.2150    0.9580    2.9840 ha        1 F04      0.139000
     24 H141       -0.2060    2.5950    2.0070 hc        1 F04      0.093667
     25 H142       -0.0410    3.3560    0.6860 hc        1 F04      0.093667
     26 H143        1.2580    2.8340    1.4390 hc        1 F04      0.093667
@<TRIPOS>BOND
     1    1    2 1   
     2    1   15 1   
     3    1   16 1   
     4    1   17 1   
     5    2    3 1   
     6    2   18 1   
     7    2   19 1   
     8    3    4 1   
     9    3   13 1   
    10    4    5 1   
    11    4    6 1   
    12    6    7 1   
    13    6   11 1   
    14    7    8 1   
    15    7   20 1   
    16    8   21 1   
    17    9   10 1   
    18    9   22 1   
    19   10   23 1   
    20   11   12 1   
    21   12   13 1   
    22   12   14 1   
    23   14   24 1   
    24   14   25 1   
    25   14   26 1   
@<TRIPOS>SUBSTRUCTURE
     1 F04         1 TEMP              0 ****  ****    0 ROOT
