@<TRIPOS>MOLECULE
F04
   26    27     1     0     0
SMALL
bcc


@<TRIPOS>ATOM
      1 C1          0.0010    0.2630   -0.0570 c3        1 F04     -0.113100
      2 C2          1.4810   -0.0640    0.0220 c3        1 F04      0.108000
      3 N3          2.0340   -0.0490    1.3850 n         1 F04     -0.208800
      4 C4          2.2920   -1.2900    2.0320 c         1 F04      0.685100
      5 O5          2.1140   -2.3630    1.4270 o         1 F04     -0.624500
      6 C6          2.7880   -1.2080    3.4210 ca        1 F04     -0.141600
      7 C7          3.0890   -2.3800    4.1300 ca        1 F04     -0.068000
      8 C8          3.5500   -2.2920    5.4380 ca        1 F04     -0.139000
      9 C9          3.7130   -1.0390    6.0430 ca        1 F04     -0.100000
     10 C10         3.4150    0.1260    5.3470 ca        1 F04     -0.127000
     11 C11         2.9490    0.0540    4.0260 ca        1 F04     -0.106900
     12 C12         2.6100    1.2280    3.2210 cc        1 F04      0.353900
     13 N13         2.1700    1.1350    1.9760 nd        1 F04     -0.427300
     14 C14         2.7710    2.5760    3.8450 c3        1 F04     -0.117400
     15 H11C       -0.3170    0.2030   -1.1260 hc        1 F04      0.046700
     16 H12C       -0.2090    1.2920    0.3210 hc        1 F04      0.046700
     17 H13C       -0.6060   -0.4650    0.5350 hc        1 F04      0.046700
     18 H21C        2.0590    0.6760   -0.6030 h1        1 F04      0.072700
     19 H22C        1.6630   -1.0970   -0.3920 h1        1 F04      0.072700
     20 H7          2.9540   -3.3550    3.6350 ha        1 F04      0.162000
     21 H8          3.7900   -3.2070    6.0000 ha        1 F04      0.141000
     22 H9          4.0790   -0.9800    7.0790 ha        1 F04      0.137000
     23 H10         3.5450    1.1060    5.8300 ha        1 F04      0.141000
     24 H141        3.8390    2.7170    4.1440 hc        1 F04      0.054367
     25 H142        2.1260    2.6390    4.7560 hc        1 F04      0.054367
     26 H143        2.4860    3.4040    3.1500 hc        1 F04      0.054367
@<TRIPOS>BOND
     1    1    2 1   
     2    1   15 1   
     3    1   16 1   
     4    1   17 1   
     5    2    3 1   
     6    2   18 1   
     7    2   19 1   
     8    3    4 1   
     9    3   13 1   
    10    4    5 2   
    11    4    6 1   
    12    6    7 ar  
    13    6   11 ar  
    14    7    8 ar  
    15    7   20 1   
    16    8    9 ar  
    17    8   21 1   
    18    9   10 ar  
    19    9   22 1   
    20   10   11 ar  
    21   10   23 1   
    22   11   12 1   
    23   12   13 2   
    24   12   14 1   
    25   14   24 1   
    26   14   25 1   
    27   14   26 1   
@<TRIPOS>SUBSTRUCTURE
     1 F04         1 TEMP              0 ****  ****    0 ROOT
