@<TRIPOS>MOLECULE
F04
   26    27     1     0     0
SMALL
bcc


@<TRIPOS>ATOM
      1 C1         -3.7820    0.0300    0.9870 c3        1 F04     -0.113100
      2 C2         -3.0570   -0.1830   -0.3300 c3        1 F04      0.108000
      3 N3         -1.6060    0.0480   -0.2690 n         1 F04     -0.208800
      4 C4         -0.7350   -1.0760   -0.2440 c         1 F04      0.685100
      5 O5         -1.1930   -2.2290   -0.3410 o         1 F04     -0.624500
      6 C6          0.7080   -0.7790   -0.1190 ca        1 F04     -0.141600
      7 C7          1.6420   -1.8240   -0.1080 ca        1 F04     -0.068000
      8 C8          2.9950   -1.5330    0.0140 ca        1 F04     -0.139000
      9 C9          3.4220   -0.2040    0.1260 ca        1 F04     -0.100000
     10 C10         2.5010    0.8370    0.1170 ca        1 F04     -0.127000
     11 C11         1.1310    0.5600   -0.0060 ca        1 F04     -0.106900
     12 C12         0.0940    1.5920   -0.0220 cc        1 F04      0.353900
     13 N13        -1.1930    1.3060   -0.1380 nd        1 F04     -0.427300
     14 C14         0.5220    3.0180    0.0990 c3        1 F04     -0.117400
     15 H11C       -3.6800    1.0840    1.3410 hc        1 F04      0.046700
     16 H12C       -4.8660   -0.1910    0.8330 hc        1 F04      0.046700
     17 H13C       -3.3890   -0.6510    1.7800 hc        1 F04      0.046700
     18 H21C       -3.2030   -1.2470   -0.6730 h1        1 F04      0.072700
     19 H22C       -3.4930    0.5050   -1.1100 h1        1 F04      0.072700
     20 H7          1.2860   -2.8630   -0.1970 ha        1 F04      0.162000
     21 H8          3.7350   -2.3480    0.0220 ha        1 F04      0.141000
     22 H9          4.4960    0.0160    0.2220 ha        1 F04      0.137000
     23 H10         2.8450    1.8780    0.2060 ha        1 F04      0.141000
     24 H141        1.2080    3.2700   -0.7480 hc        1 F04      0.054367
     25 H142       -0.3420    3.7270    0.0780 hc        1 F04      0.054367
     26 H143        1.0700    3.1570    1.0640 hc        1 F04      0.054367
@<TRIPOS>BOND
     1    1    2 1   
     2    1   15 1   
     3    1   16 1   
     4    1   17 1   
     5    2    3 1   
     6    2   18 1   
     7    2   19 1   
     8    3    4 1   
     9    3   13 1   
    10    4    5 2   
    11    4    6 1   
    12    6    7 ar  
    13    6   11 ar  
    14    7    8 ar  
    15    7   20 1   
    16    8    9 ar  
    17    8   21 1   
    18    9   10 ar  
    19    9   22 1   
    20   10   11 ar  
    21   10   23 1   
    22   11   12 1   
    23   12   13 2   
    24   12   14 1   
    25   14   24 1   
    26   14   25 1   
    27   14   26 1   
@<TRIPOS>SUBSTRUCTURE
     1 F04         1 TEMP              0 ****  ****    0 ROOT
