@<TRIPOS>MOLECULE
F05
   19    20     1     0     0
SMALL
bcc


@<TRIPOS>ATOM
      1 C1         -0.0030   -0.0750   -0.0270 ca        1 F05     -0.138000
      2 C2          1.4180   -0.1200   -0.0160 ca        1 F05     -0.041000
      3 C3          2.1350   -0.0880    1.1600 ca        1 F05     -0.172000
      4 C4          1.4220   -0.0090    2.3700 ca        1 F05      0.028000
      5 C5         -0.0250    0.0370    2.3640 ca        1 F05     -0.118000
      6 C6         -0.7260    0.0030    1.1400 ca        1 F05     -0.047000
      7 C7         -0.4490    0.1140    3.7220 cc        1 F05     -0.026100
      8 N8          0.6470    0.1160    4.5400 na        1 F05     -0.099500
      9 C9          1.8130    0.0420    3.7440 cc        1 F05     -0.265100
     10 N10         3.1590    0.0220    4.2450 n4        1 F05     -0.639400
     11 H1         -0.5200   -0.1030   -1.0000 ha        1 F05      0.163000
     12 H2          1.9470   -0.1810   -0.9820 ha        1 F05      0.158000
     13 H3          3.2330   -0.1240    1.1520 ha        1 F05      0.131000
     14 H6         -1.8260    0.0380    1.1360 ha        1 F05      0.160000
     15 H7         -1.4690    0.1650    4.1230 h4        1 F05      0.209000
     16 HN10        3.7820   -0.0360    3.4280 hn        1 F05      0.459467
     17 HN1A        3.3690    0.8790    4.7710 hn        1 F05      0.459467
     18 HN8         0.6310    0.1630    5.5290 hn        1 F05      0.319700
     19 H103        3.3160   -0.7940    4.8480 hn        1 F05      0.459467
@<TRIPOS>BOND
     1    1    2 ar  
     2    1    6 ar  
     3    1   11 1   
     4    2    3 ar  
     5    2   12 1   
     6    3    4 ar  
     7    3   13 1   
     8    4    5 ar  
     9    4    9 2   
    10    5    6 ar  
    11    5    7 2   
    12    6   14 1   
    13    7    8 1   
    14    7   15 1   
    15    8    9 1   
    16    8   18 1   
    17    9   10 1   
    18   10   16 1   
    19   10   17 1   
    20   10   19 1   
@<TRIPOS>SUBSTRUCTURE
     1 F05         1 TEMP              0 ****  ****    0 ROOT
