@<TRIPOS>MOLECULE
F05
   18    19     1     0     0
SMALL
bcc


@<TRIPOS>ATOM
      1 C1          0.0210    0.0010   -0.0070 ca        1 F05     -0.142000
      2 C2          1.4470   -0.0020    0.0140 ca        1 F05     -0.133000
      3 C3          2.1440   -0.0010    1.1930 ca        1 F05     -0.101000
      4 C4          1.4240    0.0020    2.4090 ca        1 F05     -0.105000
      5 C5         -0.0280    0.0040    2.3890 ca        1 F05     -0.090000
      6 C6         -0.7120    0.0040    1.1510 ca        1 F05     -0.088000
      7 C7         -0.4590    0.0070    3.7350 cc        1 F05     -0.177100
      8 N8          0.6530    0.0070    4.5510 na        1 F05     -0.095500
      9 C9          1.8220    0.0040    3.7770 cc        1 F05     -0.007100
     10 N10         3.1040    0.0030    4.3660 nh        1 F05     -0.779600
     11 H1         -0.4830   -0.0000   -0.9850 ha        1 F05      0.126000
     12 H2          1.9800   -0.0040   -0.9480 ha        1 F05      0.126000
     13 H3          3.2430   -0.0030    1.2120 ha        1 F05      0.121000
     14 H6         -1.8100    0.0050    1.1380 ha        1 F05      0.128000
     15 H7         -1.4700    0.0100    4.1420 h4        1 F05      0.171000
     16 HN10        3.6060   -0.8200    4.0870 hn        1 F05      0.371800
     17 HN1A        3.6090    0.8210    4.0820 hn        1 F05      0.371800
     18 HN8         0.6390    0.0080    5.5400 hn        1 F05      0.302700
@<TRIPOS>BOND
     1    1    2 ar  
     2    1    6 ar  
     3    1   11 1   
     4    2    3 ar  
     5    2   12 1   
     6    3    4 ar  
     7    3   13 1   
     8    4    5 ar  
     9    4    9 2   
    10    5    6 ar  
    11    5    7 2   
    12    6   14 1   
    13    7    8 1   
    14    7   15 1   
    15    8    9 1   
    16    8   18 1   
    17    9   10 1   
    18   10   16 1   
    19   10   17 1   
@<TRIPOS>SUBSTRUCTURE
     1 F05         1 TEMP              0 ****  ****    0 ROOT
