@<TRIPOS>MOLECULE
F05
   18    19     1     0     0
SMALL
bcc


@<TRIPOS>ATOM
      1 C1          0.0200    0.0000   -0.0070 ca        1 F05     -0.142000
      2 C2          1.4460   -0.0040    0.0140 ca        1 F05     -0.133000
      3 C3          2.1440   -0.0030    1.1930 ca        1 F05     -0.101000
      4 C4          1.4240    0.0020    2.4090 ca        1 F05     -0.105000
      5 C5         -0.0280    0.0060    2.3890 ca        1 F05     -0.090000
      6 C6         -0.7120    0.0050    1.1510 ca        1 F05     -0.088000
      7 C7         -0.4590    0.0100    3.7360 cc        1 F05     -0.177100
      8 N8          0.6540    0.0090    4.5520 na        1 F05     -0.095500
      9 C9          1.8220    0.0040    3.7770 cc        1 F05     -0.007100
     10 N10         3.1050    0.0020    4.3650 nv        1 F05     -0.779600
     11 H1         -0.4840   -0.0010   -0.9850 ha        1 F05      0.126000
     12 H2          1.9790   -0.0070   -0.9490 ha        1 F05      0.126000
     13 H3          3.2430   -0.0060    1.2110 ha        1 F05      0.121000
     14 H6         -1.8110    0.0080    1.1390 ha        1 F05      0.128000
     15 H7         -1.4690    0.0130    4.1430 h4        1 F05      0.171000
     16 HN10        3.6110    0.8180    4.0770 hn        1 F05      0.371300
     17 HN1A        3.6040   -0.8230    4.0900 hn        1 F05      0.371300
     18 HN8         0.6400    0.0110    5.5400 hn        1 F05      0.302700
@<TRIPOS>BOND
     1    1    2 ar  
     2    1    6 ar  
     3    1   11 1   
     4    2    3 ar  
     5    2   12 1   
     6    3    4 ar  
     7    3   13 1   
     8    4    5 ar  
     9    4    9 2   
    10    5    6 ar  
    11    5    7 2   
    12    6   14 1   
    13    7    8 1   
    14    7   15 1   
    15    8    9 1   
    16    8   18 1   
    17    9   10 1   
    18   10   16 1   
    19   10   17 1   
@<TRIPOS>SUBSTRUCTURE
     1 F05         1 TEMP              0 ****  ****    0 ROOT
