@<TRIPOS>MOLECULE
F05
   18    19     1     0     0
SMALL
bcc


@<TRIPOS>ATOM
      1 C1          2.5800    0.0650   -0.0580 ca        1 F05     -0.141000
      2 C2          2.0600   -1.2630   -0.0620 ca        1 F05     -0.135000
      3 C3          0.7110   -1.5020   -0.0270 ca        1 F05     -0.098000
      4 C4         -0.1740   -0.4000    0.0110 ca        1 F05     -0.110000
      5 C5          0.3550    0.9530    0.0180 ca        1 F05     -0.086000
      6 C6          1.7540    1.1570   -0.0180 ca        1 F05     -0.089000
      7 C7         -0.7530    1.8280    0.0610 cc        1 F05     -0.180100
      8 N8         -1.9090    1.0720    0.0900 na        1 F05     -0.101500
      9 C9         -1.5940   -0.2930    0.0530 cc        1 F05      0.000900
     10 N10        -2.5860   -1.2940    0.1110 nh        1 F05     -0.776600
     11 H1          3.6720    0.1930   -0.0860 ha        1 F05      0.126000
     12 H2          2.7730   -2.1000   -0.0940 ha        1 F05      0.125000
     13 H3          0.3070   -2.5240   -0.0280 ha        1 F05      0.121000
     14 H6          2.1520    2.1820   -0.0110 ha        1 F05      0.128000
     15 H7         -0.7800    2.9170    0.0680 h4        1 F05      0.171000
     16 HN10       -2.8160   -1.6120   -0.8120 hn        1 F05      0.372300
     17 HN1A       -2.2530   -2.0610    0.6640 hn        1 F05      0.372300
     18 HN8        -2.8280    1.4330    0.1230 hn        1 F05      0.301700
@<TRIPOS>BOND
     1    1    2 ar  
     2    1    6 ar  
     3    1   11 1   
     4    2    3 ar  
     5    2   12 1   
     6    3    4 ar  
     7    3   13 1   
     8    4    5 ar  
     9    4    9 2   
    10    5    6 ar  
    11    5    7 2   
    12    6   14 1   
    13    7    8 1   
    14    7   15 1   
    15    8    9 1   
    16    8   18 1   
    17    9   10 1   
    18   10   16 1   
    19   10   17 1   
@<TRIPOS>SUBSTRUCTURE
     1 F05         1 TEMP              0 ****  ****    0 ROOT
