@<TRIPOS>MOLECULE
F05
   18    11     1     0     0
SMALL
bcc


@<TRIPOS>ATOM
      1 C1         -1.0190    0.0100   -2.3910 c1        1 F05     -0.115750
      2 C2          0.3620    0.0100   -2.3910 c1        1 F05     -0.115750
      3 C3          1.0540    0.0100   -1.1930 c1        1 F05     -0.115750
      4 C4          0.3500    0.0100    0.0270 c1        1 F05     -0.098000
      5 C5         -1.0060    0.0100    0.0270 c1        1 F05     -0.098000
      6 C6         -1.7110    0.0100   -1.1930 c1        1 F05     -0.115750
      7 C7         -1.4360    0.0100    1.3550 c1        1 F05     -0.103500
      8 N8         -0.3280    0.0100    2.1590 n2        1 F05     -0.106000
      9 C9          0.7800    0.0100    1.3550 c1        1 F05     -0.103500
     10 N10         2.0490   -0.0390    1.9860 n2        1 F05     -0.285000
     11 H1         -1.5070    0.0100   -3.2360 ha        1 F05      0.125000
     12 H2          0.8510    0.0100   -3.2360 ha        1 F05      0.125000
     13 H3          2.0300    0.0100   -1.1930 ha        1 F05      0.125000
     14 H6         -2.6870    0.0100   -1.1930 ha        1 F05      0.125000
     15 H7         -2.3640    0.0100    1.6570 DU        1 F05      0.211500
     16 HN10        2.3570    0.6840    2.4480 hn        1 F05      0.167500
     17 HN1A        2.5520   -0.7990    1.9400 hn        1 F05      0.167500
     18 HN8        -0.3280    0.0190    3.0710 DU        1 F05      0.211500
@<TRIPOS>BOND
     1    1    6 1   
     2    1   11 1   
     3    2    3 1   
     4    2   12 1   
     5    3   13 1   
     6    4    5 1   
     7    6   14 1   
     8    7    8 1   
     9    8    9 1   
    10   10   16 1   
    11   10   17 1   
@<TRIPOS>SUBSTRUCTURE
     1 F05         1 TEMP              0 ****  ****    0 ROOT
