@<TRIPOS>MOLECULE
F06
   21    21     1     0     0
SMALL
bcc


@<TRIPOS>ATOM
      1 C1          1.7180   -0.6440    0.0440 ca        1 F06      0.034400
      2 CL2         1.1410   -2.2440    0.0780 cl        1 F06     -0.086400
      3 C3          3.0300   -0.4260   -0.3950 ca        1 F06     -0.129000
      4 C4          3.5440    0.8670   -0.4360 ca        1 F06     -0.114000
      5 C5          2.7530    1.9450   -0.0370 ca        1 F06     -0.131000
      6 C6          1.4500    1.7280    0.4000 ca        1 F06     -0.104000
      7 C7          0.9110    0.4330    0.4460 ca        1 F06     -0.077300
      8 C8         -0.4730    0.2490    0.9360 c3        1 F06      0.047000
      9 S9         -1.5330    0.4520   -0.4810 ss        1 F06     -0.233300
     10 C10        -3.1650    0.2450    0.1430 c2        1 F06      0.640100
     11 N11        -4.1330    0.4520   -0.8550 nh        1 F06     -0.937800
     12 N12        -3.3430    0.0030    1.4030 n2        1 F06     -0.862100
     13 H3          3.6530   -1.2780   -0.7080 ha        1 F06      0.148000
     14 H4          4.5740    1.0360   -0.7820 ha        1 F06      0.139000
     15 H5          3.1580    2.9670   -0.0690 ha        1 F06      0.138000
     16 H6          0.8260    2.5800    0.7140 ha        1 F06      0.144000
     17 H8         -0.6260   -0.7600    1.3940 h1        1 F06      0.094200
     18 H8A        -0.7290    1.0120    1.7130 h1        1 F06      0.094200
     19 HN11       -3.8000    0.3930   -1.7910 hn        1 F06      0.401800
     20 HN1A       -5.0170    0.0180   -0.7120 hn        1 F06      0.401800
     21 HN12       -4.2800   -0.1100    1.7230 hn        1 F06      0.391400
@<TRIPOS>BOND
     1    1    2 1   
     2    1    3 ar  
     3    1    7 ar  
     4    3    4 ar  
     5    3   13 1   
     6    4    5 ar  
     7    4   14 1   
     8    5    6 ar  
     9    5   15 1   
    10    6    7 ar  
    11    6   16 1   
    12    7    8 1   
    13    8    9 1   
    14    8   17 1   
    15    8   18 1   
    16    9   10 1   
    17   10   11 1   
    18   10   12 2   
    19   11   19 1   
    20   11   20 1   
    21   12   21 1   
@<TRIPOS>SUBSTRUCTURE
     1 F06         1 TEMP              0 ****  ****    0 ROOT
