@<TRIPOS>MOLECULE
F06
   22    22     1     0     0
SMALL
bcc


@<TRIPOS>ATOM
      1 C1         -0.0460    0.0900    0.0190 ca        1 F06      0.048400
      2 CL2        -0.8720    0.1120   -1.4660 cl        1 F06     -0.075400
      3 C3          1.3450    0.2400    0.0120 ca        1 F06     -0.121000
      4 C4          2.0520    0.2210    1.2130 ca        1 F06     -0.076000
      5 C5          1.3750    0.0510    2.4230 ca        1 F06     -0.124000
      6 C6         -0.0080   -0.0990    2.4320 ca        1 F06     -0.086000
      7 C7         -0.7380   -0.0810    1.2330 ca        1 F06     -0.135300
      8 C8         -2.1990   -0.2780    1.2760 c3        1 F06      0.066000
      9 S9         -2.8330    1.3930    1.4050 ss        1 F06     -0.191300
     10 C10        -4.5310    1.2250    1.1860 c2        1 F06      0.521100
     11 N11        -5.1800    2.5820    1.1060 n4        1 F06     -0.817600
     12 N12        -5.3310    0.2340    1.0750 n2        1 F06     -0.743100
     13 H3          1.8810    0.3670   -0.9430 ha        1 F06      0.168000
     14 H4          3.1480    0.3360    1.2040 ha        1 F06      0.161000
     15 H5          1.9370    0.0320    3.3710 ha        1 F06      0.159000
     16 H6         -0.5350   -0.2430    3.3880 ha        1 F06      0.145000
     17 H8         -2.5840   -0.7830    0.3560 h1        1 F06      0.096700
     18 H8A        -2.5090   -0.8710    2.1720 h1        1 F06      0.096700
     19 HN11       -5.0570    3.0570    2.0070 hn        1 F06      0.474467
     20 HN1A       -6.1860    2.5140    0.8960 hn        1 F06      0.474467
     21 HN12       -4.9790   -0.6980    1.1250 hn        1 F06      0.485400
     22 H113       -4.7140    3.1210    0.3670 hn        1 F06      0.474467
@<TRIPOS>BOND
     1    1    2 1   
     2    1    3 ar  
     3    1    7 ar  
     4    3    4 ar  
     5    3   13 1   
     6    4    5 ar  
     7    4   14 1   
     8    5    6 ar  
     9    5   15 1   
    10    6    7 ar  
    11    6   16 1   
    12    7    8 1   
    13    8    9 1   
    14    8   17 1   
    15    8   18 1   
    16    9   10 1   
    17   10   11 1   
    18   10   12 2   
    19   11   19 1   
    20   11   20 1   
    21   11   22 1   
    22   12   21 1   
@<TRIPOS>SUBSTRUCTURE
     1 F06         1 TEMP              0 ****  ****    0 ROOT
