@<TRIPOS>MOLECULE
F06
   22    22     1     0     0
SMALL
bcc


@<TRIPOS>ATOM
      1 C1         -0.0480    0.0610    0.0310 ca        1 F06      0.048400
      2 CL2        -0.8750    0.0500   -1.4540 cl        1 F06     -0.075400
      3 C3          1.3430    0.2070    0.0190 ca        1 F06     -0.121000
      4 C4          2.0510    0.2150    1.2200 ca        1 F06     -0.076000
      5 C5          1.3750    0.0750    2.4330 ca        1 F06     -0.124000
      6 C6         -0.0080   -0.0730    2.4470 ca        1 F06     -0.086000
      7 C7         -0.7390   -0.0810    1.2480 ca        1 F06     -0.135300
      8 C8         -2.2010   -0.2750    1.2980 c3        1 F06      0.066000
      9 S9         -2.8320    1.4000    1.3870 ss        1 F06     -0.191300
     10 C10        -4.5300    1.2300    1.1720 c2        1 F06      0.521100
     11 N11        -5.1760    2.5860    1.0580 n4        1 F06     -0.817600
     12 N12        -5.3320    0.2380    1.0840 n2        1 F06     -0.743100
     13 H3          1.8790    0.3120   -0.9390 ha        1 F06      0.168000
     14 H4          3.1470    0.3290    1.2070 ha        1 F06      0.161000
     15 H5          1.9380    0.0760    3.3810 ha        1 F06      0.159000
     16 H6         -0.5350   -0.1940    3.4070 ha        1 F06      0.145000
     17 H8         -2.5880   -0.8000    0.3900 h1        1 F06      0.096700
     18 H8A        -2.5110   -0.8460    2.2070 h1        1 F06      0.096700
     19 HN11       -5.0600    3.0790    1.9510 hn        1 F06      0.474467
     20 HN1A       -6.1800    2.5150    0.8410 hn        1 F06      0.474467
     21 HN12       -4.9820   -0.6930    1.1590 hn        1 F06      0.485400
     22 H113       -4.7020    3.1090    0.3120 hn        1 F06      0.474467
@<TRIPOS>BOND
     1    1    2 1   
     2    1    3 ar  
     3    1    7 ar  
     4    3    4 ar  
     5    3   13 1   
     6    4    5 ar  
     7    4   14 1   
     8    5    6 ar  
     9    5   15 1   
    10    6    7 ar  
    11    6   16 1   
    12    7    8 1   
    13    8    9 1   
    14    8   17 1   
    15    8   18 1   
    16    9   10 1   
    17   10   11 1   
    18   10   12 2   
    19   11   19 1   
    20   11   20 1   
    21   11   22 1   
    22   12   21 1   
@<TRIPOS>SUBSTRUCTURE
     1 F06         1 TEMP              0 ****  ****    0 ROOT
