@<TRIPOS>MOLECULE
F06
   21    17     1     0     0
SMALL
bcc


@<TRIPOS>ATOM
      1 C1          1.5590   -0.3890   -0.9110 c1        1 F06      0.044900
      2 CL2         0.7290   -0.5410   -2.4110 cl        1 F06     -0.100900
      3 C3          2.9250   -0.3550   -0.8920 c1        1 F06     -0.060500
      4 C4          3.5910   -0.3770    0.2960 c1        1 F06     -0.060500
      5 C5          2.8970   -0.4320    1.4650 c1        1 F06     -0.060500
      6 C6          1.5240   -0.4670    1.4490 c1        1 F06     -0.060500
      7 C7          0.8580   -0.4450    0.2670 c1        1 F06     -0.041100
      8 C8         -0.7230   -0.4730    0.2500 c3        1 F06      0.015800
      9 S9         -1.3350    1.0470   -0.3710 ss        1 F06     -0.334700
     10 C10        -3.1490    1.0300   -0.3200 c2        1 F06      0.293600
     11 N11        -3.8760    0.7380   -1.4700 nh        1 F06     -0.821600
     12 N12        -3.7850    1.2920    0.8150 n1        1 F06     -0.278000
     13 H3          3.4320   -0.3150   -1.7420 ha        1 F06      0.085250
     14 H4          4.5760   -0.3520    0.3090 ha        1 F06      0.085250
     15 H5          3.3730   -0.4470    2.3120 ha        1 F06      0.085250
     16 H6          1.0240   -0.5070    2.2910 ha        1 F06      0.085250
     17 H8         -1.0320   -1.2070   -0.3220 h1        1 F06      0.083200
     18 H8A        -1.0490   -0.6070    1.1410 h1        1 F06      0.083200
     19 HN11       -3.4390    0.5790   -2.2580 hn        1 F06      0.392800
     20 HN1A       -4.7760    0.7500   -1.4490 hn        1 F06      0.392800
     21 HN12       -3.3210    1.4780    1.5510 DU        1 F06      0.169000
@<TRIPOS>BOND
     1    1    2 1   
     2    1    7 3   
     3    3    4 3   
     4    3   13 1   
     5    4   14 1   
     6    5    6 3   
     7    5   15 1   
     8    6   16 1   
     9    7    8 1   
    10    8    9 1   
    11    8   17 1   
    12    8   18 1   
    13    9   10 1   
    14   10   11 1   
    15   10   12 2   
    16   11   19 1   
    17   11   20 1   
@<TRIPOS>SUBSTRUCTURE
     1 F06         1 TEMP              0 ****  ****    0 ROOT
