@<TRIPOS>MOLECULE
F07
   19    13     1     0     0
SMALL
bcc


@<TRIPOS>ATOM
      1 C1          0.7040   -0.0030   -2.6500 c1        1 F07     -0.143000
      2 C2          2.0960   -0.0030   -2.6500 c1        1 F07     -0.080000
      3 N3          2.7850   -0.0030   -1.4600 n1        1 F07     -0.132000
      4 C4          2.1040   -0.0030   -0.2720 c1        1 F07     -0.047000
      5 C5          0.7000   -0.0030   -0.2670 c1        1 F07     -0.093000
      6 C6          0.0120   -0.0030   -1.4520 c1        1 F07      0.030000
      7 N7         -1.4060   -0.0030   -1.4510 n2        1 F07     -0.140000
      8 C8         -2.0960   -0.0030   -0.2610 c1        1 F07      0.010000
      9 C9         -1.4090   -0.0030    0.9360 c1        1 F07     -0.141000
     10 C10         0.0060   -0.0030    0.9370 c1        1 F07     -0.290000
     11 S11         0.4880   -0.0030    2.4320 s         1 F07      0.579000
     12 C12        -0.7650   -0.0030    3.3240 c1        1 F07     -0.423000
     13 C13        -1.9180   -0.0030    2.4640 c1        1 F07     -0.117000
     14 H1          0.2160   -0.0030   -3.4950 ha        1 F07      0.161000
     15 H2          2.5840   -0.0030   -3.4960 ha        1 F07      0.163000
     16 H4          2.5950   -0.0030    0.5720 ha        1 F07      0.159000
     17 H8         -3.0720   -0.0030   -0.2630 ha        1 F07      0.165000
     18 H13        -2.8490   -0.0020    2.7560 DU        1 F07      0.169500
     19 H12        -0.7760    0.0550    4.2980 DU        1 F07      0.169500
@<TRIPOS>BOND
     1    1    6 1   
     2    1   14 1   
     3    2    3 1   
     4    2   15 1   
     5    4    5 1   
     6    4   16 1   
     7    5   10 1   
     8    6    7 1   
     9    7    8 1   
    10    8   17 1   
    11    9   10 1   
    12   11   12 1   
    13   12   13 1   
@<TRIPOS>SUBSTRUCTURE
     1 F07         1 TEMP              0 ****  ****    0 ROOT
