@<TRIPOS>MOLECULE
F07
   19    21     1     0     0
SMALL
bcc


@<TRIPOS>ATOM
      1 C1         -2.8360    0.7810   -0.0010 ca        1 F07     -0.273600
      2 C2         -3.4050   -0.4850   -0.0000 ca        1 F07      0.385200
      3 N3         -2.6900   -1.6470   -0.0000 nb        1 F07     -0.658000
      4 C4         -1.3660   -1.5540   -0.0000 ca        1 F07      0.418200
      5 C5         -0.6580   -0.3160   -0.0000 ca        1 F07     -0.223600
      6 C6         -1.4150    0.8980   -0.0010 ca        1 F07      0.423600
      7 N7         -0.8160    2.1550   -0.0010 nb        1 F07     -0.666000
      8 C8          0.4970    2.2210   -0.0010 ca        1 F07      0.475200
      9 C9          1.3490    1.0710   -0.0000 ca        1 F07     -0.218100
     10 C10         0.7580   -0.2140   -0.0000 ca        1 F07     -0.063100
     11 S11         1.9370   -1.4050    0.0000 ss        1 F07      0.111500
     12 C12         3.2070   -0.3050    0.0000 cc        1 F07     -0.182400
     13 C13         2.7780    0.9990   -0.0000 cd        1 F07     -0.105200
     14 H1         -3.4640    1.6830   -0.0010 ha        1 F07      0.161000
     15 H2         -4.5020   -0.6160   -0.0010 h4        1 F07      0.026100
     16 H4         -0.8040   -2.5060    0.0000 h4        1 F07      0.022100
     17 H8          0.9460    3.2320   -0.0010 h4        1 F07      0.028100
     18 H13         3.4200    1.8820   -0.0000 ha        1 F07      0.162000
     19 H12         4.2470   -0.6310    0.0000 h4        1 F07      0.177000
@<TRIPOS>BOND
     1    1    2 ar  
     2    1    6 ar  
     3    1   14 1   
     4    2    3 ar  
     5    2   15 1   
     6    3    4 ar  
     7    4    5 ar  
     8    4   16 1   
     9    5    6 ar  
    10    5   10 ar  
    11    6    7 ar  
    12    7    8 ar  
    13    8    9 ar  
    14    8   17 1   
    15    9   10 ar  
    16    9   13 1   
    17   10   11 1   
    18   11   12 1   
    19   12   13 2   
    20   12   19 1   
    21   13   18 1   
@<TRIPOS>SUBSTRUCTURE
     1 F07         1 TEMP              0 ****  ****    0 ROOT
