@<TRIPOS>MOLECULE
F07
   19    21     1     0     0
SMALL
bcc


@<TRIPOS>ATOM
      1 C1         -0.0030    0.0000    0.0070 ca        1 F07     -0.273600
      2 C2          1.3840   -0.0000    0.0120 ca        1 F07      0.385200
      3 N3          2.1470   -0.0000    1.1420 nb        1 F07     -0.658000
      4 C4          1.5160   -0.0000    2.3100 ca        1 F07      0.418200
      5 C5          0.0960    0.0000    2.4440 ca        1 F07     -0.223600
      6 C6         -0.6970    0.0000    1.2540 ca        1 F07      0.423600
      7 N7         -2.0890    0.0000    1.2800 nb        1 F07     -0.666000
      8 C8         -2.6920    0.0000    2.4480 ca        1 F07      0.475200
      9 C9         -1.9960    0.0000    3.6990 ca        1 F07     -0.218100
     10 C10        -0.5820    0.0000    3.6920 ca        1 F07     -0.063100
     11 S11         0.0160   -0.0000    5.2570 ss        1 F07      0.111500
     12 C12        -1.5090    0.0000    5.9600 cc        1 F07     -0.182400
     13 C13        -2.5200    0.0000    5.0310 cd        1 F07     -0.105200
     14 H1         -0.5660    0.0000   -0.9370 ha        1 F07      0.161000
     15 H2          1.9560   -0.0000   -0.9340 h4        1 F07      0.026100
     16 H4          2.1510   -0.0000    3.2150 h4        1 F07      0.022100
     17 H8         -3.7980    0.0000    2.4400 h4        1 F07      0.028100
     18 H13        -3.5900    0.0000    5.2510 ha        1 F07      0.162000
     19 H12        -1.6420    0.0000    7.0420 h4        1 F07      0.177000
@<TRIPOS>BOND
     1    1    2 ar  
     2    1    6 ar  
     3    1   14 1   
     4    2    3 ar  
     5    2   15 1   
     6    3    4 ar  
     7    4    5 ar  
     8    4   16 1   
     9    5    6 ar  
    10    5   10 ar  
    11    6    7 ar  
    12    7    8 ar  
    13    8    9 ar  
    14    8   17 1   
    15    9   10 ar  
    16    9   13 1   
    17   10   11 1   
    18   11   12 1   
    19   12   13 2   
    20   12   19 1   
    21   13   18 1   
@<TRIPOS>SUBSTRUCTURE
     1 F07         1 TEMP              0 ****  ****    0 ROOT
