@<TRIPOS>MOLECULE
F08
   33    35     1     0     0
SMALL
bcc


@<TRIPOS>ATOM
      1 CAA         6.9380    0.3830    0.2520 c3        1 F08      0.127700
      2 OAB         5.5220    0.5770    0.2520 os        1 F08     -0.437900
      3 CAC         4.7600   -0.5000   -0.1210 c         1 F08      0.641700
      4 OAD         5.3460   -1.5430   -0.4250 o         1 F08     -0.537000
      5 CAE         3.3110   -0.2510   -0.1050 ca        1 F08     -0.115600
      6 CAJ         2.4490   -1.2940   -0.4710 ca        1 F08     -0.078000
      7 CAI         1.0720   -1.0910   -0.4690 ca        1 F08     -0.113000
      8 CAF         2.7880    0.9930    0.2660 ca        1 F08     -0.078000
      9 CAG         1.4100    1.1960    0.2690 ca        1 F08     -0.113000
     10 CAH         0.5450    0.1560   -0.1040 ca        1 F08     -0.041800
     11 CAK        -0.9030    0.3840   -0.1170 cc        1 F08      0.184900
     12 OAU        -1.5990   -0.7920    0.1250 os        1 F08     -0.224200
     13 CAT        -2.9840   -0.7130    0.1310 ca        1 F08      0.142100
     14 CAS        -3.6510   -1.9260    0.3810 ca        1 F08     -0.158000
     15 CAR        -5.0400   -1.9280    0.4040 ca        1 F08     -0.077000
     16 CAQ        -5.7610   -0.7470    0.1820 ca        1 F08     -0.164000
     17 CAP        -5.0930    0.4460   -0.0630 ca        1 F08     -0.046000
     18 CAO        -3.6900    0.4790   -0.0920 ca        1 F08     -0.214600
     19 CAM        -2.9570    1.7280   -0.3480 c         1 F08      0.588900
     20 OAN        -3.5140    2.8150   -0.5490 o         1 F08     -0.540100
     21 CAL        -1.5010    1.5740   -0.3460 cd        1 F08     -0.308200
     22 H1          7.2860    0.1210   -0.7750 h1        1 F08      0.053033
     23 H2          7.3370    1.3740    0.5820 h1        1 F08      0.053033
     24 H3          7.2110   -0.4290    0.9680 h1        1 F08      0.053033
     25 H4          2.8730   -2.2710   -0.7600 ha        1 F08      0.162500
     26 H5          0.3910   -1.9090   -0.7510 ha        1 F08      0.152500
     27 H6          3.4700    1.8080    0.5570 ha        1 F08      0.162500
     28 H7          1.0020    2.1730    0.5710 ha        1 F08      0.152500
     29 H8         -3.0710   -2.8420    0.5540 ha        1 F08      0.155000
     30 H9         -5.5780   -2.8680    0.5980 ha        1 F08      0.141000
     31 H10        -6.8600   -0.7680    0.2040 ha        1 F08      0.143000
     32 H11        -5.6450    1.3840   -0.2380 ha        1 F08      0.162000
     33 H12        -0.9100    2.4790   -0.5510 ha        1 F08      0.170000
@<TRIPOS>BOND
     1    1    2 1   
     2    1   22 1   
     3    1   23 1   
     4    1   24 1   
     5    2    3 1   
     6    3    4 2   
     7    3    5 1   
     8    5    6 ar  
     9    5    8 ar  
    10    6    7 ar  
    11    6   25 1   
    12    7   10 ar  
    13    7   26 1   
    14    8    9 ar  
    15    8   27 1   
    16    9   10 ar  
    17    9   28 1   
    18   10   11 1   
    19   11   12 1   
    20   11   21 2   
    21   12   13 1   
    22   13   14 ar  
    23   13   18 ar  
    24   14   15 ar  
    25   14   29 1   
    26   15   16 ar  
    27   15   30 1   
    28   16   17 ar  
    29   16   31 1   
    30   17   18 ar  
    31   17   32 1   
    32   18   19 1   
    33   19   20 2   
    34   19   21 1   
    35   21   33 1   
@<TRIPOS>SUBSTRUCTURE
     1 F08         1 TEMP              0 ****  ****    0 ROOT
