@<TRIPOS>MOLECULE
F08
   33    26     1     0     0
SMALL
bcc


@<TRIPOS>ATOM
      1 CAA        -6.9050   -0.0720   -0.0060 c3        1 F08     -0.062000
      2 OAB        -5.5240   -0.1710    0.2660 os        1 F08     -0.276000
      3 CAC        -4.7040    0.0830   -0.8470 c1        1 F08      0.342000
      4 OAD        -5.2050    0.3390   -1.9240 o         1 F08     -0.348000
      5 CAE        -3.2000    0.0690   -0.6960 c1        1 F08     -0.062500
      6 CAJ        -2.5060   -1.1290   -0.7740 c1        1 F08     -0.105000
      7 CAI        -1.1250   -1.1380   -0.6690 c1        1 F08     -0.105000
      8 CAF        -2.5110    1.2570   -0.5130 c1        1 F08     -0.098000
      9 CAG        -1.1290    1.2480   -0.4070 c1        1 F08     -0.098000
     10 CAH        -0.4360    0.0510   -0.4850 c1        1 F08     -0.062500
     11 CAK         1.0670    0.0360   -0.3240 c1        1 F08      0.129000
     12 OAU         1.6480   -0.1400    0.9780 o         1 F08     -0.135000
     13 CAT         3.1310   -0.0690    1.1520 c1        1 F08      0.097000
     14 CAS         3.6860   -0.1450    2.4330 c1        1 F08     -0.105000
     15 CAR         5.0720   -0.1790    2.5930 c1        1 F08     -0.105000
     16 CAQ         5.9110   -0.1370    1.4680 c1        1 F08     -0.105000
     17 CAP         5.3590   -0.0610    0.1870 c1        1 F08     -0.105000
     18 CAO         3.9710   -0.0270    0.0250 c1        1 F08     -0.194000
     19 CAM         3.3750    0.0930   -1.3510 c2        1 F08      0.310000
     20 OAN         4.0980    0.1690   -2.3240 o         1 F08     -0.301000
     21 CAL         1.9390    0.1290   -1.5120 c2        1 F08     -0.288000
     22 H1         -7.0910    0.7850   -0.4480 h1        1 F08      0.092333
     23 H2         -7.1760   -0.8090   -0.5960 h1        1 F08      0.092333
     24 H3         -7.4090   -0.1230    0.8340 h1        1 F08      0.092333
     25 H4         -2.9910   -1.9660   -0.9030 ha        1 F08      0.152667
     26 H5         -0.6370   -1.9810   -0.7240 ha        1 F08      0.152667
     27 H6         -2.9990    2.1000   -0.4580 ha        1 F08      0.157000
     28 H7         -0.6440    2.0850   -0.2780 ha        1 F08      0.157000
     29 H8          3.1030   -0.1740    3.2160 ha        1 F08      0.152667
     30 H9          5.4580   -0.2320    3.4880 ha        1 F08      0.152667
     31 H10         6.8800   -0.1610    1.5810 ha        1 F08      0.152667
     32 H11         5.9430   -0.0320   -0.5940 ha        1 F08      0.152667
     33 H12         1.5490    0.3050   -2.3900 ha        1 F08      0.170000
@<TRIPOS>BOND
     1    1    2 1   
     2    1   22 1   
     3    1   23 1   
     4    1   24 1   
     5    2    3 1   
     6    3    4 1   
     7    5    8 1   
     8    6    7 1   
     9    6   25 1   
    10    7   26 1   
    11    8   27 1   
    12    9   10 1   
    13    9   28 1   
    14   11   21 1   
    15   12   13 1   
    16   13   18 1   
    17   14   15 1   
    18   14   29 1   
    19   15   30 1   
    20   16   17 1   
    21   16   31 1   
    22   17   32 1   
    23   18   19 1   
    24   19   20 1   
    25   19   21 1   
    26   21   33 1   
@<TRIPOS>SUBSTRUCTURE
     1 F08         1 TEMP              0 ****  ****    0 ROOT
