@<TRIPOS>MOLECULE
F09
   30    29     1     0     0
SMALL
bcc


@<TRIPOS>ATOM
      1 C1         -0.3040   -0.0000    5.6910 c3        1 F09     -0.092100
      2 C2          0.5170   -0.0000    4.4270 c3        1 F09     -0.080400
      3 C3         -0.3610    0.0000    3.1940 c3        1 F09     -0.079400
      4 C4          0.4680   -0.0000    1.9280 c3        1 F09     -0.079400
      5 C5         -0.4110    0.0000    0.6950 c3        1 F09     -0.079400
      6 C6          0.4180    0.0000   -0.5710 c3        1 F09     -0.078400
      7 C7         -0.4610   -0.0000   -1.8030 c3        1 F09     -0.078400
      8 C8          0.3710    0.0000   -3.0660 c3        1 F09     -0.084400
      9 C9         -0.5220   -0.0000   -4.2940 c3        1 F09      0.131400
     10 OXT         0.3300    0.0000   -5.4290 oh        1 F09     -0.601800
     11 H11         0.3630   -0.0000    6.5870 hc        1 F09      0.032700
     12 H12        -0.9570    0.9050    5.7370 hc        1 F09      0.032700
     13 H13        -0.9570   -0.9050    5.7370 hc        1 F09      0.032700
     14 H21         1.1840    0.9020    4.4110 hc        1 F09      0.038700
     15 H22         1.1840   -0.9020    4.4110 hc        1 F09      0.038700
     16 H31        -1.0270   -0.9020    3.2080 hc        1 F09      0.039700
     17 H32        -1.0270    0.9030    3.2080 hc        1 F09      0.039700
     18 H41         1.1350    0.9020    1.9140 hc        1 F09      0.039700
     19 H42         1.1340   -0.9030    1.9140 hc        1 F09      0.039700
     20 H51        -1.0770   -0.9030    0.7090 hc        1 F09      0.039700
     21 H52        -1.0770    0.9030    0.7090 hc        1 F09      0.039700
     22 H61         1.0850    0.9030   -0.5850 hc        1 F09      0.041700
     23 H62         1.0850   -0.9020   -0.5850 hc        1 F09      0.041700
     24 H71        -1.1270   -0.9030   -1.7890 hc        1 F09      0.039700
     25 H72        -1.1270    0.9030   -1.7890 hc        1 F09      0.039700
     26 H81         1.0360    0.9020   -3.0930 hc        1 F09      0.055700
     27 H82         1.0370   -0.9020   -3.0930 hc        1 F09      0.055700
     28 H91        -1.1760   -0.9130   -4.3080 h1        1 F09      0.019700
     29 H92        -1.1770    0.9130   -4.3080 h1        1 F09      0.019700
     30 HXT        -0.2430    0.0000   -6.2030 ho        1 F09      0.398000
@<TRIPOS>BOND
     1    1    2 1   
     2    1   11 1   
     3    1   12 1   
     4    1   13 1   
     5    2    3 1   
     6    2   14 1   
     7    2   15 1   
     8    3    4 1   
     9    3   16 1   
    10    3   17 1   
    11    4    5 1   
    12    4   18 1   
    13    4   19 1   
    14    5    6 1   
    15    5   20 1   
    16    5   21 1   
    17    6    7 1   
    18    6   22 1   
    19    6   23 1   
    20    7    8 1   
    21    7   24 1   
    22    7   25 1   
    23    8    9 1   
    24    8   26 1   
    25    8   27 1   
    26    9   10 1   
    27    9   28 1   
    28    9   29 1   
    29   10   30 1   
@<TRIPOS>SUBSTRUCTURE
     1 F09         1 TEMP              0 ****  ****    0 ROOT
