@<TRIPOS>MOLECULE
F09
   30    29     1     0     0
SMALL
bcc


@<TRIPOS>ATOM
      1 C1         -4.4420   -0.0060   -2.6900 c3        1 F09     -0.092100
      2 C2         -2.9290   -0.0060   -2.6900 c3        1 F09     -0.080400
      3 C3         -2.4250   -0.0060   -1.2640 c3        1 F09     -0.079400
      4 C4         -0.9120   -0.0070   -1.2640 c3        1 F09     -0.079400
      5 C5         -0.4080   -0.0030    0.1620 c3        1 F09     -0.079400
      6 C6          1.1050   -0.0040    0.1620 c3        1 F09     -0.078400
      7 C7          1.6100    0.0040    1.5890 c3        1 F09     -0.078400
      8 C8          3.1230    0.0030    1.5890 c3        1 F09     -0.084400
      9 C9          3.6270    0.0140    3.0150 c3        1 F09      0.131400
     10 OXT         5.0370    0.0150    3.0150 oh        1 F09     -0.601800
     11 H11        -4.7670   -0.8030   -2.2310 hc        1 F09      0.032700
     12 H12        -4.7670   -0.0060   -3.6110 hc        1 F09      0.032700
     13 H13        -4.7670    0.7910   -2.2300 hc        1 F09      0.032700
     14 H21        -2.6040    0.7910   -3.1510 hc        1 F09      0.038700
     15 H22        -2.6040   -0.8030   -3.1510 hc        1 F09      0.038700
     16 H31        -2.7500    0.7910   -0.8040 hc        1 F09      0.039700
     17 H32        -2.7500   -0.8030   -0.8040 hc        1 F09      0.039700
     18 H41        -0.5860    0.7890   -1.7270 hc        1 F09      0.039700
     19 H42        -0.5870   -0.8050   -1.7220 hc        1 F09      0.039700
     20 H51        -0.7320    0.7960    0.6200 hc        1 F09      0.039700
     21 H52        -0.7340   -0.7980    0.6250 hc        1 F09      0.039700
     22 H61         1.4310    0.7900   -0.3030 hc        1 F09      0.041700
     23 H62         1.4300   -0.8040   -0.2930 hc        1 F09      0.041700
     24 H71         1.2840   -0.7900    2.0530 hc        1 F09      0.039700
     25 H72         1.2850    0.8040    2.0440 hc        1 F09      0.039700
     26 H81         3.4490    0.7960    1.1220 hc        1 F09      0.055700
     27 H82         3.4470   -0.7980    1.1350 hc        1 F09      0.055700
     28 H91         3.3010    0.8140    3.4690 h1        1 F09      0.019700
     29 H92         3.3020   -0.7800    3.4810 h1        1 F09      0.019700
     30 HXT         5.3330    0.0210    3.8520 ho        1 F09      0.398000
@<TRIPOS>BOND
     1    1    2 1   
     2    1   11 1   
     3    1   12 1   
     4    1   13 1   
     5    2    3 1   
     6    2   14 1   
     7    2   15 1   
     8    3    4 1   
     9    3   16 1   
    10    3   17 1   
    11    4    5 1   
    12    4   18 1   
    13    4   19 1   
    14    5    6 1   
    15    5   20 1   
    16    5   21 1   
    17    6    7 1   
    18    6   22 1   
    19    6   23 1   
    20    7    8 1   
    21    7   24 1   
    22    7   25 1   
    23    8    9 1   
    24    8   26 1   
    25    8   27 1   
    26    9   10 1   
    27    9   28 1   
    28    9   29 1   
    29   10   30 1   
@<TRIPOS>SUBSTRUCTURE
     1 F09         1 TEMP              0 ****  ****    0 ROOT
