@<TRIPOS>MOLECULE
F10
   37    33     1     0     0
SMALL
bcc


@<TRIPOS>ATOM
      1 N1          2.5610   -0.6660   -5.4020 n         1 F10     -0.388000
      2 O3          4.0370   -0.1200   -3.7480 o         1 F10     -0.361000
      3 C10        -2.6840    1.0880    3.9290 c1        1 F10     -0.122000
      4 C11        -0.3960    0.3700    1.2670 c1        1 F10     -0.151000
      5 C9         -3.1920    2.0140    5.0120 c1        1 F10     -0.122000
      6 C14         1.6370    0.0510   -1.6770 c1        1 F10     -0.082000
      7 C17         1.2520   -0.6400   -5.7840 c3        1 F10     -0.007000
      8 C18         0.2910   -1.3480   -4.9190 c3        1 F10     -0.114000
      9 C15         1.7210   -0.3400   -2.9980 c1        1 F10     -0.197000
     10 C16         2.8690   -0.2410   -4.0940 c2        1 F10      0.378000
     11 C21         0.2420   -2.0380    0.6610 c1        1 F10     -0.192000
     12 C22        -0.0470   -2.4760    2.0890 c1        1 F10     -0.062000
     13 C19         0.3950   -0.8860   -3.4460 c2        1 F10     -0.031000
     14 C12         0.0520   -0.6170    0.2670 c1        1 F10      0.038000
     15 C13         0.2610   -0.1990   -1.1700 c2        1 F10     -0.083000
     16 C2         -0.6880   -0.0750    2.6970 c1        1 F10      0.030000
     17 C4         -1.1980    0.9240    3.7100 c1        1 F10     -0.072000
     18 C5         -0.2190    1.7250    4.5380 c1        1 F10      0.106000
     19 C7         -0.7290    2.6560    5.6270 c1        1 F10     -0.122000
     20 C8         -2.2100    2.8170    5.8470 c1        1 F10     -0.122000
     21 F6          1.0670    1.5970    4.3350 f         1 F10     -0.102000
     22 N20        -0.6160   -0.8220   -2.2910 n3        1 F10     -0.147000
     23 N23        -0.4950   -1.4910    3.0860 n1        1 F10     -0.133000
     24 HN1         3.2440   -0.7290   -6.0540 hn        1 F10      0.232000
     25 H10        -3.3000    0.5850    3.4050 ha        1 F10      0.145000
     26 H11        -0.5230    1.3060    1.0090 ha        1 F10      0.160000
     27 H9         -4.1430    2.1180    5.1520 ha        1 F10      0.145000
     28 H14         2.4150   -0.0730   -1.0750 ha        1 F10      0.176000
     29 H171        0.9760    0.3120   -5.8000 h1        1 F10      0.078500
     30 H172        1.2080   -1.0630   -6.6510 h1        1 F10      0.078500
     31 H181        0.3590   -2.3460   -4.9480 hc        1 F10      0.103500
     32 H182       -0.5960   -1.1380   -5.2670 hc        1 F10      0.103500
     33 H21         0.5340   -2.6830    0.0100 ha        1 F10      0.135000
     34 H22         0.0810   -3.4220    2.3510 ha        1 F10      0.160000
     35 H7         -0.0970    3.1730    6.1630 ha        1 F10      0.145000
     36 H8         -2.5380    3.4130    6.5440 ha        1 F10      0.145000
     37 HN20       -1.5300   -0.7370   -2.3750 hn        1 F10      0.251000
@<TRIPOS>BOND
     1    1    7 1   
     2    1   10 1   
     3    1   24 1   
     4    2   10 1   
     5    3    5 1   
     6    3   25 1   
     7    4   16 1   
     8    4   26 1   
     9    5   27 1   
    10    6   15 1   
    11    6   28 1   
    12    7    8 1   
    13    7   29 1   
    14    7   30 1   
    15    8   13 1   
    16    8   31 1   
    17    8   32 1   
    18    9   10 1   
    19    9   13 1   
    20   11   14 1   
    21   11   33 1   
    22   12   23 1   
    23   12   34 1   
    24   13   22 1   
    25   14   15 1   
    26   15   22 1   
    27   16   17 1   
    28   17   18 1   
    29   18   21 1   
    30   19   20 1   
    31   19   35 1   
    32   20   36 1   
    33   22   37 1   
@<TRIPOS>SUBSTRUCTURE
     1 F10         1 TEMP              0 ****  ****    0 ROOT
