@<TRIPOS>MOLECULE
F10
   37    40     1     0     0
SMALL
bcc


@<TRIPOS>ATOM
      1 N1         -0.1170    0.3310    0.2510 ns        1 F10     -0.578900
      2 O3         -2.0670   -0.4050    1.1870 o         1 F10     -0.637500
      3 C10        -1.8490   -3.4450    8.3640 ca        1 F10     -0.091000
      4 C11        -0.1170   -3.4570    5.9040 ca        1 F10     -0.225300
      5 C9         -2.9530   -3.6200    9.1920 ca        1 F10     -0.149000
      6 C14        -0.3710   -1.9740    3.2620 cc        1 F10     -0.085000
      7 C17         1.2890    0.1490    0.0210 c3        1 F10      0.108000
      8 C18         2.1420   -0.0940    1.2790 c3        1 F10     -0.028100
      9 C15        -0.0040   -1.1010    2.1960 cc        1 F10     -0.217600
     10 C16        -0.8200   -0.4080    1.2020 c         1 F10      0.741100
     11 C21         2.1950   -3.8520    5.3610 ca        1 F10     -0.258300
     12 C22         2.2530   -4.6850    6.4920 ca        1 F10      0.406200
     13 C19         1.4050   -0.9570    2.2240 cd        1 F10     -0.062600
     14 C12         0.9800   -3.2190    5.0600 ca        1 F10      0.036000
     15 C13         0.8240   -2.3460    3.9160 cd        1 F10     -0.106300
     16 C2          0.0370   -4.3160    7.0130 cp        1 F10      0.467800
     17 C4         -1.1270   -4.5460    7.8860 cp        1 F10     -0.183500
     18 C5         -1.5390   -5.8450    8.2570 ca        1 F10      0.164900
     19 C7         -2.6600   -6.0160    9.0960 ca        1 F10     -0.174000
     20 C8         -3.3560   -4.9060    9.5580 ca        1 F10     -0.095000
     21 F6         -0.8900   -6.9420    7.8060 f         1 F10     -0.125900
     22 N20         1.9010   -1.7150    3.2640 na        1 F10     -0.147100
     23 N23         1.2160   -4.9240    7.3100 nb        1 F10     -0.647000
     24 HN1        -0.6410    0.7410   -0.4880 hn        1 F10      0.319500
     25 H11        -1.0890   -2.9840    5.7050 ha        1 F10      0.155000
     26 H9         -3.5080   -2.7440    9.5600 ha        1 F10      0.139000
     27 H14        -1.3790   -2.2960    3.5110 ha        1 F10      0.174000
     28 H171        1.4530   -0.7240   -0.6800 h1        1 F10      0.039700
     29 H172        1.6800    1.0740   -0.4910 h1        1 F10      0.039700
     30 H181        3.1140   -0.5540    0.9640 hc        1 F10      0.064200
     31 H182        2.3720    0.8870    1.7780 hc        1 F10      0.064200
     32 H21         3.0860   -3.7270    4.7340 ha        1 F10      0.135000
     33 H22         3.1950   -5.1990    6.7610 h4        1 F10      0.025100
     34 H7         -2.9690   -7.0340    9.3750 ha        1 F10      0.150000
     35 H8         -4.2280   -5.0430   10.2150 ha        1 F10      0.139000
     36 HN20        2.8470   -1.7880    3.5340 hn        1 F10      0.300700
     37 H10        -1.5290   -2.4290    8.0800 ha        1 F10      0.142000
@<TRIPOS>BOND
     1    1    7 1   
     2    1   10 1   
     3    1   24 1   
     4    2   10 2   
     5    3    5 ar  
     6    3   17 ar  
     7    3   37 1   
     8    4   14 ar  
     9    4   16 ar  
    10    4   25 1   
    11    5   20 ar  
    12    5   26 1   
    13    6    9 1   
    14    6   15 2   
    15    6   27 1   
    16    7    8 1   
    17    7   28 1   
    18    7   29 1   
    19    8   13 1   
    20    8   30 1   
    21    8   31 1   
    22    9   10 1   
    23    9   13 2   
    24   11   12 ar  
    25   11   14 ar  
    26   11   32 1   
    27   12   23 ar  
    28   12   33 1   
    29   13   22 1   
    30   14   15 1   
    31   15   22 1   
    32   16   17 1   
    33   16   23 ar  
    34   17   18 ar  
    35   18   19 ar  
    36   18   21 1   
    37   19   20 ar  
    38   19   34 1   
    39   20   35 1   
    40   22   36 1   
@<TRIPOS>SUBSTRUCTURE
     1 F10         1 TEMP              0 ****  ****    0 ROOT
