@<TRIPOS>MOLECULE
F10
   37    40     1     0     0
SMALL
bcc


@<TRIPOS>ATOM
      1 N1         -0.1150    0.3390    0.2550 n         1 F10     -0.578900
      2 O3         -2.0660   -0.3820    1.2020 o         1 F10     -0.637500
      3 C10        -1.8320   -3.4320    8.3750 ca        1 F10     -0.091000
      4 C11        -0.1140   -3.4550    5.9050 ca        1 F10     -0.225300
      5 C9         -2.9330   -3.5990    9.2090 ca        1 F10     -0.149000
      6 C14        -0.3710   -1.9680    3.2660 cc        1 F10     -0.085000
      7 C17         1.2880    0.1450    0.0180 c3        1 F10      0.108000
      8 C18         2.1460   -0.1060    1.2700 c3        1 F10     -0.028100
      9 C15        -0.0030   -1.0970    2.1990 cc        1 F10     -0.217600
     10 C16        -0.8190   -0.3960    1.2100 c         1 F10      0.741100
     11 C21         2.1910   -3.8680    5.3480 ca        1 F10     -0.258300
     12 C22         2.2500   -4.7040    6.4780 ca        1 F10      0.406200
     13 C19         1.4070   -0.9640    2.2180 cd        1 F10     -0.062600
     14 C12         0.9800   -3.2250    5.0550 ca        1 F10      0.036000
     15 C13         0.8240   -2.3500    3.9130 cd        1 F10     -0.106300
     16 C2          0.0400   -4.3170    7.0120 cp        1 F10      0.467800
     17 C4         -1.1220   -4.5380    7.8920 cp        1 F10     -0.183500
     18 C5         -1.5430   -5.8350    8.2620 ca        1 F10      0.164900
     19 C7         -2.6600   -5.9970    9.1080 ca        1 F10     -0.174000
     20 C8         -3.3440   -4.8820    9.5750 ca        1 F10     -0.095000
     21 F6         -0.9050   -6.9360    7.8070 f         1 F10     -0.125900
     22 N20         1.9030   -1.7270    3.2550 na        1 F10     -0.147100
     23 N23         1.2150   -4.9350    7.3020 nb        1 F10     -0.647000
     24 HN1        -0.6400    0.7540   -0.4790 hn        1 F10      0.319500
     25 H11        -1.0830   -2.9740    5.7120 ha        1 F10      0.155000
     26 H9         -3.4780   -2.7190    9.5810 ha        1 F10      0.139000
     27 H14        -1.3800   -2.2810    3.5210 ha        1 F10      0.174000
     28 H171        1.6840    1.0680   -0.4960 h1        1 F10      0.039700
     29 H172        1.4410   -0.7290   -0.6850 h1        1 F10      0.039700
     30 H181        3.1120   -0.5740    0.9490 hc        1 F10      0.064200
     31 H182        2.3860    0.8720    1.7690 hc        1 F10      0.064200
     32 H21         3.0800   -3.7500    4.7160 ha        1 F10      0.135000
     33 H22         3.1880   -5.2260    6.7410 h4        1 F10      0.025100
     34 H7         -2.9760   -7.0130    9.3880 ha        1 F10      0.150000
     35 H8         -4.2130   -5.0130   10.2370 ha        1 F10      0.139000
     36 HN20        2.8500   -1.8080    3.5200 hn        1 F10      0.300700
     37 H10        -1.5050   -2.4190    8.0900 ha        1 F10      0.142000
@<TRIPOS>BOND
     1    1    7 1   
     2    1   10 1   
     3    1   24 1   
     4    2   10 2   
     5    3    5 ar  
     6    3   17 ar  
     7    3   37 1   
     8    4   14 ar  
     9    4   16 ar  
    10    4   25 1   
    11    5   20 ar  
    12    5   26 1   
    13    6    9 1   
    14    6   15 2   
    15    6   27 1   
    16    7    8 1   
    17    7   28 1   
    18    7   29 1   
    19    8   13 1   
    20    8   30 1   
    21    8   31 1   
    22    9   10 1   
    23    9   13 2   
    24   11   12 ar  
    25   11   14 ar  
    26   11   32 1   
    27   12   23 ar  
    28   12   33 1   
    29   13   22 1   
    30   14   15 1   
    31   15   22 1   
    32   16   17 1   
    33   16   23 ar  
    34   17   18 ar  
    35   18   19 ar  
    36   18   21 1   
    37   19   20 ar  
    38   19   34 1   
    39   20   35 1   
    40   22   36 1   
@<TRIPOS>SUBSTRUCTURE
     1 F10         1 TEMP              0 ****  ****    0 ROOT
