@<TRIPOS>MOLECULE
F10
   37    40     1     0     0
SMALL
bcc


@<TRIPOS>ATOM
      1 N1         -0.1130    0.3800    0.2830 n         1 F10     -0.578900
      2 O3         -2.0640   -0.3620    1.2120 o         1 F10     -0.637500
      3 C10        -1.8470   -3.4770    8.3580 ca        1 F10     -0.091000
      4 C11        -0.1180   -3.4680    5.8960 ca        1 F10     -0.225300
      5 C9         -2.9510   -3.6570    9.1860 ca        1 F10     -0.149000
      6 C14        -0.3700   -1.9570    3.2700 cc        1 F10     -0.085000
      7 C17         1.2930    0.1960    0.0510 c3        1 F10      0.108000
      8 C18         2.1450   -0.0620    1.3050 c3        1 F10     -0.028100
      9 C15        -0.0020   -1.0740    2.2130 cc        1 F10     -0.217600
     10 C16        -0.8170   -0.3680    1.2280 c         1 F10      0.741100
     11 C21         2.1920   -3.8640    5.3460 ca        1 F10     -0.258300
     12 C22         2.2490   -4.7100    6.4680 ca        1 F10      0.406200
     13 C19         1.4070   -0.9340    2.2410 cd        1 F10     -0.062600
     14 C12         0.9790   -3.2250    5.0530 ca        1 F10      0.036000
     15 C13         0.8240   -2.3390    3.9190 cd        1 F10     -0.106300
     16 C2          0.0350   -4.3400    6.9960 cp        1 F10      0.467800
     17 C4         -1.1290   -4.5750    7.8680 cp        1 F10     -0.183500
     18 C5         -1.5460   -5.8770    8.2240 ca        1 F10      0.164900
     19 C7         -2.6660   -6.0530    9.0630 ca        1 F10     -0.174000
     20 C8         -3.3570   -4.9460    9.5380 ca        1 F10     -0.095000
     21 F6         -0.9010   -6.9710    7.7610 f         1 F10     -0.125900
     22 N20         1.9020   -1.7040    3.2730 na        1 F10     -0.147100
     23 N23         1.2120   -4.9540    7.2850 nb        1 F10     -0.647000
     24 HN1        -0.6360    0.7990   -0.4500 hn        1 F10      0.319500
     25 H11        -1.0890   -2.9900    5.7030 ha        1 F10      0.155000
     26 H9         -3.5010   -2.7840    9.5640 ha        1 F10      0.139000
     27 H14        -1.3790   -2.2790    3.5160 ha        1 F10      0.174000
     28 H171        1.6860    1.1270   -0.4520 h1        1 F10      0.039700
     29 H172        1.4540   -0.6690   -0.6590 h1        1 F10      0.039700
     30 H181        2.3780    0.9130    1.8150 hc        1 F10      0.064200
     31 H182        3.1160   -0.5210    0.9840 hc        1 F10      0.064200
     32 H21         3.0830   -3.7360    4.7200 ha        1 F10      0.135000
     33 H22         3.1890   -5.2300    6.7300 h4        1 F10      0.025100
     34 H7         -2.9780   -7.0730    9.3310 ha        1 F10      0.150000
     35 H8         -4.2290   -5.0870   10.1940 ha        1 F10      0.139000
     36 HN20        2.8480   -1.7820    3.5420 hn        1 F10      0.300700
     37 H10        -1.5240   -2.4600    8.0850 ha        1 F10      0.142000
@<TRIPOS>BOND
     1    1    7 1   
     2    1   10 1   
     3    1   24 1   
     4    2   10 2   
     5    3    5 ar  
     6    3   17 ar  
     7    3   37 1   
     8    4   14 ar  
     9    4   16 ar  
    10    4   25 1   
    11    5   20 ar  
    12    5   26 1   
    13    6    9 1   
    14    6   15 2   
    15    6   27 1   
    16    7    8 1   
    17    7   28 1   
    18    7   29 1   
    19    8   13 1   
    20    8   30 1   
    21    8   31 1   
    22    9   10 1   
    23    9   13 2   
    24   11   12 ar  
    25   11   14 ar  
    26   11   32 1   
    27   12   23 ar  
    28   12   33 1   
    29   13   22 1   
    30   14   15 1   
    31   15   22 1   
    32   16   17 1   
    33   16   23 ar  
    34   17   18 ar  
    35   18   19 ar  
    36   18   21 1   
    37   19   20 ar  
    38   19   34 1   
    39   20   35 1   
    40   22   36 1   
@<TRIPOS>SUBSTRUCTURE
     1 F10         1 TEMP              0 ****  ****    0 ROOT
