@<TRIPOS>MOLECULE
F10
   37    40     1     0     0
SMALL
bcc


@<TRIPOS>ATOM
      1 N1          3.3590   -4.3430    1.3100 n         1 F10     -0.578900
      2 O3          2.5260   -3.3100    3.1700 o         1 F10     -0.637500
      3 C10        -3.5040    1.5650    2.3490 ca        1 F10     -0.091000
      4 C11        -1.0200    0.8430    0.8140 ca        1 F10     -0.225300
      5 C9         -4.3280    2.0000    3.3830 ca        1 F10     -0.149000
      6 C14         1.0880   -1.2950    1.2950 cc        1 F10     -0.085000
      7 C17         3.7280   -4.2800   -0.0760 c3        1 F10      0.108000
      8 C18         2.6490   -3.7350   -1.0270 c3        1 F10     -0.028100
      9 C15         1.8950   -2.4390    1.0250 cc        1 F10     -0.217600
     10 C16         2.6000   -3.3470    1.9260 c         1 F10      0.741100
     11 C21        -0.2270    0.9910   -1.4550 ca        1 F10     -0.258300
     12 C22        -1.0780    2.0990   -1.6140 ca        1 F10      0.406200
     13 C19         1.9290   -2.6200   -0.3790 cd        1 F10     -0.062600
     14 C12        -0.1990    0.3440   -0.2110 ca        1 F10      0.036000
     15 C13         0.6470   -0.8020    0.0470 cd        1 F10     -0.106300
     16 C2         -1.8360    1.9660    0.5610 cp        1 F10      0.467800
     17 C4         -2.6920    2.4680    1.6500 cp        1 F10     -0.183500
     18 C5         -2.7190    3.8320    2.0130 ca        1 F10      0.164900
     19 C7         -3.5550    4.2660    3.0620 ca        1 F10     -0.174000
     20 C8         -4.3530    3.3500    3.7360 ca        1 F10     -0.095000
     21 F6         -1.9390    4.7400    1.3840 f         1 F10     -0.125900
     22 N20         1.1750   -1.6250   -0.9670 na        1 F10     -0.147100
     23 N23        -1.8710    2.5900   -0.6470 nb        1 F10     -0.647000
     24 HN1         3.9170   -4.9200    1.8960 hn        1 F10      0.319500
     25 H11        -1.0280    0.3680    1.8050 ha        1 F10      0.155000
     26 H9         -4.9610    1.2780    3.9200 ha        1 F10      0.139000
     27 H14         0.8660   -0.8820    2.2760 ha        1 F10      0.174000
     28 H171        3.9930   -5.3240   -0.4120 h1        1 F10      0.039700
     29 H172        4.6520   -3.6390   -0.1980 h1        1 F10      0.039700
     30 H181        1.9170   -4.5490   -1.2810 hc        1 F10      0.064200
     31 H182        3.1470   -3.4120   -1.9790 hc        1 F10      0.064200
     32 H21         0.4020    0.6680   -2.2920 ha        1 F10      0.135000
     33 H22        -1.1280    2.6330   -2.5810 h4        1 F10      0.025100
     34 H7         -3.5650    5.3320    3.3330 ha        1 F10      0.150000
     35 H8         -5.0070    3.6930    4.5530 ha        1 F10      0.139000
     36 HN20        1.0030   -1.5150   -1.9320 hn        1 F10      0.300700
     37 H10        -3.4890    0.5000    2.0680 ha        1 F10      0.142000
@<TRIPOS>BOND
     1    1    7 1   
     2    1   10 1   
     3    1   24 1   
     4    2   10 2   
     5    3    5 ar  
     6    3   17 ar  
     7    3   37 1   
     8    4   14 ar  
     9    4   16 ar  
    10    4   25 1   
    11    5   20 ar  
    12    5   26 1   
    13    6    9 1   
    14    6   15 2   
    15    6   27 1   
    16    7    8 1   
    17    7   28 1   
    18    7   29 1   
    19    8   13 1   
    20    8   30 1   
    21    8   31 1   
    22    9   10 1   
    23    9   13 2   
    24   11   12 ar  
    25   11   14 ar  
    26   11   32 1   
    27   12   23 ar  
    28   12   33 1   
    29   13   22 1   
    30   14   15 1   
    31   15   22 1   
    32   16   17 1   
    33   16   23 ar  
    34   17   18 ar  
    35   18   19 ar  
    36   18   21 1   
    37   19   20 ar  
    38   19   34 1   
    39   20   35 1   
    40   22   36 1   
@<TRIPOS>SUBSTRUCTURE
     1 F10         1 TEMP              0 ****  ****    0 ROOT
