@<TRIPOS>MOLECULE
F11
   71    76     1     0     0
SMALL
bcc


@<TRIPOS>ATOM
      1 C1         -0.2330   -0.1850   -0.1250 ca        1 F11      0.444600
      2 C2          1.1900    0.0280   -0.0350 ca        1 F11     -0.166600
      3 C3          1.8630    0.2260    1.2770 c3        1 F11     -0.024100
      4 C4          0.9290    0.4860    2.4390 c3        1 F11     -0.080400
      5 C5         -0.2820   -0.4130    2.3730 c3        1 F11     -0.079400
      6 C6         -1.0780   -0.1220    1.1220 c3        1 F11     -0.132700
      7 N7         -0.8670   -0.4240   -1.2690 nb        1 F11     -0.674000
      8 C8         -0.1410   -0.4590   -2.4370 ca        1 F11      0.405600
      9 C9          1.2690   -0.2450   -2.4640 ca        1 F11     -0.168300
     10 C10         1.9420   -0.0130   -1.2100 ca        1 F11      0.120600
     11 N11         3.3620    0.1070   -1.1490 nh        1 F11     -0.713600
     12 C14         1.9420   -0.2700   -3.7140 ca        1 F11     -0.122000
     13 C15         1.2580   -0.5110   -4.8800 ca        1 F11     -0.127000
     14 C16        -0.1380   -0.7400   -4.8550 ca        1 F11     -0.127000
     15 C17        -0.8270   -0.7150   -3.6710 ca        1 F11     -0.163300
     16 C19         7.7630    4.5460   -1.4990 c3        1 F11      0.165800
     17 C20         7.3370    3.0850   -1.3720 c3        1 F11     -0.084400
     18 C21         5.8270    2.9830   -1.4030 c3        1 F11     -0.079400
     19 C24         5.3800    1.5430   -1.2730 c3        1 F11     -0.084400
     20 C25         3.8550    1.4660   -1.3110 c3        1 F11      0.165800
     21 C26        10.4470    7.9650   -2.8960 ca        1 F11      0.444600
     22 C27         9.9200    6.6240   -2.8510 ca        1 F11     -0.166600
     23 C28         9.7230    5.8260   -4.0920 c3        1 F11     -0.024100
     24 C29         9.8230    6.6170   -5.3790 c3        1 F11     -0.080400
     25 C30        10.9660    7.6010   -5.3240 c3        1 F11     -0.079400
     26 C31        10.7260    8.6130   -4.2280 c3        1 F11     -0.132700
     27 N32        10.6950    8.6910   -1.8100 nb        1 F11     -0.674000
     28 C33        10.4250    8.1520   -0.5740 ca        1 F11      0.405600
     29 C34         9.8870    6.8400   -0.4150 ca        1 F11     -0.168300
     30 C35         9.6490    6.0590   -1.6040 ca        1 F11      0.120600
     31 N36         9.2090    4.7050   -1.5170 nh        1 F11     -0.713600
     32 C39         9.6090    6.3660    0.8940 ca        1 F11     -0.122000
     33 C40         9.8690    7.1440    1.9960 ca        1 F11     -0.127000
     34 C41        10.4190    8.4380    1.8440 ca        1 F11     -0.127000
     35 C42        10.6910    8.9370    0.5970 ca        1 F11     -0.163300
     36 H3C1        2.4720   -0.6970    1.4900 hc        1 F11      0.059200
     37 H3C2        2.5870    1.0840    1.2100 hc        1 F11      0.059200
     38 H4C1        1.4820    0.3170    3.4000 hc        1 F11      0.042700
     39 H4C2        0.5980    1.5590    2.4290 hc        1 F11      0.042700
     40 H5C1       -0.9330   -0.2490    3.2710 hc        1 F11      0.047700
     41 H5C2        0.0400   -1.4870    2.3820 hc        1 F11      0.047700
     42 H6C1       -1.9360   -0.8430    1.0500 hc        1 F11      0.065200
     43 H6C2       -1.5150    0.9130    1.1850 hc        1 F11      0.065200
     44 H11         3.7910   -0.5060   -1.8200 hn        1 F11      0.373800
     45 H14         3.0260   -0.0810   -3.7600 ha        1 F11      0.126000
     46 H15         1.7860   -0.5270   -5.8450 ha        1 F11      0.133000
     47 H16        -0.6630   -0.9370   -5.8020 ha        1 F11      0.136000
     48 H17        -1.9150   -0.8880   -3.6470 ha        1 F11      0.150000
     49 H191        7.3590    4.9660   -2.4630 h1        1 F11      0.038200
     50 H192        7.2900    5.1320   -0.6550 h1        1 F11      0.038200
     51 H201        7.7750    2.4830   -2.2120 hc        1 F11      0.049200
     52 H202        7.7240    2.6510   -0.4130 hc        1 F11      0.049200
     53 H211        5.4400    3.4150   -2.3630 hc        1 F11      0.043700
     54 H212        5.3900    3.5900   -0.5660 hc        1 F11      0.043700
     55 H241        5.8190    0.9360   -2.1090 hc        1 F11      0.049200
     56 H242        5.7630    1.1120   -0.3110 hc        1 F11      0.049200
     57 H251        3.4970    1.9270   -2.2790 h1        1 F11      0.038200
     58 H252        3.4340    2.0870   -0.4700 h1        1 F11      0.038200
     59 H282       10.4970    5.0080   -4.0980 hc        1 F11      0.059200
     60 H291        9.9680    5.9070   -6.2350 hc        1 F11      0.042700
     61 H292        8.8630    7.1690   -5.5620 hc        1 F11      0.042700
     62 H301       11.9290    7.0570   -5.1400 hc        1 F11      0.047700
     63 H302       11.0620    8.1350   -6.3050 hc        1 F11      0.047700
     64 H311        9.8370    9.2500   -4.4890 hc        1 F11      0.065200
     65 H312       11.6140    9.2970   -4.1520 hc        1 F11      0.065200
     66 H36         9.6230    4.2550   -0.7200 hn        1 F11      0.373800
     67 H39         9.1690    5.3680    1.0370 ha        1 F11      0.126000
     68 H40         9.6500    6.7710    3.0070 ha        1 F11      0.133000
     69 H41        10.6230    9.0400    2.7430 ha        1 F11      0.136000
     70 H42        11.1150    9.9470    0.4740 ha        1 F11      0.150000
     71 H281        8.7180    5.3220   -4.0670 hc        1 F11      0.059200
@<TRIPOS>BOND
     1    1    2 ar  
     2    1    6 1   
     3    1    7 ar  
     4    2    3 1   
     5    2   10 ar  
     6    3    4 1   
     7    3   36 1   
     8    3   37 1   
     9    4    5 1   
    10    4   38 1   
    11    4   39 1   
    12    5    6 1   
    13    5   40 1   
    14    5   41 1   
    15    6   42 1   
    16    6   43 1   
    17    7    8 ar  
    18    8    9 ar  
    19    8   15 ar  
    20    9   10 ar  
    21    9   12 ar  
    22   10   11 1   
    23   11   20 1   
    24   11   44 1   
    25   12   13 ar  
    26   12   45 1   
    27   13   14 ar  
    28   13   46 1   
    29   14   15 ar  
    30   14   47 1   
    31   15   48 1   
    32   16   17 1   
    33   16   31 1   
    34   16   49 1   
    35   16   50 1   
    36   17   18 1   
    37   17   51 1   
    38   17   52 1   
    39   18   19 1   
    40   18   53 1   
    41   18   54 1   
    42   19   20 1   
    43   19   55 1   
    44   19   56 1   
    45   20   57 1   
    46   20   58 1   
    47   21   22 ar  
    48   21   26 1   
    49   21   27 ar  
    50   22   23 1   
    51   22   30 ar  
    52   23   24 1   
    53   23   59 1   
    54   23   71 1   
    55   24   25 1   
    56   24   60 1   
    57   24   61 1   
    58   25   26 1   
    59   25   62 1   
    60   25   63 1   
    61   26   64 1   
    62   26   65 1   
    63   27   28 ar  
    64   28   29 ar  
    65   28   35 ar  
    66   29   30 ar  
    67   29   32 ar  
    68   30   31 1   
    69   31   66 1   
    70   32   33 ar  
    71   32   67 1   
    72   33   34 ar  
    73   33   68 1   
    74   34   35 ar  
    75   34   69 1   
    76   35   70 1   
@<TRIPOS>SUBSTRUCTURE
     1 F11         1 TEMP              0 ****  ****    0 ROOT
