@<TRIPOS>MOLECULE
F11
   71    76     1     0     0
SMALL
bcc


@<TRIPOS>ATOM
      1 C1         -6.7860    0.8920   -0.6000 ca        1 F11      0.444600
      2 C2         -5.5440    1.0020    0.1230 ca        1 F11     -0.166600
      3 C3         -4.9880    2.3260    0.5130 c3        1 F11     -0.024100
      4 C4         -5.6450    3.5140   -0.1560 c3        1 F11     -0.080400
      5 C5         -7.1450    3.3450   -0.2100 c3        1 F11     -0.079400
      6 C6         -7.5000    2.1410   -1.0510 c3        1 F11     -0.132700
      7 N7         -7.3490   -0.2700   -0.9160 nb        1 F11     -0.674000
      8 C8         -6.7160   -1.4360   -0.5530 ca        1 F11      0.405600
      9 C9         -5.4760   -1.4430    0.1500 ca        1 F11     -0.168300
     10 C10        -4.8940   -0.1720    0.5070 ca        1 F11      0.120600
     11 N11        -3.7090   -0.1020    1.2980 nh        1 F11     -0.713600
     12 C14        -4.8720   -2.6890    0.4650 ca        1 F11     -0.122000
     13 C15        -5.4740   -3.8730    0.1170 ca        1 F11     -0.127000
     14 C16        -6.7130   -3.8710   -0.5650 ca        1 F11     -0.127000
     15 C17        -7.3240   -2.6900   -0.8970 ca        1 F11     -0.163300
     16 C19         2.5020    0.0710    0.5260 c3        1 F11      0.165800
     17 C20         1.2600    0.0110    1.4140 c3        1 F11     -0.084400
     18 C21         0.0130   -0.0150    0.5560 c3        1 F11     -0.079400
     19 C24        -1.2320   -0.0640    1.4150 c3        1 F11     -0.084400
     20 C25        -2.4750   -0.1010    0.5280 c3        1 F11      0.165800
     21 C26         6.8110   -0.8890   -0.6360 ca        1 F11      0.444600
     22 C27         5.5700   -1.0190    0.0860 ca        1 F11     -0.166600
     23 C28         5.0150   -2.3540    0.4390 c3        1 F11     -0.024100
     24 C29         5.6710   -3.5220   -0.2640 c3        1 F11     -0.080400
     25 C30         7.1700   -3.3510   -0.3160 c3        1 F11     -0.079400
     26 C31         7.5250   -2.1240   -1.1230 c3        1 F11     -0.132700
     27 N32         7.3730    0.2820   -0.9200 nb        1 F11     -0.674000
     28 C33         6.7410    1.4380   -0.5240 ca        1 F11      0.405600
     29 C34         5.5020    1.4240    0.1810 ca        1 F11     -0.168300
     30 C35         4.9200    0.1440    0.5030 ca        1 F11      0.120600
     31 N36         3.7370    0.0520    1.2940 nh        1 F11     -0.713600
     32 C39         4.8980    2.6610    0.5310 ca        1 F11     -0.122000
     33 C40         5.5000    3.8540    0.2150 ca        1 F11     -0.127000
     34 C41         6.7380    3.8720   -0.4680 ca        1 F11     -0.127000
     35 C42         7.3480    2.7000   -0.8340 ca        1 F11     -0.163300
     36 H3C1       -5.0930    2.4240    1.6300 hc        1 F11      0.059200
     37 H3C2       -3.8870    2.3600    0.2860 hc        1 F11      0.059200
     38 H4C1       -5.3840    4.4450    0.4110 hc        1 F11      0.042700
     39 H4C2       -5.2450    3.6340   -1.1980 hc        1 F11      0.042700
     40 H5C1       -7.5520    3.2240    0.8270 hc        1 F11      0.047700
     41 H5C2       -7.6190    4.2580   -0.6550 hc        1 F11      0.047700
     42 H6C1       -8.6130    1.9860   -1.0270 hc        1 F11      0.065200
     43 H6C2       -7.2130    2.3290   -2.1220 hc        1 F11      0.065200
     44 H11        -3.7000   -0.8440    1.9760 hn        1 F11      0.373800
     45 H14        -3.9010   -2.7160    0.9840 ha        1 F11      0.126000
     46 H15        -5.0000   -4.8350    0.3620 ha        1 F11      0.133000
     47 H16        -7.1790   -4.8330   -0.8280 ha        1 F11      0.136000
     48 H17        -8.2870   -2.6830   -1.4320 ha        1 F11      0.150000
     49 H191        2.5090   -0.8230   -0.1590 h1        1 F11      0.038200
     50 H192        2.4300    0.9920   -0.1270 h1        1 F11      0.038200
     51 H201        1.2300    0.9000    2.0960 hc        1 F11      0.049200
     52 H202        1.2950   -0.9050    2.0600 hc        1 F11      0.049200
     53 H211        0.0410   -0.9080   -0.1230 hc        1 F11      0.043700
     54 H212       -0.0160    0.8970   -0.0970 hc        1 F11      0.043700
     55 H241       -1.2000   -0.9730    2.0720 hc        1 F11      0.049200
     56 H242       -1.2650    0.8330    2.0870 hc        1 F11      0.049200
     57 H251       -2.4840    0.8130   -0.1320 h1        1 F11      0.038200
     58 H252       -2.4050   -1.0020   -0.1500 h1        1 F11      0.038200
     59 H282        3.9130   -2.3820    0.2140 hc        1 F11      0.059200
     60 H291        5.4110   -4.4690    0.2780 hc        1 F11      0.042700
     61 H292        5.2690   -3.6130   -1.3080 hc        1 F11      0.042700
     62 H301        7.5800   -3.2590    0.7240 hc        1 F11      0.047700
     63 H302        7.6440   -4.2520   -0.7860 hc        1 F11      0.047700
     64 H311        8.6370   -1.9690   -1.0970 hc        1 F11      0.065200
     65 H312        7.2350   -2.2820   -2.1990 hc        1 F11      0.065200
     66 H36         3.7290    0.7740    1.9930 hn        1 F11      0.373800
     67 H39         3.9290    2.6730    1.0520 ha        1 F11      0.126000
     68 H40         5.0260    4.8090    0.4890 ha        1 F11      0.133000
     69 H41         7.2030    4.8400   -0.7050 ha        1 F11      0.136000
     70 H42         8.3100    2.7080   -1.3710 ha        1 F11      0.150000
     71 H281        5.1210   -2.4830    1.5530 hc        1 F11      0.059200
@<TRIPOS>BOND
     1    1    2 ar  
     2    1    6 1   
     3    1    7 ar  
     4    2    3 1   
     5    2   10 ar  
     6    3    4 1   
     7    3   36 1   
     8    3   37 1   
     9    4    5 1   
    10    4   38 1   
    11    4   39 1   
    12    5    6 1   
    13    5   40 1   
    14    5   41 1   
    15    6   42 1   
    16    6   43 1   
    17    7    8 ar  
    18    8    9 ar  
    19    8   15 ar  
    20    9   10 ar  
    21    9   12 ar  
    22   10   11 1   
    23   11   20 1   
    24   11   44 1   
    25   12   13 ar  
    26   12   45 1   
    27   13   14 ar  
    28   13   46 1   
    29   14   15 ar  
    30   14   47 1   
    31   15   48 1   
    32   16   17 1   
    33   16   31 1   
    34   16   49 1   
    35   16   50 1   
    36   17   18 1   
    37   17   51 1   
    38   17   52 1   
    39   18   19 1   
    40   18   53 1   
    41   18   54 1   
    42   19   20 1   
    43   19   55 1   
    44   19   56 1   
    45   20   57 1   
    46   20   58 1   
    47   21   22 ar  
    48   21   26 1   
    49   21   27 ar  
    50   22   23 1   
    51   22   30 ar  
    52   23   24 1   
    53   23   59 1   
    54   23   71 1   
    55   24   25 1   
    56   24   60 1   
    57   24   61 1   
    58   25   26 1   
    59   25   62 1   
    60   25   63 1   
    61   26   64 1   
    62   26   65 1   
    63   27   28 ar  
    64   28   29 ar  
    65   28   35 ar  
    66   29   30 ar  
    67   29   32 ar  
    68   30   31 1   
    69   31   66 1   
    70   32   33 ar  
    71   32   67 1   
    72   33   34 ar  
    73   33   68 1   
    74   34   35 ar  
    75   34   69 1   
    76   35   70 1   
@<TRIPOS>SUBSTRUCTURE
     1 F11         1 TEMP              0 ****  ****    0 ROOT
