@<TRIPOS>MOLECULE
F11
   73    78     1     0     0
SMALL
bcc


@<TRIPOS>ATOM
      1 C1         -0.2370   -0.1490   -0.0540 ca        1 F11      0.452600
      2 C2          1.2030   -0.0530    0.0620 ca        1 F11     -0.114600
      3 C3          1.8720   -0.0200    1.3920 c3        1 F11     -0.056100
      4 C4          0.9370    0.2470    2.5540 c3        1 F11     -0.077400
      5 C5         -0.3280   -0.5670    2.4220 c3        1 F11     -0.087400
      6 C6         -1.0910   -0.1520    1.1870 c3        1 F11     -0.142700
      7 N7         -0.8580   -0.2180   -1.2260 nb        1 F11     -0.601000
      8 C8         -0.1320   -0.1930   -2.3910 ca        1 F11      0.414600
      9 C9          1.2970   -0.0950   -2.4030 ca        1 F11     -0.135300
     10 C10         1.9370   -0.0410   -1.1210 ca        1 F11     -0.040400
     11 N11         3.4070   -0.0070   -1.0800 n4        1 F11     -0.628400
     12 C14         1.9750   -0.0690   -3.6480 ca        1 F11     -0.181000
     13 C15         1.2750   -0.1500   -4.8290 ca        1 F11     -0.060000
     14 C16        -0.1360   -0.2540   -4.8250 ca        1 F11     -0.110000
     15 C17        -0.8300   -0.2730   -3.6430 ca        1 F11     -0.126300
     16 C19         7.8290    4.4430   -1.5600 c3        1 F11      0.100800
     17 C20         7.4200    2.9820   -1.3990 c3        1 F11     -0.109400
     18 C21         5.9050    2.8850   -1.3930 c3        1 F11     -0.075400
     19 C24         5.4600    1.4430   -1.2320 c3        1 F11     -0.109400
     20 C25         3.9360    1.3840   -1.2330 c3        1 F11      0.100800
     21 C26        10.4090    7.9780   -2.9730 ca        1 F11      0.452600
     22 C27         9.9960    6.5910   -2.9390 ca        1 F11     -0.114600
     23 C28         9.9580    5.7640   -4.1760 c3        1 F11     -0.056100
     24 C29        10.0470    6.5610   -5.4630 c3        1 F11     -0.077400
     25 C30        11.1110    7.6270   -5.3600 c3        1 F11     -0.087400
     26 C31        10.7490    8.6280   -4.2890 c3        1 F11     -0.142700
     27 N32        10.4890    8.7290   -1.8810 nb        1 F11     -0.601000
     28 C33        10.1660    8.1980   -0.6560 ca        1 F11      0.414600
     29 C34         9.7390    6.8400   -0.4980 ca        1 F11     -0.135300
     30 C35         9.6820    6.0510   -1.6940 ca        1 F11     -0.040400
     31 N36         9.3130    4.6330   -1.5740 n4        1 F11     -0.628400
     32 C39         9.4170    6.3660    0.7990 ca        1 F11     -0.181000
     33 C40         9.5260    7.1920    1.8940 ca        1 F11     -0.060000
     34 C41         9.9540    8.5320    1.7460 ca        1 F11     -0.110000
     35 C42        10.2650    9.0320    0.5070 ca        1 F11     -0.126300
     36 H3C1        2.3690   -1.0180    1.5570 hc        1 F11      0.049200
     37 H3C2        2.6710    0.7720    1.4050 hc        1 F11      0.049200
     38 H4C1        0.6820    1.3390    2.5950 hc        1 F11      0.066200
     39 H4C2        1.4630   -0.0120    3.5110 hc        1 F11      0.066200
     40 H5C1       -0.9780   -0.4070    3.3240 hc        1 F11      0.071700
     41 H5C2       -0.0810   -1.6600    2.3790 hc        1 F11      0.071700
     42 H6C1       -1.9730   -0.8380    1.0460 hc        1 F11      0.093200
     43 H6C2       -1.5010    0.8880    1.3210 hc        1 F11      0.093200
     44 H11         3.7660   -0.5980   -1.8420 hn        1 F11      0.456800
     45 H14         3.0690    0.0190   -3.6970 ha        1 F11      0.107000
     46 H15         1.8060   -0.1360   -5.7950 ha        1 F11      0.159000
     47 H16        -0.6710   -0.3220   -5.7880 ha        1 F11      0.173000
     48 H17        -1.9330   -0.3530   -3.6320 ha        1 F11      0.185000
     49 H191        7.4180    5.0630   -0.7100 hx        1 F11      0.116200
     50 H192        7.4240    4.8590   -2.5280 hx        1 F11      0.116200
     51 H201        7.8330    2.3640   -2.2410 hc        1 F11      0.070200
     52 H202        7.8260    2.5660   -0.4390 hc        1 F11      0.070200
     53 H211        5.4970    3.3010   -2.3530 hc        1 F11      0.069700
     54 H212        5.4900    3.5050   -0.5540 hc        1 F11      0.069700
     55 H241        5.8670    1.0300   -0.2710 hc        1 F11      0.070200
     56 H242        5.8760    0.8250   -2.0720 hc        1 F11      0.070200
     57 H251        3.5270    1.7950   -2.2030 hx        1 F11      0.116200
     58 H252        3.5190    2.0020   -0.3860 hx        1 F11      0.116200
     59 H291        9.0550    7.0360   -5.6850 hc        1 F11      0.066200
     60 H292       10.2820    5.8620   -6.3080 hc        1 F11      0.066200
     61 H301       11.2090    8.1620   -6.3430 hc        1 F11      0.071700
     62 H302       12.1060    7.1590   -5.1360 hc        1 F11      0.071700
     63 H311       11.6000    9.3530   -4.1530 hc        1 F11      0.093200
     64 H312        9.8540    9.2290   -4.6140 hc        1 F11      0.093200
     65 H36         9.7160    4.2660   -0.7010 hn        1 F11      0.456800
     66 H39         9.0740    5.3340    0.9580 ha        1 F11      0.107000
     67 H40         9.2820    6.8170    2.9020 ha        1 F11      0.159000
     68 H41        10.0350    9.1710    2.6420 ha        1 F11      0.173000
     69 H42        10.5990   10.0780    0.3850 ha        1 F11      0.185000
     70 H281       10.8260    5.0450   -4.1420 hc        1 F11      0.049200
     71 H112        3.7320   -0.4030   -0.1880 hn        1 F11      0.456800
     72 H362        9.7200    4.1080   -2.3590 hn        1 F11      0.456800
     73 H282        9.0100    5.1610   -4.2110 hc        1 F11      0.049200
@<TRIPOS>BOND
     1    1    2 ar  
     2    1    6 1   
     3    1    7 ar  
     4    2    3 1   
     5    2   10 ar  
     6    3    4 1   
     7    3   36 1   
     8    3   37 1   
     9    4    5 1   
    10    4   38 1   
    11    4   39 1   
    12    5    6 1   
    13    5   40 1   
    14    5   41 1   
    15    6   42 1   
    16    6   43 1   
    17    7    8 ar  
    18    8    9 ar  
    19    8   15 ar  
    20    9   10 ar  
    21    9   12 ar  
    22   10   11 1   
    23   11   20 1   
    24   11   44 1   
    25   11   71 1   
    26   12   13 ar  
    27   12   45 1   
    28   13   14 ar  
    29   13   46 1   
    30   14   15 ar  
    31   14   47 1   
    32   15   48 1   
    33   16   17 1   
    34   16   31 1   
    35   16   49 1   
    36   16   50 1   
    37   17   18 1   
    38   17   51 1   
    39   17   52 1   
    40   18   19 1   
    41   18   53 1   
    42   18   54 1   
    43   19   20 1   
    44   19   55 1   
    45   19   56 1   
    46   20   57 1   
    47   20   58 1   
    48   21   22 ar  
    49   21   26 1   
    50   21   27 ar  
    51   22   23 1   
    52   22   30 ar  
    53   23   24 1   
    54   23   70 1   
    55   23   73 1   
    56   24   25 1   
    57   24   59 1   
    58   24   60 1   
    59   25   26 1   
    60   25   61 1   
    61   25   62 1   
    62   26   63 1   
    63   26   64 1   
    64   27   28 ar  
    65   28   29 ar  
    66   28   35 ar  
    67   29   30 ar  
    68   29   32 ar  
    69   30   31 1   
    70   31   65 1   
    71   31   72 1   
    72   32   33 ar  
    73   32   66 1   
    74   33   34 ar  
    75   33   67 1   
    76   34   35 ar  
    77   34   68 1   
    78   35   69 1   
@<TRIPOS>SUBSTRUCTURE
     1 F11         1 TEMP              0 ****  ****    0 ROOT
