@<TRIPOS>MOLECULE
F11
   71    66     1     0     0
SMALL
bcc


@<TRIPOS>ATOM
      1 C1         -4.7150   -4.3050   -1.0880 c1        1 F11      0.380700
      2 C2         -3.5390   -3.5160   -0.6260 c1        1 F11     -0.104100
      3 C3         -2.3660   -3.2960   -1.6380 c3        1 F11     -0.059800
      4 C4         -2.4610   -3.9870   -2.8950 c3        1 F11     -0.077900
      5 C5         -3.7750   -4.1220   -3.4680 c3        1 F11     -0.078900
      6 C6         -4.7910   -4.6750   -2.6300 c3        1 F11     -0.065800
      7 N7         -5.7330   -4.5670   -0.2270 n1        1 F11     -0.477800
      8 C8         -5.6740   -4.0770    1.1480 cg        1 F11     -0.038750
      9 C9         -4.5740   -3.3390    1.5820 cg        1 F11     -0.038750
     10 C10        -3.4870   -3.0570    0.6700 c1        1 F11      0.112800
     11 N11        -2.1470   -2.5160    0.8260 n3        1 F11     -0.693300
     12 C14        -4.6090   -2.7050    2.8330 c1        1 F11     -0.049250
     13 C15        -5.7440   -2.8150    3.6390 c1        1 F11     -0.071250
     14 C16        -6.8450   -3.5570    3.1990 c1        1 F11     -0.071250
     15 C17        -6.8120   -4.1850    1.9620 c1        1 F11     -0.049250
     16 C19         1.8680    1.9760    1.4760 c3        1 F11      0.169800
     17 C20         1.4340    0.5730    2.0070 c3        1 F11     -0.083900
     18 C21        -0.0650    0.4390    1.9010 c3        1 F11     -0.080400
     19 C24        -0.4530   -1.0680    1.9280 c3        1 F11     -0.083900
     20 C25        -1.9420   -1.2220    1.5610 c3        1 F11      0.169800
     21 C26         4.2540    4.0210   -1.8840 c1        1 F11      0.380700
     22 C27         3.8360    2.8170   -1.1210 c1        1 F11     -0.104100
     23 C28         3.4330    1.5270   -1.9480 c3        1 F11     -0.059800
     24 C29         3.3560    1.6760   -3.3540 c3        1 F11     -0.077900
     25 C30         4.3280    2.5480   -3.9780 c3        1 F11     -0.078900
     26 C31         4.4420    3.8670   -3.4500 c3        1 F11     -0.065800
     27 N32         4.6500    5.1490   -1.2160 n1        1 F11     -0.477800
     28 C33         4.6620    5.1680    0.2010 cg        1 F11     -0.038750
     29 C34         4.2620    4.0150    0.9340 cg        1 F11     -0.038750
     30 C35         3.8490    2.8380    0.2430 c1        1 F11      0.112800
     31 N36         3.2770    1.9940    1.2760 n3        1 F11     -0.693300
     32 C39         4.2900    4.0320    2.3400 c1        1 F11     -0.049250
     33 C40         4.7110    5.1820    3.0180 c1        1 F11     -0.071250
     34 C41         5.1090    6.3290    2.2890 c1        1 F11     -0.071250
     35 C42         5.0810    6.3140    0.8810 c1        1 F11     -0.049250
     36 H3C1       -2.3050   -2.3560   -1.8190 hc        1 F11      0.051450
     37 H3C2       -1.5450   -3.5730   -1.2060 hc        1 F11      0.051450
     38 H4C1       -2.1010   -4.8620   -2.7770 hc        1 F11      0.043700
     39 H4C2       -1.9060   -3.5180   -3.5350 hc        1 F11      0.043700
     40 H5C1       -3.6970   -4.7070   -4.2930 hc        1 F11      0.047700
     41 H5C2       -4.0640   -3.2570   -3.7450 hc        1 F11      0.047700
     42 H6C1       -4.7540   -5.6310   -2.7090 hc        1 F11      0.065450
     43 H6C2       -5.6450   -4.3800   -2.9660 hc        1 F11      0.065450
     44 H11        -1.4140   -2.9640    0.4480 hn        1 F11      0.377300
     45 H14        -3.8290   -2.1780    3.1450 ha        1 F11      0.085250
     46 H15        -5.7700   -2.3660    4.5310 ha        1 F11      0.076250
     47 H16        -7.6720   -3.6370    3.7860 ha        1 F11      0.076250
     48 H17        -7.5680   -4.6930    1.6640 ha        1 F11      0.085250
     49 H191        1.4090    2.1600    0.6140 h1        1 F11      0.039200
     50 H192        1.6230    2.6600    2.1250 h1        1 F11      0.039200
     51 H201        1.7100    0.4780    2.9620 hc        1 F11      0.049200
     52 H202        1.8530   -0.1100    1.4850 hc        1 F11      0.049200
     53 H211       -0.4770    0.8880    2.6370 hc        1 F11      0.044200
     54 H212       -0.3600    0.8280    1.0880 hc        1 F11      0.044200
     55 H241       -0.3050   -1.4160    2.7990 hc        1 F11      0.049200
     56 H242        0.1040   -1.5660    1.2740 hc        1 F11      0.049200
     57 H251       -2.2140   -0.4820    0.9950 h1        1 F11      0.039200
     58 H252       -2.4880   -1.2220    2.3880 h1        1 F11      0.039200
     59 H281        2.5540    1.2230   -1.6270 hc        1 F11      0.051450
     60 H282        4.0810    0.8320   -1.7550 hc        1 F11      0.051450
     61 H291        3.4450    0.7960   -3.7520 hc        1 F11      0.043700
     62 H292        2.4570    2.0230   -3.5720 hc        1 F11      0.043700
     63 H301        4.0860    2.6270   -4.9680 hc        1 F11      0.047700
     64 H302        5.2600    2.0930   -3.9090 hc        1 F11      0.047700
     65 H311        3.7600    4.4380   -3.9000 hc        1 F11      0.065450
     66 H312        5.3040    4.2000   -3.6760 hc        1 F11      0.065450
     67 H36         3.8410    1.5260    1.8670 hn        1 F11      0.377300
     68 H39         4.0160    3.2380    2.8460 ha        1 F11      0.085250
     69 H40         4.7320    5.1940    4.0200 ha        1 F11      0.076250
     70 H41         5.4070    7.1400    2.7700 ha        1 F11      0.076250
     71 H42         5.3600    7.1180    0.3710 ha        1 F11      0.085250
@<TRIPOS>BOND
     1    1    6 1   
     2    1    7 3   
     3    2    3 1   
     4    2   10 3   
     5    3    4 1   
     6    3   36 1   
     7    3   37 1   
     8    4    5 1   
     9    4   38 1   
    10    4   39 1   
    11    5    6 1   
    12    5   40 1   
    13    5   41 1   
    14    6   42 1   
    15    6   43 1   
    16    8    9 1   
    17    8   15 3   
    18    9   12 3   
    19   10   11 1   
    20   11   20 1   
    21   11   44 1   
    22   12   45 1   
    23   13   14 3   
    24   13   46 1   
    25   14   47 1   
    26   15   48 1   
    27   16   17 1   
    28   16   31 1   
    29   16   49 1   
    30   16   50 1   
    31   17   18 1   
    32   17   51 1   
    33   17   52 1   
    34   18   19 1   
    35   18   53 1   
    36   18   54 1   
    37   19   20 1   
    38   19   55 1   
    39   19   56 1   
    40   20   57 1   
    41   20   58 1   
    42   21   26 1   
    43   21   27 3   
    44   22   23 1   
    45   22   30 3   
    46   23   24 1   
    47   23   59 1   
    48   23   60 1   
    49   24   25 1   
    50   24   61 1   
    51   24   62 1   
    52   25   26 1   
    53   25   63 1   
    54   25   64 1   
    55   26   65 1   
    56   26   66 1   
    57   28   29 1   
    58   28   35 3   
    59   29   32 3   
    60   30   31 1   
    61   31   67 1   
    62   32   68 1   
    63   33   34 3   
    64   33   69 1   
    65   34   70 1   
    66   35   71 1   
@<TRIPOS>SUBSTRUCTURE
     1 F11         1 TEMP              0 ****  ****    0 ROOT
