@<TRIPOS>MOLECULE
F11
   71    76     1     0     0
SMALL
bcc


@<TRIPOS>ATOM
      1 C1         -0.2350   -0.1810   -0.1290 ca        1 F11      0.444600
      2 C2          1.1870    0.0330   -0.0350 ca        1 F11     -0.166600
      3 C3          1.8560    0.2380    1.2790 c3        1 F11     -0.024100
      4 C4          0.9180    0.5040    2.4350 c3        1 F11     -0.080400
      5 C5         -0.2930   -0.3960    2.3710 c3        1 F11     -0.079400
      6 C6         -1.0840   -0.1110    1.1160 c3        1 F11     -0.132700
      7 N7         -0.8650   -0.4270   -1.2730 nb        1 F11     -0.674000
      8 C8         -0.1360   -0.4680   -2.4390 ca        1 F11      0.405600
      9 C9          1.2740   -0.2540   -2.4620 ca        1 F11     -0.168300
     10 C10         1.9440   -0.0140   -1.2080 ca        1 F11      0.120600
     11 N11         3.3630    0.1060   -1.1430 nu        1 F11     -0.713600
     12 C14         1.9520   -0.2840   -3.7100 ca        1 F11     -0.122000
     13 C15         1.2710   -0.5320   -4.8770 ca        1 F11     -0.127000
     14 C16        -0.1240   -0.7620   -4.8550 ca        1 F11     -0.127000
     15 C17        -0.8180   -0.7300   -3.6730 ca        1 F11     -0.163300
     16 C19         7.7640    4.5450   -1.5010 c3        1 F11      0.165800
     17 C20         7.3380    3.0830   -1.3740 c3        1 F11     -0.084400
     18 C21         5.8280    2.9820   -1.4030 c3        1 F11     -0.079400
     19 C24         5.3810    1.5420   -1.2700 c3        1 F11     -0.084400
     20 C25         3.8560    1.4640   -1.3100 c3        1 F11      0.165800
     21 C26        10.4440    7.9680   -2.8930 ca        1 F11      0.444600
     22 C27         9.9170    6.6270   -2.8530 ca        1 F11     -0.166600
     23 C28         9.7150    5.8360   -4.0960 c3        1 F11     -0.024100
     24 C29         9.8100    6.6310   -5.3800 c3        1 F11     -0.080400
     25 C30        10.9540    7.6150   -5.3240 c3        1 F11     -0.079400
     26 C31        10.7190    8.6230   -4.2230 c3        1 F11     -0.132700
     27 N32        10.6970    8.6890   -1.8050 nb        1 F11     -0.674000
     28 C33        10.4310    8.1450   -0.5700 ca        1 F11      0.405600
     29 C34         9.8930    6.8330   -0.4150 ca        1 F11     -0.168300
     30 C35         9.6500    6.0570   -1.6060 ca        1 F11      0.120600
     31 N36         9.2100    4.7030   -1.5240 nu        1 F11     -0.713600
     32 C39         9.6200    6.3540    0.8930 ca        1 F11     -0.122000
     33 C40         9.8830    7.1260    1.9970 ca        1 F11     -0.127000
     34 C41        10.4330    8.4210    1.8490 ca        1 F11     -0.127000
     35 C42        10.7010    8.9260    0.6030 ca        1 F11     -0.163300
     36 H3C1        2.5800    1.0950    1.2090 hc        1 F11      0.059200
     37 H3C2        2.4640   -0.6840    1.4980 hc        1 F11      0.059200
     38 H4C1        0.5870    1.5760    2.4180 hc        1 F11      0.042700
     39 H4C2        1.4670    0.3400    3.3990 hc        1 F11      0.042700
     40 H5C1        0.0300   -1.4700    2.3870 hc        1 F11      0.047700
     41 H5C2       -0.9470   -0.2270    3.2660 hc        1 F11      0.047700
     42 H6C1       -1.5220    0.9230    1.1710 hc        1 F11      0.065200
     43 H6C2       -1.9420   -0.8330    1.0450 hc        1 F11      0.065200
     44 H11         3.7940   -0.5100   -1.8090 hn        1 F11      0.373800
     45 H14         3.0350   -0.0950   -3.7540 ha        1 F11      0.126000
     46 H15         1.8020   -0.5530   -5.8400 ha        1 F11      0.133000
     47 H16        -0.6470   -0.9640   -5.8030 ha        1 F11      0.136000
     48 H17        -1.9050   -0.9040   -3.6520 ha        1 F11      0.150000
     49 H191        7.3570    4.9650   -2.4640 h1        1 F11      0.038200
     50 H192        7.2940    5.1300   -0.6550 h1        1 F11      0.038200
     51 H201        7.7740    2.4820   -2.2150 hc        1 F11      0.049200
     52 H202        7.7270    2.6490   -0.4160 hc        1 F11      0.049200
     53 H211        5.3920    3.5900   -0.5670 hc        1 F11      0.043700
     54 H212        5.4390    3.4130   -2.3630 hc        1 F11      0.043700
     55 H241        5.8200    0.9330   -2.1040 hc        1 F11      0.049200
     56 H242        5.7630    1.1130   -0.3070 hc        1 F11      0.049200
     57 H251        3.4330    2.0890   -0.4720 h1        1 F11      0.038200
     58 H252        3.4990    1.9220   -2.2800 h1        1 F11      0.038200
     59 H282        8.7100    5.3310   -4.0690 hc        1 F11      0.059200
     60 H291        9.9520    5.9260   -6.2390 hc        1 F11      0.042700
     61 H292        8.8500    7.1850   -5.5570 hc        1 F11      0.042700
     62 H301       11.9180    7.0690   -5.1470 hc        1 F11      0.047700
     63 H302       11.0460    8.1540   -6.3030 hc        1 F11      0.047700
     64 H311       11.6080    9.3060   -4.1470 hc        1 F11      0.065200
     65 H312        9.8290    9.2610   -4.4790 hc        1 F11      0.065200
     66 H36         9.6270    4.2500   -0.7310 hn        1 F11      0.373800
     67 H39         9.1800    5.3540    1.0330 ha        1 F11      0.126000
     68 H40         9.6680    6.7490    3.0080 ha        1 F11      0.133000
     69 H41        10.6410    9.0180    2.7500 ha        1 F11      0.136000
     70 H42        11.1250    9.9350    0.4830 ha        1 F11      0.150000
     71 H281       10.4880    5.0170   -4.1080 hc        1 F11      0.059200
@<TRIPOS>BOND
     1    1    2 ar  
     2    1    6 1   
     3    1    7 ar  
     4    2    3 1   
     5    2   10 ar  
     6    3    4 1   
     7    3   36 1   
     8    3   37 1   
     9    4    5 1   
    10    4   38 1   
    11    4   39 1   
    12    5    6 1   
    13    5   40 1   
    14    5   41 1   
    15    6   42 1   
    16    6   43 1   
    17    7    8 ar  
    18    8    9 ar  
    19    8   15 ar  
    20    9   10 ar  
    21    9   12 ar  
    22   10   11 1   
    23   11   20 1   
    24   11   44 1   
    25   12   13 ar  
    26   12   45 1   
    27   13   14 ar  
    28   13   46 1   
    29   14   15 ar  
    30   14   47 1   
    31   15   48 1   
    32   16   17 1   
    33   16   31 1   
    34   16   49 1   
    35   16   50 1   
    36   17   18 1   
    37   17   51 1   
    38   17   52 1   
    39   18   19 1   
    40   18   53 1   
    41   18   54 1   
    42   19   20 1   
    43   19   55 1   
    44   19   56 1   
    45   20   57 1   
    46   20   58 1   
    47   21   22 ar  
    48   21   26 1   
    49   21   27 ar  
    50   22   23 1   
    51   22   30 ar  
    52   23   24 1   
    53   23   59 1   
    54   23   71 1   
    55   24   25 1   
    56   24   60 1   
    57   24   61 1   
    58   25   26 1   
    59   25   62 1   
    60   25   63 1   
    61   26   64 1   
    62   26   65 1   
    63   27   28 ar  
    64   28   29 ar  
    65   28   35 ar  
    66   29   30 ar  
    67   29   32 ar  
    68   30   31 1   
    69   31   66 1   
    70   32   33 ar  
    71   32   67 1   
    72   33   34 ar  
    73   33   68 1   
    74   34   35 ar  
    75   34   69 1   
    76   35   70 1   
@<TRIPOS>SUBSTRUCTURE
     1 F11         1 TEMP              0 ****  ****    0 ROOT
