@<TRIPOS>MOLECULE
F12
   18    14     1     0     0
SMALL
bcc


@<TRIPOS>ATOM
      1 O9         -0.9070   -1.7440    2.5190 o         1 F12     -0.548000
      2 C7         -1.4700   -1.5910    1.4190 c1        1 F12      0.381000
      3 O8         -2.7620   -1.4110    1.3670 os        1 F12     -0.598000
      4 C3         -0.6450   -1.5560    0.1400 c2        1 F12     -0.187000
      5 C4         -0.2460   -2.8250   -0.7500 c1        1 F12     -0.092000
      6 C5          0.5250   -2.3640   -1.8830 c1        1 F12     -0.502000
      7 S6          0.6540   -0.8280   -1.7780 ss        1 F12      0.474000
      8 C2         -0.1030   -0.3780   -0.4850 c1        1 F12     -0.189000
      9 N1         -0.2250    1.0090    0.0100 n2        1 F12     -0.277000
     10 C13         0.9020    1.7960    0.1280 c2        1 F12      0.288000
     11 O14         1.9830    1.3500   -0.1730 o         1 F12     -0.409000
     12 C12         0.7810    3.2260    0.5650 c3        1 F12     -0.236000
     13 H4         -0.4760   -3.7310   -0.5650 DU        1 F12      0.154000
     14 H5          0.8150   -2.9180   -2.6490 DU        1 F12      0.154000
     15 HN1        -1.0480    1.3580    0.1950 hn        1 F12      0.297000
     16 H121        0.0640    3.6870    0.0270 hc        1 F12      0.096333
     17 H122        1.6040    3.6630    0.4280 hc        1 F12      0.096333
     18 H123        0.5540    3.2570    1.4870 hc        1 F12      0.096333
@<TRIPOS>BOND
     1    1    2 1   
     2    2    4 1   
     3    4    5 1   
     4    4    8 1   
     5    5    6 1   
     6    6    7 1   
     7    7    8 1   
     8    9   10 1   
     9    9   15 1   
    10   10   11 1   
    11   10   12 1   
    12   12   16 1   
    13   12   17 1   
    14   12   18 1   
@<TRIPOS>SUBSTRUCTURE
     1 F12         1 TEMP              0 ****  ****    0 ROOT
