@<TRIPOS>MOLECULE
F12
   18    18     1     0     0
SMALL
bcc


@<TRIPOS>ATOM
      1 O9         -0.1560    0.0100   -0.0860 o         1 F12     -0.838300
      2 C7          1.1130   -0.0020    0.0060 c         1 F12      0.932200
      3 O8          1.7210    0.0080    1.1110 o         1 F12     -0.838300
      4 C3          1.9310   -0.0300   -1.2570 cc        1 F12     -0.207600
      5 C4          3.3620   -0.0460   -1.2460 cc        1 F12     -0.092000
      6 C5          3.8990   -0.0700   -2.5090 cd        1 F12     -0.232100
      7 S6          2.7180   -0.0740   -3.7000 ss        1 F12     -0.065800
      8 C2          1.4360   -0.0430   -2.5630 cd        1 F12      0.073500
      9 N1          0.0820   -0.0340   -2.8600 ns        1 F12     -0.423100
     10 C13        -0.4900   -0.0390   -4.1080 c         1 F12      0.644100
     11 O14         0.1700   -0.0570   -5.1720 o         1 F12     -0.648100
     12 C12        -2.0040   -0.0210   -4.1470 c3        1 F12     -0.168100
     13 H4          3.9120   -0.0380   -0.3010 ha        1 F12      0.163000
     14 H5          4.9570   -0.0850   -2.7530 h4        1 F12      0.145000
     15 HN1        -0.5100   -0.0160   -2.0340 hn        1 F12      0.383500
     16 H121       -2.4170   -0.9200   -3.6290 hc        1 F12      0.057033
     17 H122       -2.3340   -0.0270   -5.2120 hc        1 F12      0.057033
     18 H123       -2.3960    0.8960   -3.6460 hc        1 F12      0.057033
@<TRIPOS>BOND
     1    1    2 1   
     2    2    3 1   
     3    2    4 1   
     4    4    5 1   
     5    4    8 2   
     6    5    6 2   
     7    5   13 1   
     8    6    7 1   
     9    6   14 1   
    10    7    8 1   
    11    8    9 1   
    12    9   10 1   
    13    9   15 1   
    14   10   11 2   
    15   10   12 1   
    16   12   16 1   
    17   12   17 1   
    18   12   18 1   
@<TRIPOS>SUBSTRUCTURE
     1 F12         1 TEMP              0 ****  ****    0 ROOT
