@<TRIPOS>MOLECULE
F12
   18    18     1     0     0
SMALL
bcc


@<TRIPOS>ATOM
      1 O9         -1.1190    2.3420   -0.0010 o         1 F12     -0.838300
      2 C7         -1.8700    1.3150   -0.0010 c         1 F12      0.932200
      3 O8         -3.1290    1.3860   -0.0000 o         1 F12     -0.838300
      4 C3         -1.2330   -0.0490   -0.0000 cc        1 F12     -0.207600
      5 C4         -2.0010   -1.2560   -0.0000 cc        1 F12     -0.092000
      6 C5         -1.2150   -2.3810   -0.0000 cd        1 F12     -0.232100
      7 S6          0.4210   -2.0120   -0.0000 ss        1 F12     -0.065800
      8 C2          0.1370   -0.3220   -0.0000 cd        1 F12      0.073500
      9 N1          1.1070    0.6690   -0.0010 n         1 F12     -0.423100
     10 C13         2.4680    0.4920   -0.0010 c         1 F12      0.644100
     11 O14         3.0210   -0.6320   -0.0010 o         1 F12     -0.648100
     12 C12         3.3040    1.7550   -0.0010 c3        1 F12     -0.168100
     13 H4         -3.0940   -1.2210   -0.0000 ha        1 F12      0.163000
     14 H5         -1.5690   -3.4080    0.0000 h4        1 F12      0.145000
     15 HN1         0.7210    1.6090   -0.0010 hn        1 F12      0.383500
     16 H121        4.3830    1.4700   -0.0010 hc        1 F12      0.057033
     17 H122        3.0860    2.3660   -0.9090 hc        1 F12      0.057033
     18 H123        3.0860    2.3660    0.9070 hc        1 F12      0.057033
@<TRIPOS>BOND
     1    1    2 1   
     2    2    3 1   
     3    2    4 1   
     4    4    5 1   
     5    4    8 2   
     6    5    6 2   
     7    5   13 1   
     8    6    7 1   
     9    6   14 1   
    10    7    8 1   
    11    8    9 1   
    12    9   10 1   
    13    9   15 1   
    14   10   11 2   
    15   10   12 1   
    16   12   16 1   
    17   12   17 1   
    18   12   18 1   
@<TRIPOS>SUBSTRUCTURE
     1 F12         1 TEMP              0 ****  ****    0 ROOT
