@<TRIPOS>MOLECULE
F12
   19    19     1     0     0
SMALL
bcc


@<TRIPOS>ATOM
      1 O9          0.0370   -0.7560   -0.0020 oh        1 F12     -0.605100
      2 C7          1.1250    0.0810   -0.1030 c         1 F12      0.666700
      3 O8          1.2720    0.8040    0.8810 o         1 F12     -0.477000
      4 C3          1.9210    0.0380   -1.3230 cc        1 F12     -0.289600
      5 C4          3.3480    0.0360   -1.3230 cc        1 F12     -0.074000
      6 C5          3.8500    0.0030   -2.6030 cd        1 F12     -0.234100
      7 S6          2.6570   -0.0020   -3.7610 ss        1 F12      0.155200
      8 C2          1.3990    0.0300   -2.6290 cd        1 F12      0.059500
      9 N1          0.0470    0.0600   -2.9240 n         1 F12     -0.453100
     10 C13        -0.4780    0.0970   -4.2160 c         1 F12      0.659100
     11 O14         0.2700    0.0260   -5.2080 o         1 F12     -0.578100
     12 C12        -1.9750    0.2080   -4.3350 c3        1 F12     -0.172100
     13 H4          3.9350    0.0620   -0.4010 ha        1 F12      0.170000
     14 H5          4.9100   -0.0150   -2.8580 h4        1 F12      0.181000
     15 HN1         0.1210   -1.4770   -0.6400 ho        1 F12      0.428000
     16 H121       -2.2470    0.2000   -5.4190 hc        1 F12      0.076033
     17 H122       -2.4750   -0.6530   -3.8280 hc        1 F12      0.076033
     18 H123       -2.3340    1.1610   -3.8760 hc        1 F12      0.076033
     19 H12        -0.5750    0.1830   -2.1520 hn        1 F12      0.335500
@<TRIPOS>BOND
     1    1    2 1   
     2    1   15 1   
     3    2    3 2   
     4    2    4 1   
     5    4    5 1   
     6    4    8 2   
     7    5    6 2   
     8    5   13 1   
     9    6    7 1   
    10    6   14 1   
    11    7    8 1   
    12    8    9 1   
    13    9   10 1   
    14    9   19 1   
    15   10   11 2   
    16   10   12 1   
    17   12   16 1   
    18   12   17 1   
    19   12   18 1   
@<TRIPOS>SUBSTRUCTURE
     1 F12         1 TEMP              0 ****  ****    0 ROOT
