@<TRIPOS>MOLECULE
F12
   18    18     1     0     0
SMALL
bcc


@<TRIPOS>ATOM
      1 O9         -0.1520    0.0230   -0.0850 o         1 F12     -0.837800
      2 C7          1.1170    0.0050    0.0060 c         1 F12      0.932200
      3 O8          1.7260    0.0180    1.1100 o         1 F12     -0.837800
      4 C3          1.9330   -0.0320   -1.2590 cc        1 F12     -0.207600
      5 C4          3.3630   -0.0550   -1.2500 cc        1 F12     -0.092000
      6 C5          3.8980   -0.0870   -2.5130 cd        1 F12     -0.232100
      7 S6          2.7160   -0.0900   -3.7020 ss        1 F12     -0.065800
      8 C2          1.4360   -0.0480   -2.5640 cd        1 F12      0.073500
      9 N1          0.0810   -0.0340   -2.8590 n         1 F12     -0.423100
     10 C13        -0.4930   -0.0360   -4.1060 c         1 F12      0.644100
     11 O14         0.1660   -0.0600   -5.1710 o         1 F12     -0.648100
     12 C12        -2.0060   -0.0110   -4.1430 c3        1 F12     -0.168100
     13 H4          3.9150   -0.0460   -0.3050 ha        1 F12      0.163000
     14 H5          4.9560   -0.1080   -2.7590 h4        1 F12      0.145000
     15 HN1        -0.5090   -0.0110   -2.0320 hn        1 F12      0.383500
     16 H121       -2.3930    0.9080   -3.6410 hc        1 F12      0.057033
     17 H122       -2.4240   -0.9080   -3.6250 hc        1 F12      0.057033
     18 H123       -2.3380   -0.0150   -5.2080 hc        1 F12      0.057033
@<TRIPOS>BOND
     1    1    2 1   
     2    2    3 1   
     3    2    4 1   
     4    4    5 1   
     5    4    8 2   
     6    5    6 2   
     7    5   13 1   
     8    6    7 1   
     9    6   14 1   
    10    7    8 1   
    11    8    9 1   
    12    9   10 1   
    13    9   15 1   
    14   10   11 2   
    15   10   12 1   
    16   12   16 1   
    17   12   17 1   
    18   12   18 1   
@<TRIPOS>SUBSTRUCTURE
     1 F12         1 TEMP              0 ****  ****    0 ROOT
