@<TRIPOS>MOLECULE
F13
   32    34     1     0     0
SMALL
bcc


@<TRIPOS>ATOM
      1 F21         0.6030   -1.0100    1.2920 f         1 F13     -0.100900
      2 C16         1.7780   -0.3550    1.1760 ca        1 F13      0.146900
      3 C15         2.9850   -1.0660    1.3100 ca        1 F13     -0.095000
      4 C17         1.7940    1.0310    0.9210 ca        1 F13     -0.092000
      5 C18         3.0150    1.6900    0.7970 ca        1 F13     -0.090000
      6 C19         4.2180    1.0000    0.9340 ca        1 F13     -0.110000
      7 C14         4.2020   -0.3770    1.1990 ca        1 F13     -0.165600
      8 C13         5.4140   -1.1830    1.3390 c         1 F13      0.582700
      9 O20         5.5840   -2.3670    1.0890 o         1 F13     -0.414100
     10 N12         6.6610   -0.4880    1.8890 n4        1 F13     -0.549200
     11 C10         6.6010   -0.3370    3.3450 ca        1 F13     -0.051400
     12 C9          7.0790   -1.3690    4.1740 ca        1 F13     -0.086000
     13 C8          7.0160   -1.2060    5.5550 ca        1 F13     -0.098000
     14 C7          6.4840   -0.0440    6.1160 ca        1 F13     -0.067000
     15 C6          6.0100    0.9820    5.2880 ca        1 F13     -0.090500
     16 C11         6.0690    0.8410    3.8940 ca        1 F13     -0.067000
     17 C4          5.4300    2.2000    5.8300 cc        1 F13      0.401000
     18 N5          4.6770    3.1430    5.1690 nd        1 F13     -0.362000
     19 N1          4.3610    4.0740    6.0570 nd        1 F13     -0.026000
     20 N2          4.8390    3.8250    7.2260 nc        1 F13     -0.149800
     21 N3          5.5150    2.6720    7.1560 na        1 F13     -0.156400
     22 H15         2.9640   -2.1540    1.4950 ha        1 F13      0.183000
     23 H17         0.8420    1.5780    0.8180 ha        1 F13      0.185000
     24 H18         3.0280    2.7740    0.5880 ha        1 F13      0.175000
     25 H19         5.1560    1.5580    0.8020 ha        1 F13      0.132000
     26 HN12        7.4860   -1.0570    1.6510 hn        1 F13      0.463800
     27 H9          7.4960   -2.2990    3.7530 ha        1 F13      0.169000
     28 H8          7.3890   -2.0110    6.2130 ha        1 F13      0.179000
     29 H7          6.4360    0.0480    7.2140 ha        1 F13      0.164000
     30 H11         5.6880    1.6500    3.2450 ha        1 F13      0.179000
     31 HN3         5.9840    2.2780    7.9400 hn        1 F13      0.346700
     32 H122        6.7590    0.4380    1.4570 hn        1 F13      0.463800
@<TRIPOS>BOND
     1    1    2 1   
     2    2    3 ar  
     3    2    4 ar  
     4    3    7 ar  
     5    3   22 1   
     6    4    5 ar  
     7    4   23 1   
     8    5    6 ar  
     9    5   24 1   
    10    6    7 ar  
    11    6   25 1   
    12    7    8 1   
    13    8    9 2   
    14    8   10 1   
    15   10   11 1   
    16   10   26 1   
    17   10   32 1   
    18   11   12 ar  
    19   11   16 ar  
    20   12   13 ar  
    21   12   27 1   
    22   13   14 ar  
    23   13   28 1   
    24   14   15 ar  
    25   14   29 1   
    26   15   16 ar  
    27   15   17 1   
    28   16   30 1   
    29   17   18 2   
    30   17   21 1   
    31   18   19 1   
    32   19   20 2   
    33   20   21 1   
    34   21   31 1   
@<TRIPOS>SUBSTRUCTURE
     1 F13         1 TEMP              0 ****  ****    0 ROOT
