@<TRIPOS>MOLECULE
F13
   31    33     1     0     0
SMALL
bcc


@<TRIPOS>ATOM
      1 F21         0.2520   -1.2630   -0.2810 f         1 F13     -0.132900
      2 C16         1.4700   -0.6770   -0.2020 ca        1 F13      0.123900
      3 C15         2.0650   -0.4700    1.0550 ca        1 F13     -0.116000
      4 C17         2.1320   -0.2760   -1.3780 ca        1 F13     -0.144000
      5 C18         3.3810    0.3310   -1.2860 ca        1 F13     -0.111000
      6 C19         3.9840    0.5330   -0.0440 ca        1 F13     -0.121000
      7 C14         3.3260    0.1280    1.1210 ca        1 F13     -0.123600
      8 C13         3.9220    0.3500    2.4730 c         1 F13      0.678700
      9 O20         3.2400    0.7690    3.4230 o         1 F13     -0.564100
     10 N12         5.2750    0.0450    2.5920 ns        1 F13     -0.473100
     11 C10         6.0530    0.1480    3.7560 ca        1 F13      0.068600
     12 C9          7.2580   -0.5920    3.8340 ca        1 F13     -0.164000
     13 C8          8.0690   -0.4960    4.9580 ca        1 F13     -0.105000
     14 C7          7.7130    0.3230    6.0270 ca        1 F13     -0.140000
     15 C6          6.5240    1.0590    5.9590 ca        1 F13     -0.116500
     16 C11         5.6940    0.9830    4.8370 ca        1 F13     -0.102000
     17 C4          6.1430    1.9320    7.0600 cc        1 F13      0.449000
     18 N5          5.4930    3.1400    7.0390 nd        1 F13     -0.359000
     19 N1          5.3830    3.5380    8.3030 nd        1 F13     -0.048000
     20 N2          5.8960    2.7040    9.1350 nc        1 F13     -0.194800
     21 N3          6.3890    1.6790    8.4280 na        1 F13     -0.182400
     22 H15         1.5370   -0.7610    1.9760 ha        1 F13      0.172000
     23 H17         1.6530   -0.4400   -2.3550 ha        1 F13      0.155000
     24 H18         3.8960    0.6570   -2.2030 ha        1 F13      0.145000
     25 H19         4.9640    1.0310    0.0090 ha        1 F13      0.144000
     26 HN12        5.7150   -0.3920    1.8120 hn        1 F13      0.322500
     27 H9          7.5660   -1.2490    3.0060 ha        1 F13      0.136000
     28 H8          9.0050   -1.0740    5.0020 ha        1 F13      0.140000
     29 H7          8.3730    0.3970    6.9030 ha        1 F13      0.135000
     30 H11         4.7610    1.5740    4.8050 ha        1 F13      0.193000
     31 HN3         6.8260    0.8930    8.8470 hn        1 F13      0.333700
@<TRIPOS>BOND
     1    1    2 1   
     2    2    3 ar  
     3    2    4 ar  
     4    3    7 ar  
     5    3   22 1   
     6    4    5 ar  
     7    4   23 1   
     8    5    6 ar  
     9    5   24 1   
    10    6    7 ar  
    11    6   25 1   
    12    7    8 1   
    13    8    9 2   
    14    8   10 1   
    15   10   11 1   
    16   10   26 1   
    17   11   12 ar  
    18   11   16 ar  
    19   12   13 ar  
    20   12   27 1   
    21   13   14 ar  
    22   13   28 1   
    23   14   15 ar  
    24   14   29 1   
    25   15   16 ar  
    26   15   17 1   
    27   16   30 1   
    28   17   18 2   
    29   17   21 1   
    30   18   19 1   
    31   19   20 2   
    32   20   21 1   
    33   21   31 1   
@<TRIPOS>SUBSTRUCTURE
     1 F13         1 TEMP              0 ****  ****    0 ROOT
