@<TRIPOS>MOLECULE
F13
   31    33     1     0     0
SMALL
bcc


@<TRIPOS>ATOM
      1 F21         0.2430   -1.2230   -0.2880 f         1 F13     -0.132900
      2 C16         1.4670   -0.6500   -0.2080 ca        1 F13      0.123900
      3 C15         2.0620   -0.4460    1.0510 ca        1 F13     -0.116000
      4 C17         2.1360   -0.2600   -1.3830 ca        1 F13     -0.144000
      5 C18         3.3920    0.3330   -1.2900 ca        1 F13     -0.111000
      6 C19         3.9930    0.5330   -0.0470 ca        1 F13     -0.121000
      7 C14         3.3280    0.1390    1.1170 ca        1 F13     -0.123600
      8 C13         3.9240    0.3590    2.4710 c         1 F13      0.678700
      9 O20         3.2430    0.7870    3.4180 o         1 F13     -0.564100
     10 N12         5.2730    0.0410    2.5940 n         1 F13     -0.473100
     11 C10         6.0490    0.1380    3.7590 ca        1 F13      0.068600
     12 C9          7.2460   -0.6140    3.8430 ca        1 F13     -0.164000
     13 C8          8.0560   -0.5220    4.9690 ca        1 F13     -0.105000
     14 C7          7.7050    0.3020    6.0340 ca        1 F13     -0.140000
     15 C6          6.5230    1.0500    5.9620 ca        1 F13     -0.116500
     16 C11         5.6960    0.9790    4.8370 ca        1 F13     -0.102000
     17 C4          6.1480    1.9290    7.0590 cc        1 F13      0.449000
     18 N5          5.5110    3.1440    7.0330 nd        1 F13     -0.359000
     19 N1          5.4010    3.5460    8.2960 nd        1 F13     -0.048000
     20 N2          5.9030    2.7090    9.1310 nc        1 F13     -0.194800
     21 N3          6.3880    1.6770    8.4280 na        1 F13     -0.182400
     22 H15         1.5280   -0.7290    1.9710 ha        1 F13      0.172000
     23 H17         1.6590   -0.4220   -2.3610 ha        1 F13      0.155000
     24 H18         3.9130    0.6510   -2.2060 ha        1 F13      0.145000
     25 H19         4.9790    1.0210    0.0070 ha        1 F13      0.144000
     26 HN12        5.7100   -0.4040    1.8170 hn        1 F13      0.322500
     27 H9          7.5490   -1.2760    3.0170 ha        1 F13      0.136000
     28 H8          8.9860   -1.1100    5.0160 ha        1 F13      0.140000
     29 H7          8.3640    0.3720    6.9120 ha        1 F13      0.135000
     30 H11         4.7690    1.5800    4.8020 ha        1 F13      0.193000
     31 HN3         6.8160    0.8880    8.8510 hn        1 F13      0.333700
@<TRIPOS>BOND
     1    1    2 1   
     2    2    3 ar  
     3    2    4 ar  
     4    3    7 ar  
     5    3   22 1   
     6    4    5 ar  
     7    4   23 1   
     8    5    6 ar  
     9    5   24 1   
    10    6    7 ar  
    11    6   25 1   
    12    7    8 1   
    13    8    9 2   
    14    8   10 1   
    15   10   11 1   
    16   10   26 1   
    17   11   12 ar  
    18   11   16 ar  
    19   12   13 ar  
    20   12   27 1   
    21   13   14 ar  
    22   13   28 1   
    23   14   15 ar  
    24   14   29 1   
    25   15   16 ar  
    26   15   17 1   
    27   16   30 1   
    28   17   18 2   
    29   17   21 1   
    30   18   19 1   
    31   19   20 2   
    32   20   21 1   
    33   21   31 1   
@<TRIPOS>SUBSTRUCTURE
     1 F13         1 TEMP              0 ****  ****    0 ROOT
