@<TRIPOS>MOLECULE
F13
   31    33     1     0     0
SMALL
bcc


@<TRIPOS>ATOM
      1 F21        -5.8340    1.4260    1.4400 f         1 F13     -0.132900
      2 C16        -5.0670    0.6810    0.6100 ca        1 F13      0.123900
      3 C15        -3.6660    0.7260    0.7260 ca        1 F13     -0.116000
      4 C17        -5.6750   -0.1320   -0.3650 ca        1 F13     -0.144000
      5 C18        -4.8770   -0.8900   -1.2160 ca        1 F13     -0.111000
      6 C19        -3.4870   -0.8590   -1.1040 ca        1 F13     -0.121000
      7 C14        -2.8870   -0.0550   -0.1310 ca        1 F13     -0.123600
      8 C13        -1.4010    0.0300    0.0060 c         1 F13      0.678700
      9 O20        -0.8250    1.1180    0.1760 o         1 F13     -0.564100
     10 N12        -0.7210   -1.1820   -0.0560 n         1 F13     -0.473100
     11 C10         0.6650   -1.3670    0.0680 ca        1 F13      0.068600
     12 C9          1.1510   -2.6500    0.4180 ca        1 F13     -0.164000
     13 C8          2.5180   -2.8790    0.5230 ca        1 F13     -0.105000
     14 C7          3.4330   -1.8550    0.2920 ca        1 F13     -0.140000
     15 C6          2.9630   -0.5830   -0.0560 ca        1 F13     -0.116500
     16 C11         1.5930   -0.3290   -0.1730 ca        1 F13     -0.102000
     17 C4          3.9040    0.4960   -0.3170 cc        1 F13      0.449000
     18 N5          3.8290    1.5290   -1.2160 nd        1 F13     -0.359000
     19 N1          4.9400    2.2460   -1.0710 nd        1 F13     -0.048000
     20 N2          5.7220    1.7760   -0.1670 nc        1 F13     -0.194800
     21 N3          5.1390    0.6830    0.3440 na        1 F13     -0.182400
     22 H15        -3.1900    1.3810    1.4730 ha        1 F13      0.172000
     23 H17        -6.7720   -0.1550   -0.4480 ha        1 F13      0.155000
     24 H18        -5.3480   -1.5180   -1.9880 ha        1 F13      0.145000
     25 H19        -2.8730   -1.4520   -1.7990 ha        1 F13      0.144000
     26 HN12       -1.2690   -2.0130   -0.0780 hn        1 F13      0.322500
     27 H9          0.4520   -3.4790    0.6090 ha        1 F13      0.136000
     28 H8          2.8790   -3.8840    0.7920 ha        1 F13      0.140000
     29 H7          4.5100   -2.0580    0.3660 ha        1 F13      0.135000
     30 H11         1.2460    0.6830   -0.4500 ha        1 F13      0.193000
     31 HN3         5.5410    0.1460    1.0750 hn        1 F13      0.333700
@<TRIPOS>BOND
     1    1    2 1   
     2    2    3 ar  
     3    2    4 ar  
     4    3    7 ar  
     5    3   22 1   
     6    4    5 ar  
     7    4   23 1   
     8    5    6 ar  
     9    5   24 1   
    10    6    7 ar  
    11    6   25 1   
    12    7    8 1   
    13    8    9 2   
    14    8   10 1   
    15   10   11 1   
    16   10   26 1   
    17   11   12 ar  
    18   11   16 ar  
    19   12   13 ar  
    20   12   27 1   
    21   13   14 ar  
    22   13   28 1   
    23   14   15 ar  
    24   14   29 1   
    25   15   16 ar  
    26   15   17 1   
    27   16   30 1   
    28   17   18 2   
    29   17   21 1   
    30   18   19 1   
    31   19   20 2   
    32   20   21 1   
    33   21   31 1   
@<TRIPOS>SUBSTRUCTURE
     1 F13         1 TEMP              0 ****  ****    0 ROOT
