@<TRIPOS>MOLECULE
F13
   31    27     1     0     0
SMALL
bcc


@<TRIPOS>ATOM
      1 F21        -4.4450   -2.3730   -3.9040 f         1 F13     -0.097000
      2 C16        -3.3030   -1.6760   -3.7550 c2        1 F13      0.089000
      3 C15        -2.5850   -1.7820   -2.5830 c2        1 F13     -0.116000
      4 C17        -2.9240   -0.7280   -4.7300 c1        1 F13     -0.143000
      5 C18        -1.8460    0.0830   -4.5120 c1        1 F13     -0.115500
      6 C19        -1.1080   -0.0280   -3.3040 c1        1 F13     -0.115500
      7 C14        -1.4760   -0.9490   -2.3570 c1        1 F13     -0.103000
      8 C13        -0.6780   -1.0790   -1.0600 c2        1 F13      0.356000
      9 O20        -1.0230   -1.9530   -0.1830 o         1 F13     -0.336000
     10 N12         0.3820   -0.1310   -0.7600 n         1 F13     -0.323000
     11 C10         1.0500   -0.1770    0.5340 c2        1 F13      0.080000
     12 C9          2.0130   -1.1430    0.7750 c2        1 F13     -0.136000
     13 C8          2.7100   -1.1490    1.9830 c1        1 F13     -0.104000
     14 C7          2.4350   -0.1670    2.9630 c1        1 F13     -0.143000
     15 C6          1.4770    0.7940    2.7230 c1        1 F13     -0.005000
     16 C11         0.7740    0.7970    1.5020 c1        1 F13     -0.139000
     17 C4          1.1810    1.7300    3.6930 c1        1 F13     -0.006000
     18 N5          0.1660    1.6650    4.5610 n2        1 F13     -0.162000
     19 N1          0.2920    2.7000    5.4320 n2        1 F13     -0.035500
     20 N2          1.3770    3.3920    5.0950 n2        1 F13     -0.035500
     21 N3          1.9360    2.7960    4.0160 n2        1 F13     -0.162000
     22 H15        -2.8640   -2.4840   -1.8620 ha        1 F13      0.171000
     23 H17        -3.4520   -0.6470   -5.5930 ha        1 F13      0.156000
     24 H18        -1.5800    0.7460   -5.1950 ha        1 F13      0.144500
     25 H19        -0.3560    0.5370   -3.1520 ha        1 F13      0.144500
     26 HN12        0.5570    0.5310   -1.3250 hn        1 F13      0.239000
     27 H9          2.2040   -1.8270    0.0940 ha        1 F13      0.181000
     28 H8          3.4210   -1.8640    2.1580 ha        1 F13      0.144000
     29 H7          2.9290   -0.1700    3.8200 ha        1 F13      0.130000
     30 H11         0.0710    1.4980    1.3250 ha        1 F13      0.158000
     31 HN3         2.6630    3.0590    3.6000 DU        1 F13      0.285000
@<TRIPOS>BOND
     1    1    2 1   
     2    2    3 1   
     3    2    4 1   
     4    3    7 1   
     5    3   22 1   
     6    4   23 1   
     7    5    6 1   
     8    5   24 1   
     9    6   25 1   
    10    7    8 1   
    11    8    9 1   
    12    8   10 1   
    13   10   11 1   
    14   10   26 1   
    15   11   12 1   
    16   11   16 1   
    17   12   13 1   
    18   12   27 1   
    19   13   28 1   
    20   14   15 1   
    21   14   29 1   
    22   16   30 1   
    23   17   18 1   
    24   17   21 1   
    25   18   19 1   
    26   19   20 1   
    27   20   21 1   
@<TRIPOS>SUBSTRUCTURE
     1 F13         1 TEMP              0 ****  ****    0 ROOT
