@<TRIPOS>MOLECULE
F15
   46    44     1     0     0
SMALL
bcc


@<TRIPOS>ATOM
      1 C1          4.4640   -4.5220    6.1270 c1        1 F15      0.327000
      2 O2          5.7160   -4.3900    6.1230 os        1 F15     -0.590000
      3 O3          3.8470   -4.6340    7.2190 o         1 F15     -0.587000
      4 C4          3.7010   -4.5400    4.8210 c3        1 F15     -0.222000
      5 C5          3.3680   -3.1220    4.4120 c3        1 F15     -0.144000
      6 C6          2.1590   -1.7410    2.7580 c3        1 F15     -0.157000
      7 C7          1.4770   -1.7460    1.4080 c3        1 F15     -0.157000
      8 C8          2.6400   -3.1370    3.0860 c3        1 F15     -0.157000
      9 C9          0.9080   -0.3730    1.1250 c3        1 F15     -0.158000
     10 C10         0.3200   -0.3490   -0.2690 c3        1 F15     -0.157000
     11 C11        -0.4300    0.9490   -0.4770 c3        1 F15     -0.158000
     12 C12        -0.9370    1.0160   -1.9010 c3        1 F15     -0.157000
     13 C13        -1.8840    2.1860   -2.0450 c3        1 F15     -0.158000
     14 C2         -2.2580    2.3570   -3.5010 c3        1 F15     -0.158000
     15 C3         -3.3860    3.3580   -3.6180 c3        1 F15     -0.158000
     16 C14        -3.6830    3.6150   -5.0790 c3        1 F15     -0.159000
     17 C15        -4.8790    4.5340   -5.1970 c3        1 F15     -0.210000
     18 H22         2.8730   -5.0490    4.9340 hc        1 F15      0.058000
     19 H23         4.2490   -4.9590    4.1280 hc        1 F15      0.058000
     20 H24         4.1940   -2.6060    4.3240 hc        1 F15      0.083000
     21 H25         2.7980   -2.7110    5.0920 hc        1 F15      0.083000
     22 H26         2.9230   -1.1300    2.7350 hc        1 F15      0.076000
     23 H1          1.5260   -1.4450    3.4420 hc        1 F15      0.076000
     24 H27         2.1270   -1.9790    0.7150 hc        1 F15      0.073500
     25 H2          0.7540   -2.4050    1.4100 hc        1 F15      0.073500
     26 H28         3.2470   -3.4460    2.3840 hc        1 F15      0.065000
     27 H29         1.8730   -3.7410    3.1420 hc        1 F15      0.065000
     28 H30         1.6200    0.2950    1.1900 hc        1 F15      0.076500
     29 H31         0.2090   -0.1690    1.7770 hc        1 F15      0.076500
     30 H33         1.0390   -0.4180   -0.9280 hc        1 F15      0.076000
     31 H5         -0.2950   -1.1020   -0.3770 hc        1 F15      0.076000
     32 H34        -1.1880    0.9900    0.1410 hc        1 F15      0.077500
     33 H6          0.1700    1.7030   -0.3080 hc        1 F15      0.077500
     34 H36        -1.4070    0.1870   -2.1190 hc        1 F15      0.077000
     35 H37        -0.1810    1.1320   -2.5110 hc        1 F15      0.077000
     36 H3         -2.6920    2.0190   -1.5180 hc        1 F15      0.078000
     37 H4         -1.4480    3.0000   -1.7220 hc        1 F15      0.078000
     38 H7         -2.5460    1.4970   -3.8660 hc        1 F15      0.078000
     39 H8         -1.4820    2.6800   -4.0010 hc        1 F15      0.078000
     40 H9         -3.1250    4.1960   -3.1860 hc        1 F15      0.078000
     41 H10        -4.1850    3.0010   -3.1810 hc        1 F15      0.078000
     42 H11        -2.9070    4.0340   -5.5000 hc        1 F15      0.077000
     43 H12        -3.8790    2.7670   -5.5260 hc        1 F15      0.077000
     44 H13        -5.0250    4.7600   -6.1390 hc        1 F15      0.070000
     45 H14        -5.6730    4.0840   -4.8410 hc        1 F15      0.070000
     46 H15        -4.7120    5.3540   -4.6860 hc        1 F15      0.070000
@<TRIPOS>BOND
     1    1    3 1   
     2    1    4 1   
     3    4    5 1   
     4    4   18 1   
     5    4   19 1   
     6    5    8 1   
     7    5   20 1   
     8    5   21 1   
     9    6    7 1   
    10    6    8 1   
    11    6   22 1   
    12    6   23 1   
    13    7    9 1   
    14    7   24 1   
    15    7   25 1   
    16    8   26 1   
    17    8   27 1   
    18    9   10 1   
    19    9   28 1   
    20    9   29 1   
    21   10   11 1   
    22   10   30 1   
    23   10   31 1   
    24   11   12 1   
    25   11   32 1   
    26   11   33 1   
    27   12   13 1   
    28   12   34 1   
    29   12   35 1   
    30   13   14 1   
    31   13   36 1   
    32   13   37 1   
    33   14   15 1   
    34   14   38 1   
    35   14   39 1   
    36   15   16 1   
    37   15   40 1   
    38   15   41 1   
    39   16   17 1   
    40   16   42 1   
    41   16   43 1   
    42   17   44 1   
    43   17   45 1   
    44   17   46 1   
@<TRIPOS>SUBSTRUCTURE
     1 F15         1 TEMP              0 ****  ****    0 ROOT
