@<TRIPOS>MOLECULE
F15
   46    45     1     0     0
SMALL
bcc


@<TRIPOS>ATOM
      1 C1          0.0260    0.1210    0.0380 c         1 F15      0.907600
      2 O2          1.0360   -0.6240    0.1980 o         1 F15     -0.853800
      3 O3         -0.3660    0.9680    0.8930 o         1 F15     -0.853800
      4 C4         -0.7490    0.0010   -1.2860 c3        1 F15     -0.193400
      5 C5         -2.2380   -0.0510   -1.0470 c3        1 F15     -0.065400
      6 C6         -4.5120   -0.0550   -2.0930 c3        1 F15     -0.078400
      7 C7         -5.2960    0.0200   -3.3860 c3        1 F15     -0.078400
      8 C8         -3.0210    0.0160   -2.3420 c3        1 F15     -0.078400
      9 C9         -6.7870   -0.0510   -3.1340 c3        1 F15     -0.079400
     10 C10        -7.5690    0.0250   -4.4280 c3        1 F15     -0.078400
     11 C11        -9.0600   -0.0450   -4.1750 c3        1 F15     -0.079400
     12 C12        -9.8430    0.0300   -5.4680 c3        1 F15     -0.078400
     13 C13       -11.3340   -0.0390   -5.2140 c3        1 F15     -0.079400
     14 C2        -12.1160    0.0370   -6.5080 c3        1 F15     -0.079400
     15 C3        -13.6070   -0.0320   -6.2540 c3        1 F15     -0.079400
     16 C14       -14.3900    0.0430   -7.5470 c3        1 F15     -0.080400
     17 C15       -15.8750   -0.0250   -7.2990 c3        1 F15     -0.092100
     18 H22        -0.4090   -0.9140   -1.8330 hc        1 F15      0.018700
     19 H23        -0.4930    0.8920   -1.9140 hc        1 F15      0.018700
     20 H24        -2.4960   -0.9970   -0.5030 hc        1 F15      0.043700
     21 H25        -2.5250    0.8030   -0.3780 hc        1 F15      0.043700
     22 H26        -4.7580   -1.0120   -1.5600 hc        1 F15      0.036700
     23 H1         -4.8180    0.7860   -1.4170 hc        1 F15      0.036700
     24 H27        -5.0500    0.9770   -3.9180 hc        1 F15      0.034200
     25 H2         -4.9880   -0.8210   -4.0620 hc        1 F15      0.034200
     26 H28        -2.7120   -0.8280   -3.0140 hc        1 F15      0.025700
     27 H29        -2.7760    0.9700   -2.8790 hc        1 F15      0.025700
     28 H30        -7.0320   -1.0080   -2.6020 hc        1 F15      0.037200
     29 H31        -7.0930    0.7900   -2.4590 hc        1 F15      0.037200
     30 H33        -7.2620   -0.8170   -5.1030 hc        1 F15      0.036700
     31 H5         -7.3230    0.9810   -4.9600 hc        1 F15      0.036700
     32 H34        -9.3060   -1.0020   -3.6420 hc        1 F15      0.038200
     33 H6         -9.3670    0.7960   -3.4990 hc        1 F15      0.038200
     34 H36        -9.5960    0.9860   -6.0010 hc        1 F15      0.037700
     35 H37        -9.5360   -0.8120   -6.1430 hc        1 F15      0.037700
     36 H3        -11.6390    0.8030   -4.5400 hc        1 F15      0.038700
     37 H4        -11.5800   -0.9950   -4.6810 hc        1 F15      0.038700
     38 H7        -11.8100   -0.8060   -7.1820 hc        1 F15      0.038700
     39 H8        -11.8690    0.9920   -7.0410 hc        1 F15      0.038700
     40 H9        -13.8540   -0.9880   -5.7210 hc        1 F15      0.038700
     41 H10       -13.9130    0.8110   -5.5800 hc        1 F15      0.038700
     42 H11       -14.1400    0.9990   -8.0800 hc        1 F15      0.037700
     43 H12       -14.0820   -0.8000   -8.2200 hc        1 F15      0.037700
     44 H13       -16.2060    0.8220   -6.6500 hc        1 F15      0.030700
     45 H14       -16.4340    0.0330   -8.2650 hc        1 F15      0.030700
     46 H15       -16.1470   -0.9810   -6.7910 hc        1 F15      0.030700
@<TRIPOS>BOND
     1    1    2 1   
     2    1    3 1   
     3    1    4 1   
     4    4    5 1   
     5    4   18 1   
     6    4   19 1   
     7    5    8 1   
     8    5   20 1   
     9    5   21 1   
    10    6    7 1   
    11    6    8 1   
    12    6   22 1   
    13    6   23 1   
    14    7    9 1   
    15    7   24 1   
    16    7   25 1   
    17    8   26 1   
    18    8   27 1   
    19    9   10 1   
    20    9   28 1   
    21    9   29 1   
    22   10   11 1   
    23   10   30 1   
    24   10   31 1   
    25   11   12 1   
    26   11   32 1   
    27   11   33 1   
    28   12   13 1   
    29   12   34 1   
    30   12   35 1   
    31   13   14 1   
    32   13   36 1   
    33   13   37 1   
    34   14   15 1   
    35   14   38 1   
    36   14   39 1   
    37   15   16 1   
    38   15   40 1   
    39   15   41 1   
    40   16   17 1   
    41   16   42 1   
    42   16   43 1   
    43   17   44 1   
    44   17   45 1   
    45   17   46 1   
@<TRIPOS>SUBSTRUCTURE
     1 F15         1 TEMP              0 ****  ****    0 ROOT
