@<TRIPOS>MOLECULE
F15
   46    45     1     0     0
SMALL
bcc


@<TRIPOS>ATOM
      1 C1         -0.1780    0.0000   -7.6320 c         1 F15      0.907600
      2 O2          0.4590   -0.0000   -8.7270 o         1 F15     -0.854800
      3 O3         -1.4400    0.0000   -7.5560 o         1 F15     -0.854800
      4 C4          0.6550    0.0000   -6.3390 c3        1 F15     -0.193400
      5 C5         -0.2070   -0.0000   -5.1010 c3        1 F15     -0.062400
      6 C6         -0.2510   -0.0000   -2.5990 c3        1 F15     -0.078400
      7 C7          0.5770   -0.0000   -1.3320 c3        1 F15     -0.078400
      8 C8          0.6230   -0.0000   -3.8340 c3        1 F15     -0.079400
      9 C9         -0.2990   -0.0000   -0.0980 c3        1 F15     -0.079400
     10 C10         0.5290    0.0000    1.1690 c3        1 F15     -0.078400
     11 C11        -0.3480    0.0000    2.4020 c3        1 F15     -0.079400
     12 C12         0.4800    0.0000    3.6690 c3        1 F15     -0.078400
     13 C13        -0.3980    0.0000    4.9010 c3        1 F15     -0.079400
     14 C2          0.4310    0.0000    6.1680 c3        1 F15     -0.079400
     15 C3         -0.4470    0.0000    7.4010 c3        1 F15     -0.079400
     16 C14         0.3810   -0.0000    8.6680 c3        1 F15     -0.080400
     17 C15        -0.4890   -0.0000    9.8980 c3        1 F15     -0.092100
     18 H22         1.3170    0.9030   -6.3500 hc        1 F15      0.018700
     19 H23         1.3170   -0.9030   -6.3500 hc        1 F15      0.018700
     20 H24        -0.8780   -0.8990   -5.1210 hc        1 F15      0.044700
     21 H25        -0.8780    0.8990   -5.1210 hc        1 F15      0.044700
     22 H26        -0.9180    0.9020   -2.6130 hc        1 F15      0.036700
     23 H1         -0.9180   -0.9020   -2.6130 hc        1 F15      0.036700
     24 H27         1.2440    0.9020   -1.3190 hc        1 F15      0.033700
     25 H2          1.2440   -0.9020   -1.3190 hc        1 F15      0.033700
     26 H28         1.2900    0.9020   -3.8210 hc        1 F15      0.024700
     27 H29         1.2900   -0.9020   -3.8210 hc        1 F15      0.024700
     28 H30        -0.9660   -0.9020   -0.1110 hc        1 F15      0.037700
     29 H31        -0.9660    0.9020   -0.1110 hc        1 F15      0.037700
     30 H33         1.1960    0.9020    1.1820 hc        1 F15      0.036700
     31 H5          1.1960   -0.9020    1.1820 hc        1 F15      0.036700
     32 H34        -1.0150   -0.9020    2.3890 hc        1 F15      0.038700
     33 H6         -1.0150    0.9020    2.3890 hc        1 F15      0.038700
     34 H36         1.1470    0.9020    3.6810 hc        1 F15      0.037700
     35 H37         1.1470   -0.9020    3.6810 hc        1 F15      0.037700
     36 H3         -1.0640   -0.9020    4.8880 hc        1 F15      0.038700
     37 H4         -1.0640    0.9020    4.8880 hc        1 F15      0.038700
     38 H7          1.0980    0.9020    6.1810 hc        1 F15      0.038700
     39 H8          1.0980   -0.9020    6.1810 hc        1 F15      0.038700
     40 H9         -1.1130   -0.9020    7.3880 hc        1 F15      0.038700
     41 H10        -1.1130    0.9020    7.3880 hc        1 F15      0.038700
     42 H11         1.0480    0.9020    8.6780 hc        1 F15      0.037700
     43 H12         1.0480   -0.9020    8.6780 hc        1 F15      0.037700
     44 H13         0.1410    0.0000   10.8200 hc        1 F15      0.030700
     45 H14        -1.1430    0.9050    9.9180 hc        1 F15      0.030700
     46 H15        -1.1430   -0.9050    9.9180 hc        1 F15      0.030700
@<TRIPOS>BOND
     1    1    2 1   
     2    1    3 1   
     3    1    4 1   
     4    4    5 1   
     5    4   18 1   
     6    4   19 1   
     7    5    8 1   
     8    5   20 1   
     9    5   21 1   
    10    6    7 1   
    11    6    8 1   
    12    6   22 1   
    13    6   23 1   
    14    7    9 1   
    15    7   24 1   
    16    7   25 1   
    17    8   26 1   
    18    8   27 1   
    19    9   10 1   
    20    9   28 1   
    21    9   29 1   
    22   10   11 1   
    23   10   30 1   
    24   10   31 1   
    25   11   12 1   
    26   11   32 1   
    27   11   33 1   
    28   12   13 1   
    29   12   34 1   
    30   12   35 1   
    31   13   14 1   
    32   13   36 1   
    33   13   37 1   
    34   14   15 1   
    35   14   38 1   
    36   14   39 1   
    37   15   16 1   
    38   15   40 1   
    39   15   41 1   
    40   16   17 1   
    41   16   42 1   
    42   16   43 1   
    43   17   44 1   
    44   17   45 1   
    45   17   46 1   
@<TRIPOS>SUBSTRUCTURE
     1 F15         1 TEMP              0 ****  ****    0 ROOT
