@<TRIPOS>MOLECULE
F16
   22    23     1     0     0
SMALL
bcc


@<TRIPOS>ATOM
      1 C1          0.0210   -0.0470   -0.0000 ce        1 F16     -0.210300
      2 C3          1.3060   -0.4510   -0.0640 cf        1 F16     -0.101200
      3 C4          2.0060   -0.3460    1.2680 c         1 F16      0.684700
      4 N5          1.0990    0.1540    2.2160 n         1 F16     -0.686300
      5 S6         -0.4050    0.4890    1.6060 sy        1 F16      1.479500
      6 O7         -0.6600    1.8570    1.6310 o         1 F16     -0.622300
      7 O8         -1.3790   -0.3380    2.1630 o         1 F16     -0.622300
      8 O9          3.1780   -0.6480    1.4980 o         1 F16     -0.543500
      9 C10        -0.9070   -0.0470   -1.1110 ca        1 F16     -0.006800
     10 C11        -2.2400   -0.4380   -0.9150 ca        1 F16     -0.151000
     11 C12        -3.1310   -0.4460   -1.9890 ca        1 F16     -0.092000
     12 C13        -2.7190   -0.0640   -3.2610 ca        1 F16     -0.137000
     13 C14        -1.3820    0.3290   -3.4510 ca        1 F16      0.125100
     14 C15        -0.4730    0.3350   -2.3870 ca        1 F16     -0.187000
     15 O1         -1.0300    0.6940   -4.7300 oh        1 F16     -0.493100
     16 H3          1.8610   -0.8360   -0.9240 ha        1 F16      0.184000
     17 H5          1.4130    0.2720    3.1470 hn        1 F16      0.361500
     18 H11        -2.5840   -0.7520    0.0840 ha        1 F16      0.159000
     19 H12        -4.1740   -0.7580   -1.8250 ha        1 F16      0.145000
     20 H13        -3.4120   -0.0610   -4.1140 ha        1 F16      0.157000
     21 H15         0.5700    0.6450   -2.5470 ha        1 F16      0.137000
     22 H1         -0.1010    0.9690   -4.7190 ho        1 F16      0.422000
@<TRIPOS>BOND
     1    1    2 2   
     2    1    5 1   
     3    1    9 1   
     4    2    3 1   
     5    2   16 1   
     6    3    4 1   
     7    3    8 2   
     8    4    5 1   
     9    4   17 1   
    10    5    6 2   
    11    5    7 2   
    12    9   10 ar  
    13    9   14 ar  
    14   10   11 ar  
    15   10   18 1   
    16   11   12 ar  
    17   11   19 1   
    18   12   13 ar  
    19   12   20 1   
    20   13   14 ar  
    21   13   15 1   
    22   14   21 1   
    23   15   22 1   
@<TRIPOS>SUBSTRUCTURE
     1 F16         1 TEMP              0 ****  ****    0 ROOT
