@<TRIPOS>MOLECULE
F16
   22    23     1     0     0
SMALL
bcc


@<TRIPOS>ATOM
      1 C1          0.0620   -0.0510    0.0400 ce        1 F16     -0.212300
      2 C3          1.3450   -0.4640   -0.0020 cf        1 F16     -0.097200
      3 C4          2.0150   -0.3840    1.3470 c         1 F16      0.683700
      4 N5          1.0910    0.1100    2.2820 n         1 F16     -0.687300
      5 S6         -0.3960    0.4640    1.6440 sy        1 F16      1.479500
      6 O7         -0.6450    1.8330    1.6860 o         1 F16     -0.623300
      7 O8         -1.3880   -0.3650    2.1670 o         1 F16     -0.623300
      8 O9          3.1780   -0.7020    1.6000 o         1 F16     -0.542500
      9 C10        -0.8390   -0.0260   -1.0930 ca        1 F16     -0.009800
     10 C11        -2.1910   -0.3730   -0.9260 ca        1 F16     -0.154000
     11 C12        -3.0560   -0.3550   -2.0170 ca        1 F16     -0.085000
     12 C13        -2.5980    0.0070   -3.2820 ca        1 F16     -0.196000
     13 C14        -1.2490    0.3510   -3.4450 ca        1 F16      0.125100
     14 C15        -0.3610    0.3340   -2.3570 ca        1 F16     -0.129000
     15 O1         -0.7140    0.7160   -4.6590 oh        1 F16     -0.495100
     16 H3          1.9160   -0.8370   -0.8570 ha        1 F16      0.187000
     17 H5          1.3850    0.2120    3.2210 hn        1 F16      0.361500
     18 H11        -2.5660   -0.6730    0.0670 ha        1 F16      0.159000
     19 H12        -4.1130   -0.6300   -1.8780 ha        1 F16      0.143000
     20 H13        -3.2840    0.0250   -4.1400 ha        1 F16      0.140000
     21 H15         0.6910    0.6120   -2.5100 ha        1 F16      0.154000
     22 H1         -1.4260    0.7040   -5.3150 ho        1 F16      0.423000
@<TRIPOS>BOND
     1    1    2 2   
     2    1    5 1   
     3    1    9 1   
     4    2    3 1   
     5    2   16 1   
     6    3    4 1   
     7    3    8 2   
     8    4    5 1   
     9    4   17 1   
    10    5    6 2   
    11    5    7 2   
    12    9   10 ar  
    13    9   14 ar  
    14   10   11 ar  
    15   10   18 1   
    16   11   12 ar  
    17   11   19 1   
    18   12   13 ar  
    19   12   20 1   
    20   13   14 ar  
    21   13   15 1   
    22   14   21 1   
    23   15   22 1   
@<TRIPOS>SUBSTRUCTURE
     1 F16         1 TEMP              0 ****  ****    0 ROOT
