@<TRIPOS>MOLECULE
F16
   22    23     1     0     0
SMALL
bcc


@<TRIPOS>ATOM
      1 C1         -0.4550    0.2560    0.0360 ce        1 F16     -0.213300
      2 C3         -1.0050    1.4230    0.4290 cf        1 F16     -0.097200
      3 C4         -2.5110    1.4010    0.3510 c         1 F16      0.683700
      4 N5         -2.9200    0.1420   -0.1210 n         1 F16     -0.687300
      5 S6         -1.6720   -0.8930   -0.4580 sy        1 F16      1.479500
      6 O7         -1.5960   -1.1590   -1.8230 o         1 F16     -0.623300
      7 O8         -1.6820   -2.0000    0.3900 o         1 F16     -0.623300
      8 O9         -3.2680    2.3250    0.6520 o         1 F16     -0.542500
      9 C10         0.9640   -0.0270    0.0160 ca        1 F16     -0.009800
     10 C11         1.4350   -1.2990    0.3860 ca        1 F16     -0.154000
     11 C12         2.8000   -1.5690    0.3720 ca        1 F16     -0.085000
     12 C13         3.7150   -0.5890   -0.0090 ca        1 F16     -0.196000
     13 C14         3.2430    0.6780   -0.3760 ca        1 F16      0.125100
     14 C15         1.8700    0.9700   -0.3630 ca        1 F16     -0.129000
     15 O1          4.0770    1.7030   -0.7600 oh        1 F16     -0.495100
     16 H3         -0.5060    2.3290    0.7860 ha        1 F16      0.187000
     17 H5         -3.8890   -0.0280   -0.2210 hn        1 F16      0.361500
     18 H11         0.7240   -2.0810    0.7010 ha        1 F16      0.159000
     19 H12         3.1610   -2.5670    0.6650 ha        1 F16      0.143000
     20 H13         4.7930   -0.8060   -0.0230 ha        1 F16      0.140000
     21 H15         1.5240    1.9710   -0.6600 ha        1 F16      0.154000
     22 H1          4.9870    1.3700   -0.7430 ho        1 F16      0.423000
@<TRIPOS>BOND
     1    1    2 2   
     2    1    5 1   
     3    1    9 1   
     4    2    3 1   
     5    2   16 1   
     6    3    4 1   
     7    3    8 2   
     8    4    5 1   
     9    4   17 1   
    10    5    6 2   
    11    5    7 2   
    12    9   10 ar  
    13    9   14 ar  
    14   10   11 ar  
    15   10   18 1   
    16   11   12 ar  
    17   11   19 1   
    18   12   13 ar  
    19   12   20 1   
    20   13   14 ar  
    21   13   15 1   
    22   14   21 1   
    23   15   22 1   
@<TRIPOS>SUBSTRUCTURE
     1 F16         1 TEMP              0 ****  ****    0 ROOT
