@<TRIPOS>MOLECULE
F16
   22    19     1     0     0
SMALL
bcc


@<TRIPOS>ATOM
      1 C1          0.6430    0.2790    0.9530 c1        1 F16     -0.674000
      2 C3          0.4820   -0.2820    2.1610 c1        1 F16     -0.079000
      3 C4          0.7430    0.6580    3.3560 c1        1 F16      0.323000
      4 N5          1.1440    2.0790    2.6840 n3        1 F16     -0.865000
      5 S6          1.0760    1.8190    0.9860 s4        1 F16      2.036800
      6 O7          2.3440    2.0430    0.3480 o         1 F16     -0.508900
      7 O8          0.0670    2.6450    0.3840 o         1 F16     -0.508900
      8 O9          0.3530    0.4910    4.4940 o         1 F16     -0.269000
      9 C10        -0.1020   -0.2720   -0.2420 c2        1 F16      0.002000
     10 C11        -1.4880   -0.2680   -0.2560 c1        1 F16     -0.137000
     11 C12        -2.1720   -0.8070   -1.3350 c1        1 F16     -0.143500
     12 C13        -1.4700   -1.3500   -2.3990 c1        1 F16     -0.143500
     13 C14        -0.0840   -1.3540   -2.3850 c1        1 F16      0.087000
     14 C15         0.6000   -0.8150   -1.3060 c2        1 F16     -0.148000
     15 O1          0.6290   -1.9280   -3.4540 oh        1 F16     -0.243000
     16 H3          0.5820   -1.2470    2.2690 ha        1 F16      0.185000
     17 H5          1.3610    2.8520    3.1160 hn        1 F16      0.275000
     18 H11        -1.9830    0.1140    0.4930 ha        1 F16      0.137000
     19 H12        -3.1480   -0.8040   -1.3450 ha        1 F16      0.139500
     20 H13        -1.9510   -1.7300   -3.1590 ha        1 F16      0.139500
     21 H15         1.5760   -0.8180   -1.2970 ha        1 F16      0.175000
     22 H1          0.7970   -1.3060   -4.0660 ho        1 F16      0.221000
@<TRIPOS>BOND
     1    1    2 1   
     2    1    9 1   
     3    2   16 1   
     4    3    4 1   
     5    3    8 1   
     6    4    5 1   
     7    4   17 1   
     8    5    6 1   
     9    5    7 1   
    10    9   10 1   
    11    9   14 1   
    12   10   18 1   
    13   11   12 1   
    14   11   19 1   
    15   12   20 1   
    16   13   14 1   
    17   13   15 1   
    18   14   21 1   
    19   15   22 1   
@<TRIPOS>SUBSTRUCTURE
     1 F16         1 TEMP              0 ****  ****    0 ROOT
