@<TRIPOS>MOLECULE
F18
   28    29     1     0     0
SMALL
bcc


@<TRIPOS>ATOM
      1 C3         -0.5370    0.8340    0.1070 ca        1 F18      0.231100
      2 C6          0.5160   -0.0850   -0.1130 ca        1 F18     -0.195000
      3 C2          1.3030   -0.4910    0.9470 ca        1 F18     -0.048000
      4 O3         -1.3530    1.2810   -0.8760 oh        1 F18     -0.434100
      5 C5          1.0650   -0.0040    2.2580 ca        1 F18     -0.110600
      6 C4          0.0160    0.9380    2.4580 ca        1 F18     -0.048000
      7 C1         -0.7850    1.3350    1.4040 ca        1 F18     -0.195000
      8 N9          1.8870   -0.2690    3.3730 ne        1 F18     -0.015400
      9 N13         2.6730   -1.1540    3.6150 nf        1 F18     -0.212400
     10 C14         3.0220   -2.3290    2.9160 cd        1 F18      0.070100
     11 C19         4.3430   -2.8730    2.8910 cc        1 F18     -0.110700
     12 N16         5.5370   -2.2500    3.4030 n4        1 F18     -0.670000
     13 N20         4.2530   -4.1640    2.3110 na        1 F18      0.075400
     14 N17         3.0270   -4.4780    1.9980 nc        1 F18     -0.347800
     15 C15         2.2190   -3.4020    2.3450 cd        1 F18      0.294200
     16 N18         0.7820   -3.3890    2.2020 n4        1 F18     -0.784300
     17 H6          0.7250   -0.4410   -1.1350 ha        1 F18      0.187000
     18 H2          2.1670   -1.1450    0.7440 ha        1 F18      0.157500
     19 H3         -1.0580    0.9380   -1.7380 ho        1 F18      0.458000
     20 H4         -0.1640    1.3610    3.4660 ha        1 F18      0.157500
     21 H1         -1.6050    2.0610    1.5520 ha        1 F18      0.187000
     22 H161        5.2570   -1.4910    4.0540 hn        1 F18      0.495467
     23 H162        6.0900   -1.8440    2.6310 hn        1 F18      0.495467
     24 H20         4.9990   -4.8200    2.1320 hn        1 F18      0.392700
     25 H181        0.4870   -2.4640    1.8370 hn        1 F18      0.491133
     26 H182        0.3480   -3.5520    3.1250 hn        1 F18      0.491133
     27 H163        6.1200   -2.9260    3.9210 hn        1 F18      0.495467
     28 H183        0.4680   -4.1290    1.5530 hn        1 F18      0.491133
@<TRIPOS>BOND
     1    1    2 ar  
     2    1    4 1   
     3    1    7 ar  
     4    2    3 ar  
     5    2   17 1   
     6    3    5 ar  
     7    3   18 1   
     8    4   19 1   
     9    5    6 ar  
    10    5    8 1   
    11    6    7 ar  
    12    6   20 1   
    13    7   21 1   
    14    8    9 2   
    15    9   10 1   
    16   10   11 2   
    17   10   15 1   
    18   11   12 1   
    19   11   13 1   
    20   12   22 1   
    21   12   23 1   
    22   12   27 1   
    23   13   14 1   
    24   13   24 1   
    25   14   15 2   
    26   15   16 1   
    27   16   25 1   
    28   16   26 1   
    29   16   28 1   
@<TRIPOS>SUBSTRUCTURE
     1 F18         1 TEMP              0 ****  ****    0 ROOT
