@<TRIPOS>MOLECULE
F18
   26    27     1     0     0
SMALL
bcc


@<TRIPOS>ATOM
      1 C3          3.5260    0.2190   -0.2410 ca        1 F18      0.128100
      2 C6          2.4850    0.8050   -0.9730 ca        1 F18     -0.188000
      3 C2          1.2400    0.1860   -1.0080 ca        1 F18     -0.082500
      4 O3          4.7800    0.7760   -0.1530 oh        1 F18     -0.493100
      5 C5          1.0200   -1.0260   -0.3260 ca        1 F18      0.006400
      6 C4          2.0820   -1.6030    0.4040 ca        1 F18     -0.082500
      7 C1          3.3250   -0.9860    0.4530 ca        1 F18     -0.188000
      8 N9         -0.2020   -1.7720   -0.4640 ne        1 F18     -0.164400
      9 N13        -1.3470   -1.4180   -0.3230 nf        1 F18     -0.100400
     10 C14        -1.9000   -0.1920    0.0650 cd        1 F18     -0.232900
     11 C19        -3.1980    0.2350   -0.3650 cc        1 F18      0.179300
     12 N16        -3.9860   -0.3280   -1.3500 nh        1 F18     -0.796200
     13 N20        -3.5150    1.3830    0.3970 na        1 F18     -0.029600
     14 N17        -2.4830    1.7750    1.1690 nc        1 F18     -0.597800
     15 C15        -1.5010    0.8200    1.0620 cd        1 F18      0.577200
     16 N18        -0.3760    0.7320    1.8700 nh        1 F18     -0.901500
     17 H6          2.6510    1.7450   -1.5180 ha        1 F18      0.147000
     18 H2          0.4260    0.6490   -1.5900 ha        1 F18      0.150000
     19 H3          4.7920    1.5740   -0.7020 ho        1 F18      0.421000
     20 H4          1.9300   -2.5540    0.9390 ha        1 F18      0.150000
     21 H1          4.1550   -1.4290    1.0220 ha        1 F18      0.147000
     22 H161       -3.8140   -1.3030   -1.4880 hn        1 F18      0.417300
     23 H162       -4.9510   -0.0840   -1.3350 hn        1 F18      0.417300
     24 H20        -4.1370    2.0960    0.0830 hn        1 F18      0.307700
     25 H181        0.4340    0.3900    1.3990 hn        1 F18      0.405300
     26 H182       -0.1970    1.5380    2.4290 hn        1 F18      0.405300
@<TRIPOS>BOND
     1    1    2 ar  
     2    1    4 1   
     3    1    7 ar  
     4    2    3 ar  
     5    2   17 1   
     6    3    5 ar  
     7    3   18 1   
     8    4   19 1   
     9    5    6 ar  
    10    5    8 1   
    11    6    7 ar  
    12    6   20 1   
    13    7   21 1   
    14    8    9 2   
    15    9   10 1   
    16   10   11 2   
    17   10   15 1   
    18   11   12 1   
    19   11   13 1   
    20   12   22 1   
    21   12   23 1   
    22   13   14 1   
    23   13   24 1   
    24   14   15 2   
    25   15   16 1   
    26   16   25 1   
    27   16   26 1   
@<TRIPOS>SUBSTRUCTURE
     1 F18         1 TEMP              0 ****  ****    0 ROOT
