@<TRIPOS>MOLECULE
F18
   26    27     1     0     0
SMALL
bcc


@<TRIPOS>ATOM
      1 C3         -0.5900    0.6290    0.1460 ca        1 F18      0.128100
      2 C6          0.7060    0.1940   -0.1620 ca        1 F18     -0.188000
      3 C2          1.5910   -0.1030    0.8690 ca        1 F18     -0.082500
      4 O3         -1.5220    0.9320   -0.8180 oh        1 F18     -0.493100
      5 C5          1.2010    0.0390    2.2140 ca        1 F18      0.006400
      6 C4         -0.1070    0.4810    2.5050 ca        1 F18     -0.082500
      7 C1         -1.0010    0.7690    1.4830 ca        1 F18     -0.188000
      8 N9          2.1320   -0.1090    3.3010 ne        1 F18     -0.164400
      9 N13         2.8890   -1.0150    3.5570 nf        1 F18     -0.100400
     10 C14         3.1040   -2.2500    2.9340 cd        1 F18     -0.232900
     11 C19         4.3670   -2.9240    2.9820 cc        1 F18      0.179300
     12 N16         5.5760   -2.4150    3.4140 nh        1 F18     -0.796200
     13 N20         4.1500   -4.2200    2.4610 na        1 F18     -0.029600
     14 N17         2.8980   -4.3670    1.9850 nc        1 F18     -0.597800
     15 C15         2.1980   -3.2300    2.3050 cd        1 F18      0.577200
     16 N18         0.8230   -3.0780    2.1960 nh        1 F18     -0.901500
     17 H6          1.0230    0.0920   -1.2090 ha        1 F18      0.147000
     18 H2          2.6110   -0.4390    0.6210 ha        1 F18      0.150000
     19 H3         -1.1020    0.8310   -1.6840 ho        1 F18      0.421000
     20 H4         -0.4280    0.6030    3.5530 ha        1 F18      0.150000
     21 H1         -2.0230    1.1110    1.7020 ha        1 F18      0.147000
     22 H161        5.4810   -1.6830    4.0880 hn        1 F18      0.417300
     23 H162        6.2820   -3.0830    3.6350 hn        1 F18      0.417300
     24 H20         4.8630   -4.7640    2.0260 hn        1 F18      0.307700
     25 H181        0.3620   -3.7870    1.6660 hn        1 F18      0.405300
     26 H182        0.5370   -2.1540    1.9500 hn        1 F18      0.405300
@<TRIPOS>BOND
     1    1    2 ar  
     2    1    4 1   
     3    1    7 ar  
     4    2    3 ar  
     5    2   17 1   
     6    3    5 ar  
     7    3   18 1   
     8    4   19 1   
     9    5    6 ar  
    10    5    8 1   
    11    6    7 ar  
    12    6   20 1   
    13    7   21 1   
    14    8    9 2   
    15    9   10 1   
    16   10   11 2   
    17   10   15 1   
    18   11   12 1   
    19   11   13 1   
    20   12   22 1   
    21   12   23 1   
    22   13   14 1   
    23   13   24 1   
    24   14   15 2   
    25   15   16 1   
    26   16   25 1   
    27   16   26 1   
@<TRIPOS>SUBSTRUCTURE
     1 F18         1 TEMP              0 ****  ****    0 ROOT
