@<TRIPOS>MOLECULE
F18
   26    20     1     0     0
SMALL
bcc


@<TRIPOS>ATOM
      1 C3         -2.5470    0.1100   -1.5170 c1        1 F18      0.087000
      2 C6         -1.6620    1.1620   -1.3500 c1        1 F18     -0.137000
      3 C2         -0.9360    1.2770   -0.1750 c1        1 F18     -0.137000
      4 O3         -3.3390    0.0340   -2.6800 oh        1 F18     -0.250000
      5 C5         -1.0950    0.3380    0.8340 c1        1 F18     -0.141000
      6 C4         -1.9800   -0.7140    0.6660 c1        1 F18     -0.068000
      7 C1         -2.7060   -0.8290   -0.5090 c1        1 F18     -0.167000
      8 N9         -0.4320    0.5150    2.0780 n2        1 F18     -0.030000
      9 N13         0.7850    0.2930    2.1700 n1        1 F18      0.026000
     10 C14         1.5160   -0.1380    1.0310 c1        1 F18     -0.314000
     11 C19         2.3930    0.6190    0.3080 c1        1 F18      0.094000
     12 N16         2.7120    1.9810    0.5460 n2        1 F18     -0.307000
     13 N20         2.9570   -0.1750   -0.6260 n2        1 F18     -0.171000
     14 N17         2.4310   -1.4350   -0.4870 n2        1 F18     -0.171000
     15 C15         1.5450   -1.4080    0.5320 c1        1 F18      0.094000
     16 N18         0.8220   -2.5200    1.0380 n2        1 F18     -0.307000
     17 H6         -1.5500    1.8240   -2.0600 ha        1 F18      0.142500
     18 H2         -0.3130    2.0180   -0.0570 ha        1 F18      0.142500
     19 H3         -3.5980    0.8510   -2.9160 ho        1 F18      0.220000
     20 H4         -2.0930   -1.3760    1.3760 ha        1 F18      0.147000
     21 H1         -3.3300   -1.5710   -0.6270 ha        1 F18      0.153000
     22 H161        2.3040    2.4330    1.2300 hn        1 F18      0.209750
     23 H162        3.3400    2.3990    0.0320 hn        1 F18      0.209750
     24 H20         3.5800    0.0800   -1.2430 DU        1 F18      0.255000
     25 H181        0.5500   -3.1850    0.4720 hn        1 F18      0.209750
     26 H182        0.6470   -2.5830    1.9330 hn        1 F18      0.209750
@<TRIPOS>BOND
     1    1    4 1   
     2    1    7 1   
     3    2    3 1   
     4    2   17 1   
     5    3   18 1   
     6    4   19 1   
     7    5    6 1   
     8    5    8 1   
     9    6   20 1   
    10    7   21 1   
    11    8    9 1   
    12   10   11 1   
    13   10   15 1   
    14   11   13 1   
    15   12   22 1   
    16   12   23 1   
    17   13   14 1   
    18   14   15 1   
    19   16   25 1   
    20   16   26 1   
@<TRIPOS>SUBSTRUCTURE
     1 F18         1 TEMP              0 ****  ****    0 ROOT
