@<TRIPOS>MOLECULE
F18
   26    27     1     0     0
SMALL
bcc


@<TRIPOS>ATOM
      1 C3         -0.6090    0.6160    0.1560 ca        1 F18      0.128100
      2 C6          0.6890    0.1910   -0.1560 ca        1 F18     -0.188000
      3 C2          1.5800   -0.1020    0.8720 ca        1 F18     -0.082500
      4 O3         -1.5460    0.9140   -0.8050 oh        1 F18     -0.493100
      5 C5          1.1920    0.0350    2.2180 ca        1 F18      0.006400
      6 C4         -0.1190    0.4660    2.5130 ca        1 F18     -0.082500
      7 C1         -1.0170    0.7500    1.4940 ca        1 F18     -0.188000
      8 N9          2.1260   -0.1090    3.3030 ne        1 F18     -0.164400
      9 N13         2.8910   -1.0090    3.5550 nf        1 F18     -0.100400
     10 C14         3.1140   -2.2420    2.9280 cd        1 F18     -0.232900
     11 C19         4.3820   -2.9060    2.9710 cc        1 F18      0.179300
     12 N16         5.5880   -2.3890    3.4020 nv        1 F18     -0.796200
     13 N20         4.1730   -4.2030    2.4490 na        1 F18     -0.029600
     14 N17         2.9220   -4.3580    1.9750 nc        1 F18     -0.597800
     15 C15         2.2130   -3.2270    2.2990 cd        1 F18      0.577200
     16 N18         0.8370   -3.0850    2.1940 nv        1 F18     -0.901500
     17 H6          1.0050    0.0940   -1.2050 ha        1 F18      0.147000
     18 H2          2.6010   -0.4290    0.6200 ha        1 F18      0.150000
     19 H3         -1.1260    0.8170   -1.6730 ho        1 F18      0.421000
     20 H4         -0.4380    0.5830    3.5620 ha        1 F18      0.150000
     21 H1         -2.0410    1.0830    1.7160 ha        1 F18      0.147000
     22 H161        5.4900   -1.6600    4.0780 hn        1 F18      0.417300
     23 H162        6.2990   -3.0520    3.6190 hn        1 F18      0.417300
     24 H20         4.8900   -4.7400    2.0100 hn        1 F18      0.307700
     25 H181        0.5430   -2.1630    1.9510 hn        1 F18      0.405300
     26 H182        0.3810   -3.7970    1.6640 hn        1 F18      0.405300
@<TRIPOS>BOND
     1    1    2 ar  
     2    1    4 1   
     3    1    7 ar  
     4    2    3 ar  
     5    2   17 1   
     6    3    5 ar  
     7    3   18 1   
     8    4   19 1   
     9    5    6 ar  
    10    5    8 1   
    11    6    7 ar  
    12    6   20 1   
    13    7   21 1   
    14    8    9 2   
    15    9   10 1   
    16   10   11 2   
    17   10   15 1   
    18   11   12 1   
    19   11   13 1   
    20   12   22 1   
    21   12   23 1   
    22   13   14 1   
    23   13   24 1   
    24   14   15 2   
    25   15   16 1   
    26   16   25 1   
    27   16   26 1   
@<TRIPOS>SUBSTRUCTURE
     1 F18         1 TEMP              0 ****  ****    0 ROOT
