@<TRIPOS>MOLECULE
F19
   33    29     1     0     0
SMALL
bcc


@<TRIPOS>ATOM
      1 C1         -2.8200   -0.8410   -1.7830 c1        1 F19     -0.077500
      2 C2         -1.4310   -0.8690   -1.7800 c1        1 F19     -0.027000
      3 C3         -0.7390   -0.9020   -0.5730 c1        1 F19     -0.803000
      4 C4         -1.4350   -0.9070    0.6280 c1        1 F19     -0.077500
      5 C5         -2.8430   -0.8780    0.6260 c1        1 F19     -0.047000
      6 C6         -3.5270   -0.8460   -0.5660 c1        1 F19     -0.047000
      7 C7         -4.9350   -0.8110   -0.5680 c2        1 F19     -0.106500
      8 C8         -5.6310   -0.8100    0.6340 c1        1 F19     -0.160500
      9 C9         -4.9380   -0.8430    1.8400 c1        1 F19     -0.160500
     10 C10        -3.5500   -0.8770    1.8430 c2        1 F19     -0.106500
     11 S11         1.0090   -1.1270   -0.7720 s4        1 F19      2.049800
     12 O12         1.4450   -2.3660   -0.1900 o         1 F19     -0.579400
     13 O13         1.3550   -1.3310   -2.1520 o         1 F19     -0.579400
     14 C16         4.0150    1.0500    0.2280 c3        1 F19      0.083000
     15 O17         4.8400    2.0620   -0.3010 os        1 F19     -0.715000
     16 C18         2.9730    0.6610   -0.7980 c3        1 F19     -0.081000
     17 N1          1.8230    0.1500   -0.1360 n2        1 F19     -0.881000
     18 O20         5.0970    3.3980    1.8260 o         1 F19     -0.927500
     19 O21         6.8570    1.7900    1.1920 o         1 F19     -0.927500
     20 P           5.8540    2.7910    0.6690 p5        1 F19      1.563500
     21 O22         6.5780    3.8800   -0.0860 o         1 F19     -0.927500
     22 H1         -3.3060   -0.8400   -2.6300 ha        1 F19      0.156000
     23 H2         -0.9410   -0.8660   -2.6240 ha        1 F19      0.289000
     24 H4         -0.9490   -0.9300    1.4740 ha        1 F19      0.156000
     25 H7         -5.4210   -0.8040   -1.4140 ha        1 F19      0.124000
     26 H8         -6.6070   -0.7860    0.6320 ha        1 F19      0.106000
     27 H9         -5.4290   -0.8590    2.6840 ha        1 F19      0.106000
     28 H10        -3.0640   -0.9000    2.6900 ha        1 F19      0.124000
     29 H161        4.5600    0.2680    0.4520 h1        1 F19      0.029000
     30 H162        3.5700    1.3800    1.0360 h1        1 F19      0.029000
     31 H181        2.7230    1.4490   -1.3250 h1        1 F19      0.089000
     32 H182        3.3400   -0.0260   -1.3930 h1        1 F19      0.089000
     33 HA          1.5300    0.5390    0.6350 hn        1 F19      0.239000
@<TRIPOS>BOND
     1    1    6 1   
     2    1   22 1   
     3    2    3 1   
     4    2   23 1   
     5    3   11 1   
     6    4    5 1   
     7    4   24 1   
     8    5   10 1   
     9    6    7 1   
    10    7    8 1   
    11    7   25 1   
    12    8   26 1   
    13    9   10 1   
    14    9   27 1   
    15   10   28 1   
    16   11   12 1   
    17   11   13 1   
    18   14   15 1   
    19   14   16 1   
    20   14   29 1   
    21   14   30 1   
    22   15   20 1   
    23   16   17 1   
    24   16   31 1   
    25   16   32 1   
    26   17   33 1   
    27   18   20 1   
    28   19   20 1   
    29   20   21 1   
@<TRIPOS>SUBSTRUCTURE
     1 F19         1 TEMP              0 ****  ****    0 ROOT
