@<TRIPOS>MOLECULE
F19
   34    35     1     0     0
SMALL
bcc


@<TRIPOS>ATOM
      1 C1          0.0000    0.0000    0.0000 ca        1 F19     -0.109000
      2 C2          1.4000    0.0000    0.0000 ca        1 F19     -0.045000
      3 C3          2.1520    0.0000    1.2400 ca        1 F19     -0.084500
      4 C4          1.4560   -0.3400    2.4240 ca        1 F19      0.043000
      5 C5          0.0040   -0.3260    2.4850 ca        1 F19     -0.065000
      6 C6         -0.7360   -0.1680    1.2390 ca        1 F19     -0.010000
      7 C7         -2.1690   -0.1800    1.2310 ca        1 F19     -0.097000
      8 C8         -2.8490   -0.4920    2.6150 ca        1 F19     -0.088000
      9 C9         -2.1320   -0.7990    3.8200 ca        1 F19     -0.121000
     10 C10        -0.7150   -0.4450    3.7400 ca        1 F19     -0.053000
     11 S11         3.9100    0.4010    1.2420 sy        1 F19      0.596200
     12 O12         4.2450    0.8450    2.5970 o         1 F19     -0.567800
     13 O13         4.6350   -0.7800    0.8380 o         1 F19     -0.567800
     14 C16         4.2510    4.0000   -0.0190 c3        1 F19      0.276400
     15 O17         3.4260    5.0980    0.3350 os        1 F19     -0.483200
     16 C18         3.4150    2.7390   -0.0750 c3        1 F19      0.043800
     17 N1          4.2860    1.5780    0.0740 ny        1 F19     -0.200900
     18 O20         5.0900    7.1480    0.0340 o         1 F19     -0.585500
     19 O21         3.7790    6.3700   -1.7340 o         1 F19     -0.585500
     20 P           3.8320    6.5640   -0.2390 p5        1 F19      0.930900
     21 O22         2.7840    7.4870    0.1840 o         1 F19     -0.585500
     22 H1         -0.5340    0.0010   -0.9430 ha        1 F19      0.104000
     23 H2          1.9310   -0.0050   -0.9440 ha        1 F19      0.092000
     24 H4          2.0070   -0.3510    3.3560 ha        1 F19      0.117000
     25 H7         -2.7050   -0.3730    0.3090 ha        1 F19      0.113000
     26 H8         -3.9320   -0.4730    2.6620 ha        1 F19      0.086000
     27 H9         -2.6430   -0.7780    4.7750 ha        1 F19      0.112000
     28 H10        -0.1170   -0.6330    4.6240 ha        1 F19      0.092000
     29 H161        4.6970    4.1810   -0.9900 h1        1 F19     -0.017300
     30 H162        5.0330    3.8830    0.7210 h1        1 F19     -0.017300
     31 H181        2.6870    2.7520    0.7270 hx        1 F19      0.051200
     32 H182        2.9020    2.6870   -1.0280 hx        1 F19      0.051200
     33 HA          5.2050    1.9180    0.2790 hn        1 F19      0.287800
     34 H12         4.3240    1.1170   -0.8130 hn        1 F19      0.287800
@<TRIPOS>BOND
     1    1    2 ar  
     2    1    6 ar  
     3    1   22 1   
     4    2    3 ar  
     5    2   23 1   
     6    3    4 ar  
     7    3   11 1   
     8    4    5 ar  
     9    4   24 1   
    10    5    6 ar  
    11    5   10 ar  
    12    6    7 ar  
    13    7    8 ar  
    14    7   25 1   
    15    8    9 ar  
    16    8   26 1   
    17    9   10 ar  
    18    9   27 1   
    19   10   28 1   
    20   11   12 2   
    21   11   13 2   
    22   11   17 1   
    23   14   15 1   
    24   14   16 1   
    25   14   29 1   
    26   14   30 1   
    27   15   20 1   
    28   16   17 1   
    29   16   31 1   
    30   16   32 1   
    31   17   33 1   
    32   17   34 1   
    33   18   20 1   
    34   19   20 1   
    35   20   21 1   
@<TRIPOS>SUBSTRUCTURE
     1 F19         1 TEMP              0 ****  ****    0 ROOT
