@<TRIPOS>MOLECULE
F19
   33    34     1     0     0
SMALL
bcc


@<TRIPOS>ATOM
      1 C1         51.3360   24.5580   14.3940 ca        1 F19     -0.180000
      2 C2         50.3610   25.5260   14.4810 ca        1 F19     -0.030000
      3 C3         49.1000   25.2470   15.0540 ca        1 F19     -0.196500
      4 C4         48.8440   23.9840   15.5240 ca        1 F19     -0.058000
      5 C5         49.8240   22.9560   15.4540 ca        1 F19     -0.058000
      6 C6         51.0910   23.2480   14.8810 ca        1 F19     -0.028000
      7 C7         52.0710   22.2200   14.8130 ca        1 F19     -0.124000
      8 C8         51.8020   20.9610   15.2920 ca        1 F19     -0.157000
      9 C9         50.5410   20.6690   15.8620 ca        1 F19     -0.173000
     10 C10        49.5750   21.6440   15.9400 ca        1 F19     -0.102000
     11 S11        47.8150   26.5720   15.2130 sy        1 F19      1.500000
     12 O12        46.6550   25.7930   15.5620 o         1 F19     -0.728200
     13 O13        48.2850   27.2670   16.3800 o         1 F19     -0.771800
     14 C16        47.1350   28.8860   12.2870 c3        1 F19      0.169400
     15 O17        47.2930   29.1020   10.9130 os        1 F19     -0.591200
     16 C18        48.0110   27.6800   12.7140 c3        1 F19      0.358800
     17 N1         47.8130   27.2500   14.0130 n2        1 F19     -1.033700
     18 O20        47.3580   31.6030   11.3270 o         1 F19     -0.849500
     19 O21        49.4360   30.3640   10.9510 oh        1 F19     -0.784400
     20 P          47.8940   30.5530   10.4300 p5        1 F19      1.430800
     21 O22        47.8630   30.6010    8.9540 o         1 F19     -0.849500
     22 H1         52.3140   24.7790   13.9440 ha        1 F19      0.109000
     23 H2         50.5530   26.5410   14.0920 ha        1 F19      0.142000
     24 H4         47.8560   23.7570   15.9620 ha        1 F19      0.153000
     25 H7         53.0470   22.4560   14.3670 ha        1 F19      0.112000
     26 H8         52.5600   20.1680   15.2380 ha        1 F19      0.101000
     27 H9         50.3470   19.6550   16.2380 ha        1 F19      0.103000
     28 H10        48.5900   21.4280   16.3800 ha        1 F19      0.121000
     29 H161       46.0510   28.6520   12.4790 h1        1 F19      0.019700
     30 H162       47.4150   29.8110   12.8580 h1        1 F19      0.019700
     31 H181       49.0930   27.9820   12.5540 h1        1 F19     -0.022800
     32 H182       47.8030   26.8470   11.9750 h1        1 F19     -0.022800
     33 HA         49.5160   30.5250   11.8830 ho        1 F19      0.420000
@<TRIPOS>BOND
     1    1    2 ar  
     2    1    6 ar  
     3    1   22 1   
     4    2    3 ar  
     5    2   23 1   
     6    3    4 ar  
     7    3   11 1   
     8    4    5 ar  
     9    4   24 1   
    10    5    6 ar  
    11    5   10 ar  
    12    6    7 ar  
    13    7    8 ar  
    14    7   25 1   
    15    8    9 ar  
    16    8   26 1   
    17    9   10 ar  
    18    9   27 1   
    19   10   28 1   
    20   11   12 1   
    21   11   13 2   
    22   11   17 2   
    23   14   15 1   
    24   14   16 1   
    25   14   29 1   
    26   14   30 1   
    27   15   20 1   
    28   16   17 1   
    29   16   31 1   
    30   16   32 1   
    31   18   20 1   
    32   19   20 1   
    33   19   33 1   
    34   20   21 1   
@<TRIPOS>SUBSTRUCTURE
     1 F19         1 TEMP              0 ****  ****    0 ROOT
