@<TRIPOS>MOLECULE
F1A
   27    27     1     0     0
SMALL
bcc


@<TRIPOS>ATOM
      1 N          -0.0260    0.1700    0.1030 n4        1 F1A     -0.782500
      2 S           1.8980   -0.0290   -0.0790 sy        1 F1A      1.495200
      3 O1          2.2230   -0.2540    1.2420 o         1 F1A     -0.574800
      4 O2          1.9280   -1.0890   -0.9600 o         1 F1A     -0.574800
      5 C1          2.1960    1.4210   -0.6690 ca        1 F1A     -0.579500
      6 C2          2.2260    1.6620   -2.0760 ca        1 F1A      0.085700
      7 C3          2.6210    2.8940   -2.5830 ca        1 F1A     -0.174500
      8 C4          2.9870    3.9450   -1.7320 ca        1 F1A      0.086700
      9 C5          2.9200    3.7420   -0.3470 ca        1 F1A     -0.174500
     10 C6          2.5280    2.5180    0.1820 ca        1 F1A      0.085700
     11 C7          1.8490    0.6030   -3.0470 c3        1 F1A     -0.107300
     12 C9          2.4790    2.3890    1.6610 c3        1 F1A     -0.107300
     13 C8          3.4150    5.2480   -2.2810 c3        1 F1A     -0.095800
     14 HN1        -0.3470    1.0830   -0.2000 hn        1 F1A      0.450800
     15 HN2        -0.3010    0.0440    1.0740 hn        1 F1A      0.450800
     16 H3          2.6540    3.0490   -3.6760 ha        1 F1A      0.171000
     17 H71C        0.8680    0.1370   -2.7810 hc        1 F1A      0.079867
     18 H72C        2.6250   -0.2080   -3.0690 hc        1 F1A      0.079867
     19 H73C        1.7620    1.0190   -4.0830 hc        1 F1A      0.079867
     20 H5          3.1910    4.5700    0.3310 ha        1 F1A      0.171000
     21 H81C        3.8360    5.1380   -3.3120 hc        1 F1A      0.080700
     22 H82C        4.1880    5.7250   -1.6270 hc        1 F1A      0.080700
     23 H83C        2.5320    5.9390   -2.3360 hc        1 F1A      0.080700
     24 H91C        3.3070    1.7250    2.0280 hc        1 F1A      0.079867
     25 H92C        1.5070    1.9510    2.0000 hc        1 F1A      0.079867
     26 H93C        2.5970    3.3860    2.1570 hc        1 F1A      0.079867
     27 HN3        -0.5050   -0.5350   -0.4510 hn        1 F1A      0.450800
@<TRIPOS>BOND
     1    1    2 1   
     2    1   14 1   
     3    1   15 1   
     4    1   27 1   
     5    2    3 2   
     6    2    4 2   
     7    2    5 1   
     8    5    6 ar  
     9    5   10 ar  
    10    6    7 ar  
    11    6   11 1   
    12    7    8 ar  
    13    7   16 1   
    14    8    9 ar  
    15    8   13 1   
    16    9   10 ar  
    17    9   20 1   
    18   10   12 1   
    19   11   17 1   
    20   11   18 1   
    21   11   19 1   
    22   12   24 1   
    23   12   25 1   
    24   12   26 1   
    25   13   21 1   
    26   13   22 1   
    27   13   23 1   
@<TRIPOS>SUBSTRUCTURE
     1 F1A         1 TEMP              0 ****  ****    0 ROOT
