@<TRIPOS>MOLECULE
F1A
   27    27     1     0     0
SMALL
bcc


@<TRIPOS>ATOM
      1 N          -0.0280    0.1700    0.1010 nz        1 F1A     -0.782500
      2 S           1.8960   -0.0300   -0.0820 sy        1 F1A      1.495200
      3 O1          2.2210   -0.2580    1.2390 o         1 F1A     -0.574800
      4 O2          1.9260   -1.0880   -0.9660 o         1 F1A     -0.574800
      5 C1          2.1950    1.4210   -0.6690 ca        1 F1A     -0.579500
      6 C2          2.2240    1.6650   -2.0750 ca        1 F1A      0.085700
      7 C3          2.6200    2.8970   -2.5800 ca        1 F1A     -0.174500
      8 C4          2.9880    3.9470   -1.7270 ca        1 F1A      0.086700
      9 C5          2.9220    3.7410   -0.3420 ca        1 F1A     -0.174500
     10 C6          2.5290    2.5160    0.1840 ca        1 F1A      0.085700
     11 C7          1.8460    0.6090   -3.0490 c3        1 F1A     -0.107300
     12 C9          2.4800    2.3840    1.6630 c3        1 F1A     -0.107300
     13 C8          3.4160    5.2500   -2.2780 c3        1 F1A     -0.095800
     14 HN1        -0.3480    1.0840   -0.2010 hn        1 F1A      0.450800
     15 HN2        -0.3030    0.0420    1.0710 hn        1 F1A      0.450800
     16 H3          2.6530    3.0560   -3.6720 ha        1 F1A      0.171000
     17 H71C        0.8640    0.1430   -2.7830 hc        1 F1A      0.080200
     18 H72C        2.6210   -0.2030   -3.0730 hc        1 F1A      0.080200
     19 H73C        1.7580    1.0270   -4.0840 hc        1 F1A      0.080200
     20 H5          3.1930    4.5670    0.3380 ha        1 F1A      0.171000
     21 H81C        2.5140    5.8860   -2.4770 hc        1 F1A      0.081033
     22 H82C        3.9660    5.1160   -3.2430 hc        1 F1A      0.081033
     23 H83C        4.0770    5.7970   -1.5610 hc        1 F1A      0.081033
     24 H91C        3.3080    1.7180    2.0270 hc        1 F1A      0.080200
     25 H92C        2.6000    3.3800    2.1610 hc        1 F1A      0.080200
     26 H93C        1.5080    1.9460    2.0020 hc        1 F1A      0.080200
     27 HN3        -0.5070   -0.5340   -0.4560 hn        1 F1A      0.450800
@<TRIPOS>BOND
     1    1    2 1   
     2    1   14 1   
     3    1   15 1   
     4    1   27 1   
     5    2    3 2   
     6    2    4 2   
     7    2    5 1   
     8    5    6 ar  
     9    5   10 ar  
    10    6    7 ar  
    11    6   11 1   
    12    7    8 ar  
    13    7   16 1   
    14    8    9 ar  
    15    8   13 1   
    16    9   10 ar  
    17    9   20 1   
    18   10   12 1   
    19   11   17 1   
    20   11   18 1   
    21   11   19 1   
    22   12   24 1   
    23   12   25 1   
    24   12   26 1   
    25   13   21 1   
    26   13   22 1   
    27   13   23 1   
@<TRIPOS>SUBSTRUCTURE
     1 F1A         1 TEMP              0 ****  ****    0 ROOT
