@<TRIPOS>MOLECULE
F1A
   26    26     1     0     0
SMALL
bcc


@<TRIPOS>ATOM
      1 N           2.2360    0.0850   -1.4120 n3        1 F1A     -1.025700
      2 S           1.8020    0.0290    0.1320 sy        1 F1A      1.526200
      3 O1          2.2600   -1.1810    0.6990 o         1 F1A     -0.662800
      4 O2          2.2460    1.2010    0.7820 o         1 F1A     -0.662800
      5 C1          0.1050    0.0220    0.0400 ca        1 F1A     -0.388500
      6 C2         -0.6290    1.2270    0.0500 ca        1 F1A      0.050700
      7 C3         -2.0270    1.2130    0.0360 ca        1 F1A     -0.173000
      8 C4         -2.7310    0.0080   -0.0050 ca        1 F1A     -0.003300
      9 C5         -2.0130   -1.1890   -0.0480 ca        1 F1A     -0.173000
     10 C6         -0.6160   -1.1880   -0.0350 ca        1 F1A      0.050700
     11 C7          0.0400    2.5530    0.0800 c3        1 F1A     -0.082800
     12 C9          0.0680   -2.5050   -0.0970 c3        1 F1A     -0.082800
     13 C8         -4.2120    0.0000   -0.0240 c3        1 F1A     -0.066800
     14 HN1         2.3960   -0.7180   -1.9640 hn        1 F1A      0.444800
     15 HN2         2.3860    0.9270   -1.9060 hn        1 F1A      0.444800
     16 H3         -2.5820    2.1640    0.0590 ha        1 F1A      0.138000
     17 H71C        0.8450    2.6140   -0.6940 hc        1 F1A      0.062367
     18 H72C       -0.6910    3.3770   -0.1110 hc        1 F1A      0.062367
     19 H73C        0.5150    2.7240    1.0820 hc        1 F1A      0.062367
     20 H5         -2.5570   -2.1450   -0.0920 ha        1 F1A      0.138000
     21 H81C       -4.5760    0.0350   -1.0820 hc        1 F1A      0.052033
     22 H82C       -4.6140   -0.9270    0.4550 hc        1 F1A      0.052033
     23 H83C       -4.6240    0.8870    0.5180 hc        1 F1A      0.052033
     24 H91C        0.5460   -2.7400    0.8900 hc        1 F1A      0.062367
     25 H92C       -0.6520   -3.3230   -0.3450 hc        1 F1A      0.062367
     26 H93C        0.8740   -2.5030   -0.8730 hc        1 F1A      0.062367
@<TRIPOS>BOND
     1    1    2 1   
     2    1   14 1   
     3    1   15 1   
     4    2    3 2   
     5    2    4 2   
     6    2    5 1   
     7    5    6 ar  
     8    5   10 ar  
     9    6    7 ar  
    10    6   11 1   
    11    7    8 ar  
    12    7   16 1   
    13    8    9 ar  
    14    8   13 1   
    15    9   10 ar  
    16    9   20 1   
    17   10   12 1   
    18   11   17 1   
    19   11   18 1   
    20   11   19 1   
    21   12   24 1   
    22   12   25 1   
    23   12   26 1   
    24   13   21 1   
    25   13   22 1   
    26   13   23 1   
@<TRIPOS>SUBSTRUCTURE
     1 F1A         1 TEMP              0 ****  ****    0 ROOT
