@<TRIPOS>MOLECULE
F1A
   27    27     1     0     0
SMALL
bcc


@<TRIPOS>ATOM
      1 N          -0.0270    0.1690    0.1000 n4        1 F1A     -0.782500
      2 S           1.8970   -0.0300   -0.0810 sy        1 F1A      1.495200
      3 O1          2.2220   -0.2570    1.2400 o         1 F1A     -0.574800
      4 O2          1.9280   -1.0890   -0.9650 o         1 F1A     -0.574800
      5 C1          2.1950    1.4210   -0.6690 ca        1 F1A     -0.579500
      6 C2          2.2260    1.6640   -2.0760 ca        1 F1A      0.085700
      7 C3          2.6220    2.8970   -2.5810 ca        1 F1A     -0.175000
      8 C4          2.9870    3.9470   -1.7280 ca        1 F1A      0.086700
      9 C5          2.9190    3.7420   -0.3430 ca        1 F1A     -0.175000
     10 C6          2.5270    2.5170    0.1840 ca        1 F1A      0.085700
     11 C7          1.8500    0.6070   -3.0490 c3        1 F1A     -0.107300
     12 C9          2.4770    2.3860    1.6630 c3        1 F1A     -0.107300
     13 C8          3.4140    5.2500   -2.2770 c3        1 F1A     -0.095800
     14 HN1        -0.3470    1.0820   -0.2020 hn        1 F1A      0.450800
     15 HN2        -0.3020    0.0410    1.0700 hn        1 F1A      0.450800
     16 H3          2.6550    3.0540   -3.6730 ha        1 F1A      0.171000
     17 H71C        0.8680    0.1400   -2.7840 hc        1 F1A      0.080033
     18 H72C        2.6260   -0.2040   -3.0710 hc        1 F1A      0.080033
     19 H73C        1.7640    1.0240   -4.0840 hc        1 F1A      0.080033
     20 H5          3.1890    4.5690    0.3370 ha        1 F1A      0.171000
     21 H81C        2.5170    5.9110   -2.4140 hc        1 F1A      0.080700
     22 H82C        3.9100    5.1270   -3.2720 hc        1 F1A      0.080700
     23 H83C        4.1240    5.7680   -1.5850 hc        1 F1A      0.080700
     24 H91C        3.3050    1.7210    2.0280 hc        1 F1A      0.080033
     25 H92C        2.5950    3.3820    2.1600 hc        1 F1A      0.080033
     26 H93C        1.5050    1.9460    2.0000 hc        1 F1A      0.080033
     27 HN3        -0.5060   -0.5360   -0.4570 hn        1 F1A      0.450800
@<TRIPOS>BOND
     1    1    2 1   
     2    1   14 1   
     3    1   15 1   
     4    1   27 1   
     5    2    3 2   
     6    2    4 2   
     7    2    5 1   
     8    5    6 ar  
     9    5   10 ar  
    10    6    7 ar  
    11    6   11 1   
    12    7    8 ar  
    13    7   16 1   
    14    8    9 ar  
    15    8   13 1   
    16    9   10 ar  
    17    9   20 1   
    18   10   12 1   
    19   11   17 1   
    20   11   18 1   
    21   11   19 1   
    22   12   24 1   
    23   12   25 1   
    24   12   26 1   
    25   13   21 1   
    26   13   22 1   
    27   13   23 1   
@<TRIPOS>SUBSTRUCTURE
     1 F1A         1 TEMP              0 ****  ****    0 ROOT
