@<TRIPOS>MOLECULE
F1G
   30    31     1     0     0
SMALL
bcc


@<TRIPOS>ATOM
      1 F18         0.4160   -0.2590    0.8930 f         1 F1G     -0.211300
      2 C15         1.4850   -0.0940    0.0550 c3        1 F1G      0.633600
      3 F16         2.5610    0.1340    0.8690 f         1 F1G     -0.211300
      4 F17         1.2600    1.0970   -0.5860 f         1 F1G     -0.211300
      5 C12         1.6880   -1.2570   -0.9090 cc        1 F1G      0.305600
      6 C9          1.6610   -1.2020   -2.3510 cc        1 F1G     -0.241300
      7 C10         1.9110   -2.5840   -2.7550 cd        1 F1G     -0.024400
      8 N14         2.0590   -3.3160   -1.5920 na        1 F1G      0.155400
      9 C19         2.3180   -4.7410   -1.5310 c3        1 F1G      0.022600
     10 N13         1.9260   -2.5280   -0.5020 nd        1 F1G     -0.391800
     11 S11         1.9150   -2.7450   -4.4020 ss        1 F1G      0.062200
     12 C8          1.4900   -0.3540   -3.4500 cc        1 F1G      0.102000
     13 C6          1.6120   -1.0730   -4.6520 cd        1 F1G     -0.292700
     14 C5          1.4780   -0.4100   -5.9080 c         1 F1G      0.612700
     15 O7          1.1790    0.7530   -6.1530 o         1 F1G     -0.437100
     16 N4          1.7670   -1.2400   -7.1580 ny        1 F1G     -0.684800
     17 C3          0.6420   -2.1720   -7.4710 c3        1 F1G      0.104800
     18 C2          0.8680   -2.9830   -8.7360 c3        1 F1G     -0.062300
     19 S1         -0.3460   -4.2480   -8.8110 sh        1 F1G     -0.262900
     20 H191        3.2850   -4.9570   -2.0600 h1        1 F1G      0.086700
     21 H192        1.4730   -5.2870   -2.0290 h1        1 F1G      0.086700
     22 H193        2.3970   -5.0740   -0.4600 h1        1 F1G      0.086700
     23 H8          1.2900    0.7250   -3.3840 ha        1 F1G      0.208000
     24 HN4         2.6320   -1.7730   -7.0250 hn        1 F1G      0.455800
     25 H31        -0.2950   -1.5490   -7.5700 hx        1 F1G      0.116700
     26 H32         0.5160   -2.8670   -6.5860 hx        1 F1G      0.116700
     27 H21         0.8590   -2.3280   -9.6400 h1        1 F1G      0.100200
     28 H22         1.8560   -3.5130   -8.7070 h1        1 F1G      0.100200
     29 HS1        -1.2830   -3.6310   -9.5150 hs        1 F1G      0.218800
     30 H42         1.9010   -0.5970   -7.9490 hn        1 F1G      0.455800
@<TRIPOS>BOND
     1    1    2 1   
     2    2    3 1   
     3    2    4 1   
     4    2    5 1   
     5    5    6 1   
     6    5   10 2   
     7    6    7 2   
     8    6   12 1   
     9    7    8 1   
    10    7   11 1   
    11    8    9 1   
    12    8   10 1   
    13    9   20 1   
    14    9   21 1   
    15    9   22 1   
    16   11   13 1   
    17   12   13 2   
    18   12   23 1   
    19   13   14 1   
    20   14   15 2   
    21   14   16 1   
    22   16   17 1   
    23   16   24 1   
    24   16   30 1   
    25   17   18 1   
    26   17   25 1   
    27   17   26 1   
    28   18   19 1   
    29   18   27 1   
    30   18   28 1   
    31   19   29 1   
@<TRIPOS>SUBSTRUCTURE
     1 F1G         1 TEMP              0 ****  ****    0 ROOT
