@<TRIPOS>MOLECULE
F1G
   30    31     1     0     0
SMALL
bcc


@<TRIPOS>ATOM
      1 F18         0.4750   -0.2080    0.8870 f         1 F1G     -0.211300
      2 C15         1.5460   -0.0740    0.0450 c3        1 F1G      0.633600
      3 F16         2.6300    0.1320    0.8550 f         1 F1G     -0.211300
      4 F17         1.3470    1.1190   -0.6020 f         1 F1G     -0.211300
      5 C12         1.7170   -1.2460   -0.9140 cc        1 F1G      0.305600
      6 C9          1.6870   -1.1980   -2.3560 cc        1 F1G     -0.241300
      7 C10         1.9020   -2.5880   -2.7530 cd        1 F1G     -0.024400
      8 N14         2.0350   -3.3180   -1.5880 na        1 F1G      0.155400
      9 C19         2.2600   -4.7480   -1.5190 c3        1 F1G      0.022600
     10 N13         1.9250   -2.5210   -0.5010 nd        1 F1G     -0.391800
     11 S11         1.8970   -2.7570   -4.4000 ss        1 F1G      0.062200
     12 C8          1.5330   -0.3520   -3.4590 cc        1 F1G      0.102000
     13 C6          1.6340   -1.0800   -4.6570 cd        1 F1G     -0.292700
     14 C5          1.5120   -0.4200   -5.9170 c         1 F1G      0.612700
     15 O7          1.2410    0.7490   -6.1660 o         1 F1G     -0.437100
     16 N4          1.7770   -1.2640   -7.1630 n4        1 F1G     -0.684800
     17 C3          0.6280   -2.1690   -7.4680 c3        1 F1G      0.104800
     18 C2          0.8300   -2.9920   -8.7290 c3        1 F1G     -0.062300
     19 S1         -0.4150   -4.2270   -8.7940 sh        1 F1G     -0.262900
     20 H191        3.2190   -4.9900   -2.0510 h1        1 F1G      0.086700
     21 H192        1.4000   -5.2750   -2.0120 h1        1 F1G      0.086700
     22 H193        2.3350   -5.0770   -0.4470 h1        1 F1G      0.086700
     23 H8          1.3600    0.7320   -3.3980 ha        1 F1G      0.208000
     24 HN4         2.6280   -1.8170   -7.0300 hn        1 F1G      0.455800
     25 H31        -0.2940   -1.5240   -7.5670 hx        1 F1G      0.116700
     26 H32         0.4880   -2.8560   -6.5790 hx        1 F1G      0.116700
     27 H21         0.8340   -2.3410   -9.6370 h1        1 F1G      0.100200
     28 H22         1.8050   -3.5460   -8.7010 h1        1 F1G      0.100200
     29 HS1        -1.3390   -3.5910   -9.4980 hs        1 F1G      0.218800
     30 H42         1.9240   -0.6270   -7.9580 hn        1 F1G      0.455800
@<TRIPOS>BOND
     1    1    2 1   
     2    2    3 1   
     3    2    4 1   
     4    2    5 1   
     5    5    6 1   
     6    5   10 2   
     7    6    7 2   
     8    6   12 1   
     9    7    8 1   
    10    7   11 1   
    11    8    9 1   
    12    8   10 1   
    13    9   20 1   
    14    9   21 1   
    15    9   22 1   
    16   11   13 1   
    17   12   13 2   
    18   12   23 1   
    19   13   14 1   
    20   14   15 2   
    21   14   16 1   
    22   16   17 1   
    23   16   24 1   
    24   16   30 1   
    25   17   18 1   
    26   17   25 1   
    27   17   26 1   
    28   18   19 1   
    29   18   27 1   
    30   18   28 1   
    31   19   29 1   
@<TRIPOS>SUBSTRUCTURE
     1 F1G         1 TEMP              0 ****  ****    0 ROOT
