@<TRIPOS>MOLECULE
F1G
   29    27     1     0     0
SMALL
bcc


@<TRIPOS>ATOM
      1 F18        -2.2740   -4.4470    0.2650 f         1 F1G     -0.155333
      2 C15        -1.2010   -4.7250   -0.4860 c3        1 F1G      0.514000
      3 F16        -0.2140   -5.1800    0.2960 f         1 F1G     -0.155333
      4 F17        -1.5200   -5.6590   -1.3910 f         1 F1G     -0.155333
      5 C12        -0.7440   -3.4700   -1.1970 c2        1 F1G     -0.153000
      6 C9         -0.5260   -2.2550   -0.6170 c2        1 F1G     -0.145000
      7 C10        -0.1390   -1.3520   -1.6330 c2        1 F1G     -0.329000
      8 N14        -0.1270   -2.0230   -2.8020 n2        1 F1G     -0.076000
      9 C19         0.2040   -1.4790   -4.0760 c2        1 F1G     -0.063000
     10 N13        -0.5020   -3.3470   -2.5470 n2        1 F1G      0.002000
     11 S11         0.0920    0.0500   -0.9700 ss        1 F1G      0.593000
     12 C8         -0.5650   -1.4620    0.7800 c1        1 F1G      0.003000
     13 C6         -0.1920   -0.0960    0.5330 c1        1 F1G     -0.432000
     14 C5         -0.0130    0.9800    1.5810 c1        1 F1G      0.369000
     15 O7         -0.2730    0.7450    2.7440 o         1 F1G     -0.346000
     16 N4          0.4590    2.2640    1.2050 n3        1 F1G     -0.369000
     17 C3          0.0570    3.4130    1.9400 c3        1 F1G     -0.034000
     18 C2          1.2720    4.2520    2.2700 c3        1 F1G     -0.298000
     19 S1          0.7830    5.6380    3.2620 sh        1 F1G     -0.005000
     20 H191        1.1280   -1.1480   -4.0600 ha        1 F1G      0.109333
     21 H192        0.1180   -2.1750   -4.7620 ha        1 F1G      0.109333
     22 H193       -0.4050   -0.7380   -4.2840 ha        1 F1G      0.109333
     23 H8         -0.8010   -1.8420    1.6480 DU        1 F1G      0.193000
     24 HN4         1.0250    2.3520    0.4940 hn        1 F1G      0.214000
     25 H31        -0.5690    3.9420    1.4030 h1        1 F1G      0.113500
     26 H32        -0.3810    3.1330    2.7700 h1        1 F1G      0.113500
     27 H21         1.9190    3.7090    2.7640 h1        1 F1G      0.119500
     28 H22         1.6810    4.5730    1.4410 h1        1 F1G      0.119500
     29 HS1         1.7080    6.3470    3.4310 hs        1 F1G      0.035000
@<TRIPOS>BOND
     1    1    2 1   
     2    2    3 1   
     3    2    4 1   
     4    2    5 1   
     5    5    6 1   
     6    5   10 1   
     7    6    7 1   
     8    6   12 1   
     9    7    8 1   
    10    7   11 1   
    11    8   10 1   
    12    9   20 1   
    13    9   21 1   
    14    9   22 1   
    15   11   13 1   
    16   12   13 1   
    17   14   15 1   
    18   14   16 1   
    19   16   17 1   
    20   16   24 1   
    21   17   18 1   
    22   17   25 1   
    23   17   26 1   
    24   18   19 1   
    25   18   27 1   
    26   18   28 1   
    27   19   29 1   
@<TRIPOS>SUBSTRUCTURE
     1 F1G         1 TEMP              0 ****  ****    0 ROOT
