@<TRIPOS>MOLECULE
F1G
   29    30     1     0     0
SMALL
bcc


@<TRIPOS>ATOM
      1 F18         4.3400   -1.1040   -2.0530 f         1 F1G     -0.226633
      2 C15         3.7110   -1.2870   -0.8470 c3        1 F1G      0.633600
      3 F16         4.7060   -1.6990    0.0030 f         1 F1G     -0.226633
      4 F17         2.9310   -2.4010   -1.0310 f         1 F1G     -0.226633
      5 C12         2.9460   -0.0740   -0.3600 cc        1 F1G      0.269600
      6 C9          1.5400    0.0160   -0.0800 cc        1 F1G     -0.210300
      7 C10         1.3560    1.3920    0.3450 cd        1 F1G     -0.083400
      8 N14         2.6090    1.9950    0.2900 na        1 F1G      0.137400
      9 C19         2.8740    3.3680    0.6520 c3        1 F1G      0.035600
     10 N13         3.5460    1.1270   -0.1250 nd        1 F1G     -0.430800
     11 S11        -0.2230    1.7120    0.7300 ss        1 F1G      0.053200
     12 C8          0.3180   -0.7000   -0.0590 cc        1 F1G      0.003000
     13 C6         -0.7170    0.1190    0.3530 cd        1 F1G     -0.182700
     14 C5         -2.1060   -0.3550    0.4760 c         1 F1G      0.695700
     15 O7         -2.3780   -1.5690    0.5450 o         1 F1G     -0.585100
     16 N4         -3.1000    0.6160    0.5620 n         1 F1G     -0.559900
     17 C3         -4.4910    0.2520    0.5750 c3        1 F1G      0.082000
     18 C2         -5.1410    0.1250   -0.7990 c3        1 F1G     -0.037300
     19 S1         -6.8650   -0.2090   -0.6670 sh        1 F1G     -0.358900
     20 H191        2.2490    4.0420    0.0070 h1        1 F1G      0.070033
     21 H192        2.6040    3.5210    1.7320 h1        1 F1G      0.070033
     22 H193        3.9600    3.6100    0.5020 h1        1 F1G      0.070033
     23 H8          0.2120   -1.7570   -0.3290 ha        1 F1G      0.193000
     24 HN4        -2.8870    1.5290    0.2340 hn        1 F1G      0.300500
     25 H31        -4.5900   -0.7340    1.1170 h1        1 F1G      0.074200
     26 H32        -5.0410    1.0390    1.1670 h1        1 F1G      0.074200
     27 H21        -5.0770    1.0890   -1.3630 h1        1 F1G      0.080200
     28 H22        -4.6250   -0.6630   -1.3990 h1        1 F1G      0.080200
     29 HS1        -6.8170   -1.4380   -0.1810 hs        1 F1G      0.206800
@<TRIPOS>BOND
     1    1    2 1   
     2    2    3 1   
     3    2    4 1   
     4    2    5 1   
     5    5    6 1   
     6    5   10 2   
     7    6    7 2   
     8    6   12 1   
     9    7    8 1   
    10    7   11 1   
    11    8    9 1   
    12    8   10 1   
    13    9   20 1   
    14    9   21 1   
    15    9   22 1   
    16   11   13 1   
    17   12   13 2   
    18   12   23 1   
    19   13   14 1   
    20   14   15 2   
    21   14   16 1   
    22   16   17 1   
    23   16   24 1   
    24   17   18 1   
    25   17   25 1   
    26   17   26 1   
    27   18   19 1   
    28   18   27 1   
    29   18   28 1   
    30   19   29 1   
@<TRIPOS>SUBSTRUCTURE
     1 F1G         1 TEMP              0 ****  ****    0 ROOT
