@<TRIPOS>MOLECULE
F1G
   30    31     1     0     0
SMALL
bcc


@<TRIPOS>ATOM
      1 F18         0.8720   -0.6960    1.2280 f         1 F1G     -0.211300
      2 C15         1.3490   -0.1370    0.0730 c3        1 F1G      0.633600
      3 F16         2.3200    0.7450    0.4620 f         1 F1G     -0.211300
      4 F17         0.3230    0.6420   -0.3990 f         1 F1G     -0.211300
      5 C12         1.8310   -1.1630   -0.9460 cc        1 F1G      0.305600
      6 C9          1.3220   -1.3630   -2.2810 cc        1 F1G     -0.241300
      7 C10         2.1370   -2.4590   -2.8010 cd        1 F1G     -0.024400
      8 N14         3.0180   -2.8090   -1.7960 na        1 F1G      0.155400
      9 C19         4.0160   -3.8570   -1.8880 c3        1 F1G      0.022600
     10 N13         2.8340   -2.0410   -0.7000 nd        1 F1G     -0.391800
     11 S11         1.7130   -2.8490   -4.3530 ss        1 F1G      0.062200
     12 C8          0.3840   -0.9140   -3.2160 cc        1 F1G      0.102000
     13 C6          0.4830   -1.6530   -4.4080 cd        1 F1G     -0.292700
     14 C5         -0.3830   -1.3710   -5.5070 c         1 F1G      0.612700
     15 O7         -1.2160   -0.4830   -5.6410 o         1 F1G     -0.437100
     16 N4         -0.3000   -2.3140   -6.7060 n4        1 F1G     -0.684800
     17 C3          0.9170   -2.0510   -7.5310 c3        1 F1G      0.104800
     18 C2          1.0120   -2.9350   -8.7620 c3        1 F1G     -0.062300
     19 S1          2.6170   -2.7620   -9.4510 sh        1 F1G     -0.262900
     20 H191        3.4990   -4.8340   -2.0860 h1        1 F1G      0.086700
     21 H192        4.5920   -3.9280   -0.9260 h1        1 F1G      0.086700
     22 H193        4.7210   -3.6150   -2.7280 h1        1 F1G      0.086700
     23 H8         -0.3330   -0.0980   -3.0430 ha        1 F1G      0.208000
     24 HN4        -0.2950   -3.2850   -6.3810 hn        1 F1G      0.455800
     25 H31         0.8910   -0.9630   -7.8330 hx        1 F1G      0.116700
     26 H32         1.8210   -2.2150   -6.8690 hx        1 F1G      0.116700
     27 H21         0.9140   -4.0200   -8.4920 h1        1 F1G      0.100200
     28 H22         0.2040   -2.6930   -9.4940 h1        1 F1G      0.100200
     29 HS1         2.3950   -1.7830  -10.3160 hs        1 F1G      0.218800
     30 H42        -1.1380   -2.1720   -7.2870 hn        1 F1G      0.455800
@<TRIPOS>BOND
     1    1    2 1   
     2    2    3 1   
     3    2    4 1   
     4    2    5 1   
     5    5    6 1   
     6    5   10 2   
     7    6    7 2   
     8    6   12 1   
     9    7    8 1   
    10    7   11 1   
    11    8    9 1   
    12    8   10 1   
    13    9   20 1   
    14    9   21 1   
    15    9   22 1   
    16   11   13 1   
    17   12   13 2   
    18   12   23 1   
    19   13   14 1   
    20   14   15 2   
    21   14   16 1   
    22   16   17 1   
    23   16   24 1   
    24   16   30 1   
    25   17   18 1   
    26   17   25 1   
    27   17   26 1   
    28   18   19 1   
    29   18   27 1   
    30   18   28 1   
    31   19   29 1   
@<TRIPOS>SUBSTRUCTURE
     1 F1G         1 TEMP              0 ****  ****    0 ROOT
