@<TRIPOS>MOLECULE
F1H
   44    45     1     0     0
SMALL
bcc


@<TRIPOS>ATOM
      1 C16        -4.7100   -0.6380    1.1130 ca        1 F1H     -0.118000
      2 C17        -5.5340   -1.7240    1.4030 ca        1 F1H     -0.133500
      3 C20        -5.3460   -0.7820   -1.2150 ca        1 F1H     -0.118000
      4 C15        -4.6110   -0.1610   -0.1990 ca        1 F1H     -0.088300
      5 C12        -1.7170    2.2450   -0.1390 c3        1 F1H      0.168300
      6 C13        -0.2910    2.2170    0.4040 c3        1 F1H     -0.092400
      7 C14        -3.7710    1.0410   -0.5160 c3        1 F1H      0.215100
      8 C10        -1.6510   -0.1370   -0.5780 c3        1 F1H      0.168300
      9 C9         -0.2250   -0.2310   -0.0470 c3        1 F1H     -0.092400
     10 C7          6.0620   -0.3620    0.9700 c3        1 F1H      0.006700
     11 C5          4.3510    1.1170   -0.0580 c3        1 F1H     -0.156400
     12 C6          4.6140   -0.2380    0.5650 c3        1 F1H     -0.070400
     13 C1          0.5140    1.0970   -0.2770 c3        1 F1H      0.097700
     14 O4          2.8160    1.4350   -1.8860 o         1 F1H     -0.610100
     15 S8          6.2250   -1.8920    1.8480 sh        1 F1H     -0.375900
     16 N2          1.8850    1.0560    0.1770 n         1 F1H     -0.570900
     17 N11        -2.4070    0.9680   -0.0030 n3        1 F1H     -0.730600
     18 C18        -6.2670   -2.3390    0.3880 ca        1 F1H     -0.129000
     19 C19        -6.1720   -1.8660   -0.9210 ca        1 F1H     -0.133500
     20 H16        -4.1310   -0.1530    1.9140 ha        1 F1H      0.137500
     21 H17        -5.6060   -2.0960    2.4350 ha        1 F1H      0.131000
     22 H20        -5.2740   -0.4150   -2.2500 ha        1 F1H      0.137500
     23 H12        -2.3040    3.0120    0.4420 h1        1 F1H      0.036950
     24 H12A       -1.6840    2.5860   -1.2160 h1        1 F1H      0.036950
     25 H13         0.1800    3.2120    0.2010 hc        1 F1H      0.051950
     26 H13A       -0.3070    2.0590    1.5130 hc        1 F1H      0.051950
     27 H14        -3.7800    1.2130   -1.6350 h1        1 F1H      0.039700
     28 H14A       -4.2630    1.9370   -0.0350 h1        1 F1H      0.039700
     29 H10        -1.6080   -0.0650   -1.7060 h1        1 F1H      0.036950
     30 H10A       -2.1990   -1.0870   -0.3180 h1        1 F1H      0.036950
     31 H9         -0.2380   -0.4800    1.0460 hc        1 F1H      0.051950
     32 H9A         0.2960   -1.0640   -0.5860 hc        1 F1H      0.051950
     33 H7          6.7220   -0.3520    0.0690 h1        1 F1H      0.062700
     34 H7A         6.3610    0.4930    1.6230 h1        1 F1H      0.062700
     35 H5          4.4730    1.9270    0.7080 hc        1 F1H      0.072700
     36 H5A         5.0900    1.3100   -0.8810 hc        1 F1H      0.072700
     37 H6          4.3560   -1.0480   -0.1700 hc        1 F1H      0.062700
     38 H6A         3.9610   -0.3840    1.4670 hc        1 F1H      0.062700
     39 H1          0.5310    1.3040   -1.3920 h1        1 F1H      0.089700
     40 HS8         7.5310   -1.8790    2.0460 hs        1 F1H      0.203800
     41 HN2         2.0400    0.8400    1.1310 hn        1 F1H      0.308500
     42 H18        -6.9180   -3.1940    0.6180 ha        1 F1H      0.130000
     43 H19        -6.7490   -2.3480   -1.7240 ha        1 F1H      0.131000
     44 C3          2.9630    1.2060   -0.6680 c         1 F1H      0.661100
@<TRIPOS>BOND
     1    1    2 ar  
     2    1    4 ar  
     3    1   20 1   
     4    2   18 ar  
     5    2   21 1   
     6    3    4 ar  
     7    3   19 ar  
     8    3   22 1   
     9    4    7 1   
    10    5    6 1   
    11    5   17 1   
    12    5   23 1   
    13    5   24 1   
    14    6   13 1   
    15    6   25 1   
    16    6   26 1   
    17    7   17 1   
    18    7   27 1   
    19    7   28 1   
    20    8    9 1   
    21    8   17 1   
    22    8   29 1   
    23    8   30 1   
    24    9   13 1   
    25    9   31 1   
    26    9   32 1   
    27   10   12 1   
    28   10   15 1   
    29   10   33 1   
    30   10   34 1   
    31   11   12 1   
    32   11   35 1   
    33   11   36 1   
    34   11   44 1   
    35   12   37 1   
    36   12   38 1   
    37   13   16 1   
    38   13   39 1   
    39   14   44 2   
    40   15   40 1   
    41   16   41 1   
    42   16   44 1   
    43   18   19 ar  
    44   18   42 1   
    45   19   43 1   
@<TRIPOS>SUBSTRUCTURE
     1 F1H         1 TEMP              0 ****  ****    0 ROOT
