@<TRIPOS>MOLECULE
F1H
   45    45     1     0     0
SMALL
bcc


@<TRIPOS>ATOM
      1 C16        -0.4300   -1.7600   -0.2820 c3        1 F1H     -0.242000
      2 C17         0.5940   -2.7420   -0.7420 c1        1 F1H      0.047000
      3 C20         0.7420   -1.1920    2.0040 cu        1 F1H     -0.101000
      4 C15        -0.4090   -1.7750    1.2450 cx        1 F1H     -0.226000
      5 C12        -6.8890   -1.9530    1.4320 c2        1 F1H     -0.123000
      6 C13        -5.6570   -2.0220    1.9340 c2        1 F1H     -0.248000
      7 C14        -1.6950   -2.0790    1.9490 c3        1 F1H     -0.056000
      8 C10        -5.1180   -0.7770    5.1990 c2        1 F1H     -0.123000
      9 C9         -4.6670   -1.3110    4.0660 c2        1 F1H     -0.248000
     10 C7         -3.0740   -7.5820    1.5840 c3        1 F1H     -0.277000
     11 C5         -4.7930   -5.8520    2.0870 c3        1 F1H     -0.186000
     12 C6         -3.6160   -6.6400    2.6330 c3        1 F1H     -0.165000
     13 C1         -5.3850   -2.4190    3.3530 c3        1 F1H      0.015000
     14 O4         -6.3700   -5.0760    3.7740 o         1 F1H     -0.191000
     15 S8         -1.4270   -8.0820    1.9540 sh        1 F1H      0.015000
     16 N2         -4.5430   -3.6810    3.4060 n4        1 F1H     -0.147000
     17 N11        -2.2010   -3.4320    1.8000 n3        1 F1H     -0.380000
     18 C18         1.4480   -3.2040    0.4010 c3        1 F1H     -0.170000
     19 C19         0.9580   -2.4020    1.5220 cu        1 F1H     -0.155000
     20 H16        -1.4360   -2.0230   -0.6960 hc        1 F1H      0.145500
     21 H17        -0.1500   -0.7550   -0.7030 hc        1 F1H      0.145500
     22 H20         1.0490   -0.3380    2.5750 ha        1 F1H      0.208000
     23 H12        -2.3670   -3.6350    0.8300 hn        1 F1H      0.164500
     24 H12A       -7.0760   -1.6050    0.4050 ha        1 F1H      0.141500
     25 H13        -7.7920   -2.2210    2.0020 ha        1 F1H      0.141500
     26 H13A       -4.7710   -1.7240    1.3490 ha        1 F1H      0.146000
     27 H14        -1.5240   -4.0930    2.1400 hn        1 F1H      0.164500
     28 H14A       -2.4860   -1.3710    1.5630 h1        1 F1H      0.098000
     29 H10        -1.5670   -1.8850    3.0530 h1        1 F1H      0.098000
     30 H10A       -6.0260   -1.1250    5.7140 ha        1 F1H      0.141500
     31 H9         -4.6060    0.0690    5.6840 ha        1 F1H      0.141500
     32 H9A        -3.7660   -0.9300    3.5550 ha        1 F1H      0.146000
     33 H7         -2.8020   -5.9380    2.9580 hc        1 F1H      0.102500
     34 H7A        -3.7560   -8.4580    1.4590 h1        1 F1H      0.127000
     35 H5         -3.0020   -7.0680    0.5910 h1        1 F1H      0.127000
     36 H5A        -5.6220   -6.5560    1.7920 hc        1 F1H      0.145000
     37 H6         -4.4890   -5.2770    1.1710 hc        1 F1H      0.145000
     38 H6A        -3.9390   -7.2240    3.5360 hc        1 F1H      0.102500
     39 H1         -6.3560   -2.6640    3.8890 hx        1 F1H      0.150000
     40 HS8        -1.6650   -9.0750    2.7960 hs        1 F1H      0.046000
     41 HN2        -3.7320   -3.5920    2.7190 hn        1 F1H      0.272000
     42 H18         1.3210   -4.3120    0.5390 hc        1 F1H      0.164500
     43 H19         2.5350   -3.0240    0.1740 hc        1 F1H      0.164500
     44 C3         -5.3440   -4.9170    3.1260 c2        1 F1H      0.260000
     45 H22        -4.1510   -3.7550    4.3500 hn        1 F1H      0.272000
@<TRIPOS>BOND
     1    1    2 1   
     2    1    4 1   
     3    1   20 1   
     4    1   21 1   
     5    2   18 1   
     6    3    4 1   
     7    3   19 1   
     8    3   22 1   
     9    4    7 1   
    10    4   19 1   
    11    5    6 1   
    12    5   24 1   
    13    5   25 1   
    14    6   13 1   
    15    6   26 1   
    16    7   17 1   
    17    7   28 1   
    18    7   29 1   
    19    8    9 1   
    20    8   30 1   
    21    8   31 1   
    22    9   13 1   
    23    9   32 1   
    24   10   12 1   
    25   10   15 1   
    26   10   34 1   
    27   10   35 1   
    28   11   12 1   
    29   11   36 1   
    30   11   37 1   
    31   11   44 1   
    32   12   33 1   
    33   12   38 1   
    34   13   16 1   
    35   13   39 1   
    36   14   44 1   
    37   15   40 1   
    38   16   41 1   
    39   16   44 1   
    40   16   45 1   
    41   17   23 1   
    42   17   27 1   
    43   18   19 1   
    44   18   42 1   
    45   18   43 1   
@<TRIPOS>SUBSTRUCTURE
     1 F1H         1 TEMP              0 ****  ****    0 ROOT
