@<TRIPOS>MOLECULE
F1H
   45    43     1     0     0
SMALL
bcc


@<TRIPOS>ATOM
      1 C16        -0.9220    0.8020    0.6890 c2        1 F1H      0.265000
      2 C17         0.2530    0.7080   -0.0910 c2        1 F1H     -0.261000
      3 C20         0.1280    1.0310    2.9550 c2        1 F1H     -0.519000
      4 C15        -1.0420    0.8660    2.1080 c2        1 F1H     -0.112000
      5 C12        -2.9690   -1.5780   -0.2510 c3        1 F1H     -0.030000
      6 C13        -3.8440   -2.7760   -0.1860 c2        1 F1H     -0.362000
      7 C14        -2.2840    0.7840    2.6690 c2        1 F1H      0.022000
      8 C10        -1.7840   -2.4330    1.6720 c3        1 F1H     -0.086000
      9 C9         -2.3970   -3.8250    1.5440 c3        1 F1H     -0.173000
     10 C7         -7.1140   -9.4220    4.6540 c3        1 F1H     -0.268000
     11 C5         -5.2840   -7.8760    3.9790 c3        1 F1H     -0.236000
     12 C6         -6.2660   -8.2480    5.0710 c3        1 F1H     -0.157000
     13 C1         -3.5980   -3.8320    0.6340 c2        1 F1H      0.070000
     14 O4         -4.0630   -5.8440    3.5890 o         1 F1H     -0.338000
     15 S8         -8.3920   -9.7910    5.8120 sh        1 F1H      0.008000
     16 N2         -4.3540   -4.9950    0.6190 n8        1 F1H     -0.340000
     17 N11        -1.6840   -1.6750    0.4350 n7        1 F1H     -0.321000
     18 C18         1.5000    0.4230    0.3500 c2        1 F1H      0.033000
     19 C19         0.6230    0.1960    3.8500 c1        1 F1H      0.307000
     20 H16        -1.8720    0.9100    0.1120 ha        1 F1H      0.171000
     21 H17         0.1010    0.8540   -1.1830 ha        1 F1H      0.176000
     22 H20         0.6380    2.0210    2.8670 ha        1 F1H      0.218000
     23 H12        -3.1990    0.6720    2.0620 ha        1 F1H      0.162000
     24 H12A       -3.5230   -0.7070    0.2140 h1        1 F1H      0.077500
     25 H13        -2.7780   -1.3150   -1.3320 h1        1 F1H      0.077500
     26 H13A       -4.7130   -2.7470   -0.8580 ha        1 F1H      0.146000
     27 H14        -1.0150   -2.1190   -0.1710 hn        1 F1H      0.164000
     28 H14A       -2.4290    0.8100    3.7620 ha        1 F1H      0.162000
     29 H10        -2.4080   -1.8200    2.3860 h1        1 F1H      0.084500
     30 H10A       -0.7520   -2.5330    2.1130 h1        1 F1H      0.084500
     31 H9         -2.6790   -4.1900    2.5700 hc        1 F1H      0.123000
     32 H9A        -1.6330   -4.5390    1.1330 hc        1 F1H      0.123000
     33 H7         -5.7060   -8.4980    6.0110 hc        1 F1H      0.095500
     34 H7A        -6.4710  -10.3170    4.4720 h1        1 F1H      0.117500
     35 H5         -7.6570   -9.1920    3.7020 h1        1 F1H      0.117500
     36 H5A        -5.8330   -7.6430    3.0280 hc        1 F1H      0.117500
     37 H6         -4.6010   -8.7440    3.7650 hc        1 F1H      0.117500
     38 H6A        -6.9260   -7.3690    5.2990 hc        1 F1H      0.095500
     39 H1         -4.1360   -6.6780    5.4560 h4        1 F1H      0.100000
     40 HS8        -7.6610  -10.2310    6.8200 hs        1 F1H      0.028000
     41 HN2        -4.3260   -5.5430    1.4510 hn        1 F1H      0.210000
     42 H18         1.7440    0.2280    1.4080 ha        1 F1H      0.157000
     43 H19         2.3490    0.3560   -0.3540 ha        1 F1H      0.157000
     44 C3         -4.4330   -6.7140    4.3830 c2        1 F1H      0.206000
     45 H22        -5.2490   -4.9240    0.1920 hn        1 F1H      0.210000
@<TRIPOS>BOND
     1    1    2 1   
     2    1    4 1   
     3    1   20 1   
     4    2   18 1   
     5    2   21 1   
     6    3    4 1   
     7    3   19 1   
     8    3   22 1   
     9    4    7 1   
    10    5    6 1   
    11    5   17 1   
    12    5   24 1   
    13    5   25 1   
    14    6   13 1   
    15    6   26 1   
    16    7   23 1   
    17    7   28 1   
    18    8    9 1   
    19    8   17 1   
    20    8   29 1   
    21    8   30 1   
    22    9   13 1   
    23    9   31 1   
    24    9   32 1   
    25   10   12 1   
    26   10   15 1   
    27   10   34 1   
    28   10   35 1   
    29   11   12 1   
    30   11   36 1   
    31   11   37 1   
    32   11   44 1   
    33   12   33 1   
    34   12   38 1   
    35   13   16 1   
    36   14   44 1   
    37   15   40 1   
    38   16   41 1   
    39   16   45 1   
    40   17   27 1   
    41   18   42 1   
    42   18   43 1   
    43   39   44 1   
@<TRIPOS>SUBSTRUCTURE
     1 F1H         1 TEMP              0 ****  ****    0 ROOT
