@<TRIPOS>MOLECULE
F1H
   45    43     1     0     0
SMALL
bcc


@<TRIPOS>ATOM
      1 C16         1.2060    1.1120   -1.7080 c2        1 F1H     -0.190500
      2 C17         1.8760    1.2950   -0.6110 c1        1 F1H     -0.158000
      3 C20        -0.2490    0.7220    2.4460 c2        1 F1H     -0.323000
      4 C15        -0.2890    1.5620    3.5590 c1        1 F1H     -0.128000
      5 C12        -4.1320   -2.4440    1.2080 c3        1 F1H     -0.061000
      6 C13        -5.0420   -3.5950    0.7640 c3        1 F1H     -0.186500
      7 C14        -0.3110    2.2930    4.5070 c1        1 F1H     -0.159000
      8 C10        -2.3270   -3.9630    1.7180 c3        1 F1H     -0.061000
      9 C9         -3.1630   -5.1770    1.2930 c3        1 F1H     -0.186500
     10 C7         -6.4130   -7.8870    5.8330 c3        1 F1H     -0.665000
     11 C5         -4.9950   -7.7280    3.0060 c3        1 F1H     -0.001000
     12 C6         -4.5000   -7.0400    4.1850 c2        1 F1H     -1.067000
     13 C1         -4.6470   -4.8700    1.5170 c3        1 F1H     -0.064000
     14 O4         -7.1820   -6.6610    2.5850 o         1 F1H     -0.207000
     15 S8         -4.7610   -7.4270    5.6720 s4        1 F1H      1.398000
     16 N2         -5.5200   -6.0360    1.1080 n4        1 F1H     -0.118000
     17 N11        -2.7310   -2.7550    1.0360 n3        1 F1H     -0.325000
     18 C18         2.5580    1.4860    0.4770 c2        1 F1H     -0.190500
     19 C19        -1.0070   -0.3120    2.1590 c1        1 F1H      0.150000
     20 H16         0.1500    0.8050   -1.7140 ha        1 F1H      0.136250
     21 H17         1.6590    1.2590   -2.7000 ha        1 F1H      0.136250
     22 H20         0.5470    0.9740    1.6880 ha        1 F1H      0.228000
     23 H12        -4.3930   -2.1860    2.2780 h1        1 F1H      0.089750
     24 H12A       -4.3640   -1.5440    0.5710 h1        1 F1H      0.089750
     25 H13        -6.1040   -3.3140    0.9910 hc        1 F1H      0.109000
     26 H13A       -4.9410   -3.7460   -0.3420 hc        1 F1H      0.109000
     27 H14        -2.1470   -1.9740    1.2960 hn        1 F1H      0.226000
     28 H14A       -0.3280    2.9430    5.3460 ha        1 F1H      0.236000
     29 H10        -2.3940   -3.8740    2.8430 h1        1 F1H      0.089750
     30 H10A       -1.2500   -4.1640    1.4520 h1        1 F1H      0.089750
     31 H9         -2.8470   -6.0610    1.9060 hc        1 F1H      0.109000
     32 H9A        -2.9690   -5.4030    0.2110 hc        1 F1H      0.109000
     33 H7         -7.1300   -7.3360    5.1780 h1        1 F1H      0.145000
     34 H7A        -6.5170   -8.9730    5.5890 h1        1 F1H      0.145000
     35 H5         -6.7560   -7.7510    6.8880 h1        1 F1H      0.145000
     36 H5A        -4.1570   -7.9920    2.3050 hc        1 F1H      0.118000
     37 H6         -5.5510   -8.6760    3.2570 hc        1 F1H      0.118000
     38 H6A        -3.7800   -6.2380    3.9680 h4        1 F1H      0.166000
     39 H1         -4.8240   -4.7100    2.6240 hx        1 F1H      0.148000
     40 HS8        -4.7640   -6.2720    6.2680 hs        1 F1H     -0.204000
     41 HN2        -4.9890   -6.6510    0.4860 hn        1 F1H      0.244000
     42 H18         3.1420    0.6850    0.9550 ha        1 F1H      0.136250
     43 H19         2.6130    2.4680    0.9710 ha        1 F1H      0.136250
     44 C3         -6.0080   -6.8410    2.2980 c2        1 F1H      0.246000
     45 H22        -6.3320   -5.6730    0.5920 hn        1 F1H      0.244000
@<TRIPOS>BOND
     1    1    2 1   
     2    1   20 1   
     3    1   21 1   
     4    2   18 1   
     5    3    4 1   
     6    3   19 1   
     7    3   22 1   
     8    4    7 1   
     9    5    6 1   
    10    5   17 1   
    11    5   23 1   
    12    5   24 1   
    13    6   13 1   
    14    6   25 1   
    15    6   26 1   
    16    7   28 1   
    17    8    9 1   
    18    8   17 1   
    19    8   29 1   
    20    8   30 1   
    21    9   13 1   
    22    9   31 1   
    23    9   32 1   
    24   10   15 1   
    25   10   33 1   
    26   10   34 1   
    27   10   35 1   
    28   11   12 1   
    29   11   36 1   
    30   11   37 1   
    31   11   44 1   
    32   12   15 1   
    33   12   38 1   
    34   13   16 1   
    35   13   39 1   
    36   14   44 1   
    37   15   40 1   
    38   16   41 1   
    39   16   44 1   
    40   16   45 1   
    41   17   27 1   
    42   18   42 1   
    43   18   43 1   
@<TRIPOS>SUBSTRUCTURE
     1 F1H         1 TEMP              0 ****  ****    0 ROOT
