@<TRIPOS>MOLECULE
F1H
   44    42     1     0     0
SMALL
bcc


@<TRIPOS>ATOM
      1 C16         3.8660    2.7280   -1.4350 c1        1 F1H     -0.051500
      2 C17         5.1280    2.9750   -1.9620 c1        1 F1H     -0.073250
      3 C20         4.8250    2.5100    0.7530 c1        1 F1H     -0.073250
      4 C15         3.7170    2.4960   -0.0790 c1        1 F1H     -0.054100
      5 C12         0.3630    1.7630   -0.3350 c3        1 F1H      0.168300
      6 C13        -0.5700    0.6250   -0.7200 c3        1 F1H     -0.092400
      7 C14         2.4090    2.4130    0.7050 c3        1 F1H      0.180900
      8 C10         1.4420    0.3250    1.3350 c3        1 F1H      0.168300
      9 C9          0.5130   -0.8200    0.9560 c3        1 F1H     -0.092400
     10 C7         -5.9510   -3.9850   -0.3530 c3        1 F1H      0.006700
     11 C5         -3.6640   -2.9820   -0.1690 c3        1 F1H     -0.156400
     12 C6         -5.1270   -2.8780    0.2990 c3        1 F1H     -0.070400
     13 C3         -2.8600   -1.7770    0.3770 c         1 F1H      0.661100
     14 C1         -0.7710   -0.3410    0.3880 c3        1 F1H      0.097700
     15 O4         -3.3490   -1.0540    1.2160 o         1 F1H     -0.610100
     16 S8         -7.6690   -3.7580    0.0470 sh        1 F1H     -0.375900
     17 N2         -1.5350   -1.5070   -0.1250 n         1 F1H     -0.570900
     18 N11         1.6340    1.2830    0.2340 n3        1 F1H     -0.730600
     19 C18         6.2370    2.9890   -1.1290 c1        1 F1H     -0.073250
     20 C19         6.0880    2.7570    0.2250 c1        1 F1H     -0.073250
     21 H16         3.0920    2.7190   -2.0160 ha        1 F1H      0.087500
     22 H17         5.2330    3.1390   -2.9160 ha        1 F1H      0.073000
     23 H20         4.7200    2.3470    1.7050 ha        1 F1H      0.073000
     24 H12        -0.0850    2.3290    0.3250 h1        1 F1H      0.036700
     25 H12A        0.5560    2.2970   -1.1300 h1        1 F1H      0.036700
     26 H13        -1.4360    0.9980   -0.9760 hc        1 F1H      0.051950
     27 H13A       -0.1900    0.1500   -1.4880 hc        1 F1H      0.051950
     28 H14         1.8970    3.2370    0.5730 h1        1 F1H      0.039700
     29 H14A        2.6070    2.2990    1.6610 h1        1 F1H      0.039700
     30 H10         1.0620    0.7990    2.1040 h1        1 F1H      0.036700
     31 H10A        2.3110   -0.0430    1.5890 h1        1 F1H      0.036700
     32 H9          0.9590   -1.3830    0.2950 hc        1 F1H      0.051950
     33 H9A         0.3270   -1.3540    1.7530 hc        1 F1H      0.051950
     34 H7         -5.6510   -4.8520   -0.0200 h1        1 F1H      0.063200
     35 H7A        -5.8340   -3.9490   -1.3230 h1        1 F1H      0.063200
     36 H5         -3.6340   -2.9780   -1.1500 hc        1 F1H      0.073200
     37 H5A        -3.2720   -3.8170    0.1670 hc        1 F1H      0.073200
     38 H6         -5.1650   -2.9730    1.2730 hc        1 F1H      0.062700
     39 H6A        -5.4890   -2.0090    0.0420 hc        1 F1H      0.062700
     40 H1         -1.2880    0.0910    1.0930 h1        1 F1H      0.089700
     41 HS8        -8.2930   -4.6580   -0.3810 hs        1 F1H      0.203800
     42 HN2        -1.1470   -2.0800   -0.7200 hn        1 F1H      0.308500
     43 H18         7.1230    3.1620   -1.5000 ha        1 F1H      0.073000
     44 H19         6.8690    2.7670    0.8110 ha        1 F1H      0.073000
@<TRIPOS>BOND
     1    1    4 3   
     2    1   21 1   
     3    2   19 3   
     4    2   22 1   
     5    3   20 3   
     6    3   23 1   
     7    4    7 1   
     8    5    6 1   
     9    5   18 1   
    10    5   24 1   
    11    5   25 1   
    12    6   14 1   
    13    6   26 1   
    14    6   27 1   
    15    7   18 1   
    16    7   28 1   
    17    7   29 1   
    18    8    9 1   
    19    8   18 1   
    20    8   30 1   
    21    8   31 1   
    22    9   14 1   
    23    9   32 1   
    24    9   33 1   
    25   10   12 1   
    26   10   16 1   
    27   10   34 1   
    28   10   35 1   
    29   11   12 1   
    30   11   13 1   
    31   11   36 1   
    32   11   37 1   
    33   12   38 1   
    34   12   39 1   
    35   13   15 2   
    36   13   17 1   
    37   14   17 1   
    38   14   40 1   
    39   16   41 1   
    40   17   42 1   
    41   19   43 1   
    42   20   44 1   
@<TRIPOS>SUBSTRUCTURE
     1 F1H         1 TEMP              0 ****  ****    0 ROOT
