@<TRIPOS>MOLECULE
F1I
   53    48     1     0     0
SMALL
bcc


@<TRIPOS>ATOM
      1 C28        -0.2250   -0.0130   -0.4340 c3        1 F1I     -0.084000
      2 C27         8.2060   -3.9890    6.0080 c2        1 F1I     -0.254000
      3 O25         1.0960    0.0720   -0.9670 os        1 F1I     -0.269000
      4 C16         4.0250   -0.4460    1.2210 c2        1 F1I      0.036000
      5 C17         4.3540    0.1930    2.3700 c2        1 F1I     -0.144000
      6 C20         2.0520   -0.7200   -0.2840 c3        1 F1I      0.116000
      7 C15         3.2270    0.1340    0.1380 c2        1 F1I     -0.150000
      8 C12         2.9320   -1.2920   -2.5460 c3        1 F1I     -0.185000
      9 C13         7.4580   -3.5500    5.0480 c1        1 F1I      0.245000
     10 C14         3.4660    1.3390   -0.3980 c2        1 F1I     -0.103000
     11 C10         1.4330   -2.8410   -1.4080 c3        1 F1I     -0.185000
     12 C9          5.9820   -2.6760    3.1550 c1        1 F1I      0.127000
     13 C7          3.9590   -7.6650   -5.1040 c1        1 F1I     -0.952000
     14 C5          4.0470   -6.3140   -3.0570 c3        1 F1I     -0.182000
     15 C6          4.6150   -6.5900   -4.4430 c3        1 F1I     -0.002000
     16 C1          6.7120   -3.1100    4.0910 c1        1 F1I     -0.479000
     17 O4          4.0170   -4.0880   -2.1090 o         1 F1I     -0.496000
     18 S8          3.3560   -8.7040   -5.7870 sh        1 F1I      1.124000
     19 N2          6.0270   -5.1310   -2.1310 n         1 F1I     -0.412000
     20 N11         2.5040   -1.8330   -1.2340 n4        1 F1I     -0.016000
     21 C18         3.9580    1.5410    2.6830 c2        1 F1I     -0.421000
     22 C19         3.5700    2.4740    1.8310 c1        1 F1I      0.172000
     23 H28        -0.8180    0.6680   -1.0970 h1        1 F1I      0.099667
     24 H28A       -0.6070   -1.0610   -0.4950 h1        1 F1I      0.099667
     25 H28B       -0.2410    0.3520    0.6220 h1        1 F1I      0.099667
     26 H27         4.9340   -2.0960    1.7160 ho        1 F1I      0.294000
     27 H27A        7.8300   -4.6750    6.7860 ha        1 F1I      0.199500
     28 H27B        9.2680   -3.7030    6.1090 ha        1 F1I      0.199500
     29 H17         4.9520   -0.3370    3.1330 ha        1 F1I      0.158000
     30 H12         5.6620   -2.3740   -0.8750 ha        1 F1I      0.006000
     31 H12A        5.4410   -2.1430   -1.4730 ha        1 F1I      0.006000
     32 H13         3.3640   -2.1320   -3.1550 hx        1 F1I      0.136667
     33 H13A        3.7160   -0.5070   -2.3710 hx        1 F1I      0.136667
     34 H14         2.0540   -0.8330   -3.0700 hx        1 F1I      0.136667
     35 H14A        4.3500    1.9480   -0.1380 ha        1 F1I      0.158000
     36 H10         2.8030    1.7790   -1.1590 ha        1 F1I      0.158000
     37 H10A        0.5470   -2.3640   -1.9030 hx        1 F1I      0.136667
     38 H9          1.8270   -3.6810   -2.0470 hx        1 F1I      0.136667
     39 H9A         1.1390   -3.2480   -0.4050 hx        1 F1I      0.136667
     40 H7          2.0890  -10.5680   -6.6720 ha        1 F1I      0.006000
     41 H7A         4.5270   -5.6540   -5.0670 hc        1 F1I      0.091500
     42 H5          1.7800  -10.4700   -6.0730 ha        1 F1I      0.006000
     43 H5A         4.1890   -7.2120   -2.4000 hc        1 F1I      0.114500
     44 H6          5.7160   -6.8190   -4.3580 hc        1 F1I      0.091500
     45 H6A         2.9460   -6.1180   -3.1330 hc        1 F1I      0.114500
     46 H1          6.4610   -4.3450   -1.7100 hn        1 F1I      0.234500
     47 HS8         3.9240   -8.9090   -6.9460 hs        1 F1I     -0.303000
     48 HN2         3.3290   -2.3000   -0.8000 hn        1 F1I      0.298000
     49 H18         3.9960    1.8110    3.7610 ha        1 F1I      0.201000
     50 H19         1.6110   -1.2370    0.6230 hx        1 F1I      0.143000
     51 C3          4.6910   -5.1090   -2.4090 c2        1 F1I      0.328000
     52 H22         6.5830   -5.9120   -2.3720 hn        1 F1I      0.234500
     53 O26         4.3680   -1.7560    0.9730 oh        1 F1I     -0.343000
@<TRIPOS>BOND
     1    1    3 1   
     2    1   23 1   
     3    1   24 1   
     4    1   25 1   
     5    2    9 1   
     6    2   27 1   
     7    2   28 1   
     8    3    6 1   
     9    4    5 1   
    10    4    7 1   
    11    4   53 1   
    12    5   21 1   
    13    5   29 1   
    14    6    7 1   
    15    6   20 1   
    16    6   50 1   
    17    7   10 1   
    18    8   20 1   
    19    8   32 1   
    20    8   33 1   
    21    8   34 1   
    22    9   16 1   
    23   10   35 1   
    24   10   36 1   
    25   11   20 1   
    26   11   37 1   
    27   11   38 1   
    28   11   39 1   
    29   12   16 1   
    30   13   15 1   
    31   13   18 1   
    32   14   15 1   
    33   14   43 1   
    34   14   45 1   
    35   14   51 1   
    36   15   41 1   
    37   15   44 1   
    38   17   51 1   
    39   18   47 1   
    40   19   46 1   
    41   19   51 1   
    42   19   52 1   
    43   20   48 1   
    44   21   22 1   
    45   21   49 1   
    46   26   53 1   
    47   30   31 1   
    48   40   42 1   
@<TRIPOS>SUBSTRUCTURE
     1 F1I         1 TEMP              0 ****  ****    0 ROOT
