@<TRIPOS>MOLECULE
F1I
   52    53     1     0     0
SMALL
bcc


@<TRIPOS>ATOM
      1 C28        -3.4870    3.9820    0.4530 c3        1 F1I      0.113700
      2 C27        -5.0490   -2.8850   -0.9200 c3        1 F1I      0.113700
      3 O25        -3.2590    2.5960    0.6810 os        1 F1I     -0.327400
      4 C16        -4.5350   -0.5890   -0.5410 ca        1 F1I      0.161600
      5 C17        -5.4540   -0.1900   -1.5220 ca        1 F1I     -0.236000
      6 C20        -4.0130    1.7190   -0.0770 ca        1 F1I      0.161600
      7 C15        -3.8070    0.3560    0.2070 ca        1 F1I     -0.126300
      8 C12        -1.0450   -1.6460    0.7730 c3        1 F1I      0.180300
      9 C13         0.3180   -1.8490    0.1150 c3        1 F1I     -0.092400
     10 C14        -2.8370   -0.0770    1.2670 c3        1 F1I      0.244100
     11 C10        -0.5230    0.6760    1.2540 c3        1 F1I      0.180300
     12 C9          0.8530    0.5340    0.6100 c3        1 F1I     -0.092400
     13 C7          6.9440   -0.3690   -0.9750 c3        1 F1I      0.007700
     14 C5          5.1100   -1.5510    0.2100 c3        1 F1I     -0.156400
     15 C6          5.5370   -0.2540   -0.4440 c3        1 F1I     -0.070400
     16 C1          1.3580   -0.9120    0.7500 c3        1 F1I      0.096700
     17 O4          3.7080   -1.6110    2.1670 o         1 F1I     -0.611100
     18 S8          7.2850    1.1220   -1.8710 sh        1 F1I     -0.376900
     19 N2          2.6750   -1.0950    0.1830 n         1 F1I     -0.569900
     20 N11        -1.4960   -0.2660    0.7300 n3        1 F1I     -0.746600
     21 C18        -5.6390    1.1670   -1.7690 ca        1 F1I     -0.063000
     22 C19        -4.9290    2.1290   -1.0560 ca        1 F1I     -0.236000
     23 H28        -3.2210    4.2580   -0.5960 h1        1 F1I      0.044367
     24 H28A       -4.5490    4.2500    0.6720 h1        1 F1I      0.044367
     25 H28B       -2.7960    4.4810    1.1790 h1        1 F1I      0.044367
     26 H27        -4.8400   -2.8450   -2.0170 h1        1 F1I      0.044367
     27 H27A       -4.6930   -3.8540   -0.4870 h1        1 F1I      0.044367
     28 H27B       -6.1390   -2.7420   -0.7230 h1        1 F1I      0.044367
     29 H17        -6.0230   -0.9300   -2.1000 ha        1 F1I      0.137000
     30 H12        -1.8110   -2.2660    0.2250 h1        1 F1I      0.036200
     31 H12A       -0.9870   -2.0330    1.8350 h1        1 F1I      0.036200
     32 H13         0.6210   -2.9180    0.2570 hc        1 F1I      0.049450
     33 H13A        0.2430   -1.6520   -0.9860 hc        1 F1I      0.049450
     34 H14        -2.8350    0.7080    2.0800 h1        1 F1I      0.050700
     35 H14A       -3.2240   -1.0340    1.7260 h1        1 F1I      0.050700
     36 H10        -0.4030    0.5720    2.3740 h1        1 F1I      0.036200
     37 H10A       -0.9180    1.7130    1.0480 h1        1 F1I      0.036200
     38 H9          0.7990    0.8200   -0.4720 hc        1 F1I      0.049450
     39 H9A         1.5550    1.2420    1.1210 hc        1 F1I      0.049450
     40 H7          7.6700   -0.4970   -0.1360 h1        1 F1I      0.062200
     41 H7A         7.0390   -1.2550   -1.6490 h1        1 F1I      0.062200
     42 H5          5.0320   -2.3670   -0.5550 hc        1 F1I      0.072200
     43 H5A         5.8750   -1.8660    0.9700 hc        1 F1I      0.072200
     44 H6          5.4820    0.5820    0.3030 hc        1 F1I      0.063200
     45 H6A         4.8400    0.0030   -1.2870 hc        1 F1I      0.063200
     46 H1          1.4260   -1.1560    1.8550 h1        1 F1I      0.088700
     47 HS8         8.5470    0.8920   -2.1850 hs        1 F1I      0.202800
     48 HN2         2.7820   -0.9070   -0.7830 hn        1 F1I      0.307500
     49 H18        -6.3560    1.4850   -2.5410 ha        1 F1I      0.131000
     50 H19        -5.0890    3.1940   -1.2710 ha        1 F1I      0.137000
     51 O26        -4.2770   -1.9110   -0.2270 os        1 F1I     -0.327400
     52 C3          3.7830   -1.4130    0.9380 c         1 F1I      0.660100
@<TRIPOS>BOND
     1    1    3 1   
     2    1   23 1   
     3    1   24 1   
     4    1   25 1   
     5    2   26 1   
     6    2   27 1   
     7    2   28 1   
     8    2   51 1   
     9    3    6 1   
    10    4    5 ar  
    11    4    7 ar  
    12    4   51 1   
    13    5   21 ar  
    14    5   29 1   
    15    6    7 ar  
    16    6   22 ar  
    17    7   10 1   
    18    8    9 1   
    19    8   20 1   
    20    8   30 1   
    21    8   31 1   
    22    9   16 1   
    23    9   32 1   
    24    9   33 1   
    25   10   20 1   
    26   10   34 1   
    27   10   35 1   
    28   11   12 1   
    29   11   20 1   
    30   11   36 1   
    31   11   37 1   
    32   12   16 1   
    33   12   38 1   
    34   12   39 1   
    35   13   15 1   
    36   13   18 1   
    37   13   40 1   
    38   13   41 1   
    39   14   15 1   
    40   14   42 1   
    41   14   43 1   
    42   14   52 1   
    43   15   44 1   
    44   15   45 1   
    45   16   19 1   
    46   16   46 1   
    47   17   52 2   
    48   18   47 1   
    49   19   48 1   
    50   19   52 1   
    51   21   22 ar  
    52   21   49 1   
    53   22   50 1   
@<TRIPOS>SUBSTRUCTURE
     1 F1I         1 TEMP              0 ****  ****    0 ROOT
