@<TRIPOS>MOLECULE
F1I
   53    47     1     0     0
SMALL
bcc


@<TRIPOS>ATOM
      1 C28         0.6060    0.0840    0.2160 c3        1 F1I     -0.086000
      2 C27         6.7690   -0.9620    5.2480 c1        1 F1I     -0.047000
      3 O25         0.8870   -1.2430   -0.2260 os        1 F1I     -0.244000
      4 C16         4.8440   -0.3620    2.3490 c2        1 F1I      0.192000
      5 C17         4.0650   -1.1580    3.1220 c2        1 F1I     -0.260000
      6 C20         1.4710   -2.0710    0.7140 c2        1 F1I      0.023000
      7 C15         4.3850    0.4370    1.2760 c1        1 F1I     -0.133000
      8 C12         4.1970   -0.5910   -2.4800 c3        1 F1I     -0.089000
      9 C13         4.4380   -2.0480   -2.2830 c2        1 F1I      0.033000
     10 C14         3.9980    1.1490    0.3940 c1        1 F1I     -0.178000
     11 C10         2.0830   -0.3430   -3.6610 c3        1 F1I     -0.127000
     12 C9          3.7010   -4.3580   -1.7220 c1        1 F1I      0.089000
     13 C7          2.5170   -8.2830   -5.6770 c1        1 F1I     -0.243000
     14 C5          4.1150   -7.0640   -1.7500 c3        1 F1I     -0.279000
     15 C6          1.4790   -8.8960   -6.1790 c2        1 F1I     -0.257000
     16 C1          3.5060   -2.9690   -1.9370 c2        1 F1I     -0.348000
     17 O4          5.0320   -4.7550   -1.8880 os        1 F1I     -0.215000
     18 S8          3.6760   -7.5970   -5.1320 s         1 F1I      0.165000
     19 N2          6.5260   -6.4170   -1.6760 n3        1 F1I     -0.268000
     20 N11         2.8590   -0.0720   -2.4810 n3        1 F1I     -0.312000
     21 C18         2.6540   -1.4160    2.9450 c2        1 F1I      0.011000
     22 C19         2.0670   -1.6970    1.8130 c1        1 F1I     -0.290000
     23 H28        -0.0890    0.0610    1.0900 h1        1 F1I      0.091000
     24 H28A        1.5560    0.6070    0.4900 h1        1 F1I      0.091000
     25 H28B        0.1210    0.5660   -0.6690 h1        1 F1I      0.091000
     26 H27         7.4280   -0.2580    5.7740 ha        1 F1I      0.047000
     27 H27A        6.4190   -0.5860    3.4630 ho        1 F1I      0.275000
     28 H27B        6.3920   -1.7660    5.8930 ha        1 F1I      0.047000
     29 H17         4.5240   -1.6630    3.9920 ha        1 F1I      0.141000
     30 H12         6.3500   -1.3280   -0.3530 ha        1 F1I      0.001250
     31 H12A        6.3760   -0.9850    0.2320 ha        1 F1I      0.001250
     32 H13         4.7010   -0.2890   -3.4480 h1        1 F1I      0.140500
     33 H13A        5.4960   -2.3490   -2.4180 ha        1 F1I      0.133000
     34 H14         4.7560   -0.0720   -1.6330 h1        1 F1I      0.140500
     35 H14A        3.6470    1.7830   -0.3840 ha        1 F1I      0.239000
     36 H10         2.3610   -0.3220   -1.6440 hn        1 F1I      0.188000
     37 H10A        1.0810    0.1500   -3.5440 h1        1 F1I      0.078333
     38 H9          2.5980    0.0980   -4.5560 h1        1 F1I      0.078333
     39 H9A         1.9200   -1.4400   -3.8500 h1        1 F1I      0.078333
     40 H7          1.4670   -9.9810   -6.3710 ha        1 F1I      0.177000
     41 H7A         6.2550   -9.3330   -1.1750 ha        1 F1I      0.001250
     42 H5          4.3920   -8.0330   -1.2660 hc        1 F1I      0.172333
     43 H5A         6.8200   -9.7050   -1.1260 ha        1 F1I      0.001250
     44 H6          3.8090   -7.2650   -2.8280 hc        1 F1I      0.172333
     45 H6A         3.2270   -6.6110   -1.2280 hc        1 F1I      0.172333
     46 H1          6.8050   -7.3770   -1.6070 hn        1 F1I      0.284500
     47 HS8         0.5510   -8.3690   -6.4500 ha        1 F1I      0.177000
     48 HN2         2.4470   -2.6700   -1.7650 ha        1 F1I      0.197000
     49 H18         2.0580   -1.4050    3.8810 ha        1 F1I      0.139000
     50 H19         1.3770   -3.1180    0.3750 h4        1 F1I      0.163000
     51 C3          5.2390   -6.0970   -1.7520 c2        1 F1I      0.365000
     52 H22         7.2400   -5.7150   -1.6990 hn        1 F1I      0.284500
     53 O26         6.1960   -0.2360    2.5560 oh        1 F1I     -0.302000
@<TRIPOS>BOND
     1    1    3 1   
     2    1   23 1   
     3    1   24 1   
     4    1   25 1   
     5    2   26 1   
     6    2   28 1   
     7    3    6 1   
     8    4    5 1   
     9    4    7 1   
    10    4   53 1   
    11    5   21 1   
    12    5   29 1   
    13    6   22 1   
    14    6   50 1   
    15    7   10 1   
    16    8    9 1   
    17    8   20 1   
    18    8   32 1   
    19    8   34 1   
    20    9   16 1   
    21    9   33 1   
    22   10   35 1   
    23   11   20 1   
    24   11   37 1   
    25   11   38 1   
    26   11   39 1   
    27   12   16 1   
    28   12   17 1   
    29   13   15 1   
    30   13   18 1   
    31   14   42 1   
    32   14   44 1   
    33   14   45 1   
    34   14   51 1   
    35   15   40 1   
    36   15   47 1   
    37   16   48 1   
    38   17   51 1   
    39   19   46 1   
    40   19   51 1   
    41   19   52 1   
    42   20   36 1   
    43   21   22 1   
    44   21   49 1   
    45   27   53 1   
    46   30   31 1   
    47   41   43 1   
@<TRIPOS>SUBSTRUCTURE
     1 F1I         1 TEMP              0 ****  ****    0 ROOT
