@<TRIPOS>MOLECULE
F1J
   40    37     1     0     0
SMALL
bcc


@<TRIPOS>ATOM
      1 C15        -2.3770    0.3570    1.0140 c1        1 F1J      0.541500
      2 C12         4.8410   -1.9350   -2.5680 c1        1 F1J     -0.110500
      3 C13         3.9230   -2.1530   -1.5330 c1        1 F1J     -0.045500
      4 C11         4.4400   -1.2360   -3.7370 c1        1 F1J      0.092100
      5 C10         3.1390   -0.7710   -3.8530 c1        1 F1J     -0.070000
      6 C9          2.2210   -0.9920   -2.8120 c1        1 F1J     -0.070000
      7 C8          2.6240   -1.6890   -1.6480 c1        1 F1J     -0.069100
      8 C7          1.5500   -2.0680   -0.5380 c3        1 F1J      0.180900
      9 C4         -0.2920   -0.8420    0.1330 c3        1 F1J      0.099500
     10 C5         -0.8170    0.3440    0.9450 c2        1 F1J      0.222200
     11 C2          1.7070   -0.9280    1.3930 c3        1 F1J      0.160800
     12 C1          1.2300    0.2080    2.2280 c3        1 F1J     -0.012700
     13 O17        -3.0110   -0.7160    1.2860 o         1 F1J     -0.597500
     14 N16        -3.1130    1.6230    0.8350 n3        1 F1J     -0.411400
     15 C18        -4.2450    1.8930    1.6230 c3        1 F1J      0.032300
     16 C19        -5.0750    3.0810    0.9710 c3        1 F1J     -0.030300
     17 S20        -6.3160    3.6600    2.1310 sh        1 F1J     -0.361900
     18 N6         -0.2240    0.3130    2.2550 nh        1 F1J     -0.376100
     19 N3          1.1620   -0.9350    0.1300 n3        1 F1J     -0.732600
     20 F14         5.3320   -0.9950   -4.7150 f         1 F1J     -0.109100
     21 H12         5.7550   -2.2630   -2.4850 ha        1 F1J      0.091500
     22 H13         4.2100   -2.6530   -0.6950 ha        1 F1J      0.080500
     23 H10         2.8400   -0.2560   -4.7140 ha        1 F1J      0.092000
     24 H9          1.3600   -0.6850   -2.8880 ha        1 F1J      0.092000
     25 H7          0.7930   -2.4650   -0.9530 h1        1 F1J      0.045200
     26 H7A         1.9590   -2.7250    0.1210 h1        1 F1J      0.045200
     27 H4         -0.6630   -1.6790    0.5240 h1        1 F1J      0.060200
     28 H4A        -0.6060   -0.7580   -0.7900 h1        1 F1J      0.060200
     29 H5         -0.6330    1.2250    0.4720 h4        1 F1J     -0.049200
     30 H2          2.7020   -0.8690    1.3100 h1        1 F1J      0.046200
     31 H2A         1.4780   -1.7740    1.8440 h1        1 F1J      0.046200
     32 H1          1.5660    0.0780    3.1820 h1        1 F1J      0.039200
     33 H1A         1.6020    1.0370    1.8750 h1        1 F1J      0.039200
     34 HN16       -2.8380    2.2150    0.2330 hn        1 F1J      0.269700
     35 H18        -3.9730    2.1410    2.4900 h1        1 F1J      0.071200
     36 H18A       -4.8160    1.0770    1.6730 h1        1 F1J      0.071200
     37 H19        -5.5100    2.7670    0.1630 h1        1 F1J      0.078200
     38 H19A       -4.4650    3.8240    0.7480 h1        1 F1J      0.078200
     39 HS20       -6.9840    4.4590    1.6130 hs        1 F1J      0.205800
     40 HN6        -0.4760    1.0850    2.7350 hn        1 F1J      0.205700
@<TRIPOS>BOND
     1    1   13 2   
     2    1   14 2   
     3    2    4 3   
     4    2   21 1   
     5    3    7 3   
     6    3   22 1   
     7    4   20 1   
     8    5    6 3   
     9    5   23 1   
    10    6   24 1   
    11    7    8 1   
    12    8   19 1   
    13    8   25 1   
    14    8   26 1   
    15    9   10 1   
    16    9   19 1   
    17    9   27 1   
    18    9   28 1   
    19   10   18 2   
    20   10   29 1   
    21   11   12 1   
    22   11   19 1   
    23   11   30 1   
    24   11   31 1   
    25   12   18 1   
    26   12   32 1   
    27   12   33 1   
    28   14   15 1   
    29   14   34 1   
    30   15   16 1   
    31   15   35 1   
    32   15   36 1   
    33   16   17 1   
    34   16   37 1   
    35   16   38 1   
    36   17   39 1   
    37   18   40 1   
@<TRIPOS>SUBSTRUCTURE
     1 F1J         1 TEMP              0 ****  ****    0 ROOT
