@<TRIPOS>MOLECULE
F1J
   40    42     1     0     0
SMALL
bcc


@<TRIPOS>ATOM
      1 C15         0.5020    1.2590    0.1180 c2        1 F1J      0.270000
      2 C12         6.5230   -3.6720   -1.1160 c3        1 F1J     -0.054000
      3 C13         5.3000   -3.1770   -1.7460 cu        1 F1J     -0.159000
      4 C11         7.5340   -2.6950   -1.7620 c2        1 F1J      0.025000
      5 C10         6.9960   -1.9090   -2.7420 c2        1 F1J     -0.196000
      6 C9          5.5820   -2.3180   -2.9820 cx        1 F1J     -0.090000
      7 C8          4.5110   -2.1310   -1.9500 cu        1 F1J     -0.131000
      8 C7          3.3120   -1.3690   -1.6850 c3        1 F1J     -0.084000
      9 C4          1.4300   -1.1190   -0.0330 c3        1 F1J     -0.035000
     10 C5          1.1740    0.1530    0.6550 c2        1 F1J     -0.440000
     11 C2          3.7260   -0.2790    0.4910 c3        1 F1J     -0.130000
     12 C1          3.1870    0.0070    1.9070 c3        1 F1J     -0.099000
     13 O17         0.2990    2.3720    0.6590 o         1 F1J     -0.416000
     14 N16        -0.0820    1.1760   -1.2670 n4        1 F1J     -0.131000
     15 C18        -1.1980    0.2090   -1.4180 c3        1 F1J     -0.129000
     16 C19        -1.0610   -0.6160   -2.7050 c3        1 F1J     -0.153000
     17 S20         0.6320   -0.6980   -3.1940 s         1 F1J     -0.783000
     18 N6          1.7460    0.2300    1.9680 n3        1 F1J     -0.187000
     19 N3          2.9410   -1.3250   -0.2330 n4        1 F1J     -0.005000
     20 H12         6.7710   -4.7280   -1.3900 hc        1 F1J      0.128000
     21 H13         6.5200   -3.5750   -0.0030 hc        1 F1J      0.128000
     22 H10         5.3090   -2.5490   -4.0230 hc        1 F1J      0.154000
     23 H9          7.5080   -1.1530   -3.3370 ha        1 F1J      0.168000
     24 H7          3.4310   -0.3100   -2.0630 hx        1 F1J      0.196500
     25 H7A         2.4210   -1.7990   -2.2810 hx        1 F1J      0.196500
     26 H4          3.1800   -2.2310    0.1790 hn        1 F1J      0.214000
     27 H4A         1.1100   -1.9960    0.6010 hx        1 F1J      0.147500
     28 H5          0.9350   -1.2010   -1.0560 hx        1 F1J      0.147500
     29 H2          3.7810    0.8760    2.3080 h1        1 F1J      0.087000
     30 H2A         3.6780    0.6710   -0.1120 hx        1 F1J      0.120000
     31 H1          4.7970   -0.6180    0.5500 hx        1 F1J      0.120000
     32 H1A         3.3980   -0.8820    2.5680 h1        1 F1J      0.087000
     33 HN16       -0.3970    2.1100   -1.5290 hn        1 F1J      0.256000
     34 H18         0.6760    0.8310   -1.9790 hn        1 F1J      0.256000
     35 H18A       -1.1920   -0.4790   -0.5250 hx        1 F1J      0.116000
     36 H19        -2.1720    0.7710   -1.4190 hx        1 F1J      0.116000
     37 H19A       -1.4650   -1.6380   -2.5230 h1        1 F1J      0.097500
     38 HS20       -1.6520   -0.1450   -3.5260 h1        1 F1J      0.097500
     39 HN6         1.5420    1.1280    2.3740 hn        1 F1J      0.176000
     40 F14         8.7980   -2.6910   -1.3220 f         1 F1J     -0.085000
@<TRIPOS>BOND
     1    1   10 1   
     2    1   13 1   
     3    1   14 1   
     4    2    3 1   
     5    2    4 1   
     6    2   20 1   
     7    2   21 1   
     8    3    6 1   
     9    3    7 1   
    10    4    5 1   
    11    4   40 1   
    12    5    6 1   
    13    5   23 1   
    14    6    7 1   
    15    6   22 1   
    16    7    8 1   
    17    8   19 1   
    18    8   24 1   
    19    8   25 1   
    20    9   10 1   
    21    9   19 1   
    22    9   27 1   
    23    9   28 1   
    24   10   18 1   
    25   11   12 1   
    26   11   19 1   
    27   11   30 1   
    28   11   31 1   
    29   12   18 1   
    30   12   29 1   
    31   12   32 1   
    32   14   15 1   
    33   14   33 1   
    34   14   34 1   
    35   15   16 1   
    36   15   35 1   
    37   15   36 1   
    38   16   17 1   
    39   16   37 1   
    40   16   38 1   
    41   18   39 1   
    42   19   26 1   
@<TRIPOS>SUBSTRUCTURE
     1 F1J         1 TEMP              0 ****  ****    0 ROOT
