@<TRIPOS>MOLECULE
F1J
   40    41     1     0     0
SMALL
bcc


@<TRIPOS>ATOM
      1 C15         2.7320    0.2910    1.1330 c         1 F1J      0.653100
      2 C12        -5.3860   -0.6160   -1.4470 ca        1 F1J     -0.169000
      3 C13        -4.0010   -0.7270   -1.5220 ca        1 F1J     -0.093000
      4 C11        -6.0040   -0.5200   -0.1870 ca        1 F1J      0.126900
      5 C10        -5.2270   -0.5390    0.9860 ca        1 F1J     -0.169000
      6 C9         -3.8450   -0.6550    0.8900 ca        1 F1J     -0.093000
      7 C8         -3.2230   -0.7490   -0.3600 ca        1 F1J     -0.105300
      8 C7         -1.7360   -0.9270   -0.4610 c3        1 F1J      0.217100
      9 C4          0.4380   -0.3000    0.3710 c3        1 F1J      0.172800
     10 C5          1.2550    0.7310    1.1940 c3        1 F1J      0.100500
     11 C2         -1.1670    1.4190   -0.1860 c3        1 F1J      0.161800
     12 C1         -0.3450    2.4500    0.6110 c3        1 F1J      0.163800
     13 O17         3.2130   -0.3650    2.0780 o         1 F1J     -0.612100
     14 N16         3.4770    0.6350    0.0300 n         1 F1J     -0.559900
     15 C18         4.8450    0.2340   -0.1370 c3        1 F1J      0.088000
     16 C19         5.0460   -0.9340   -1.0990 c3        1 F1J     -0.028300
     17 S20         6.7570   -1.2900   -1.3320 sh        1 F1J     -0.362900
     18 N6          1.0560    2.0950    0.7210 n3        1 F1J     -0.826200
     19 N3         -0.9720    0.0580    0.2950 n3        1 F1J     -0.730600
     20 H12        -6.0000   -0.6010   -2.3590 ha        1 F1J      0.149500
     21 H13        -3.5190   -0.8000   -2.5100 ha        1 F1J      0.144000
     22 H10        -5.7200   -0.4640    1.9660 ha        1 F1J      0.149500
     23 H9         -3.2330   -0.6710    1.8060 ha        1 F1J      0.144000
     24 H7         -1.4830   -1.9440   -0.0400 h1        1 F1J      0.043200
     25 H7A        -1.4380   -0.9290   -1.5530 h1        1 F1J      0.043200
     26 H4          0.9000   -0.4010   -0.6540 h1        1 F1J      0.045200
     27 H4A         0.5220   -1.2930    0.8950 h1        1 F1J      0.045200
     28 H5          0.9510    0.6200    2.2810 h1        1 F1J      0.070700
     29 H2         -2.2580    1.6700   -0.0640 h1        1 F1J      0.044700
     30 H2A        -0.9070    1.5160   -1.2800 h1        1 F1J      0.044700
     31 H1         -0.3980    3.4340    0.0660 h1        1 F1J      0.041700
     32 H1A        -0.8290    2.5860    1.6220 h1        1 F1J      0.041700
     33 HN16        3.0440    1.1220   -0.7180 hn        1 F1J      0.326500
     34 H18         5.4290    1.1200   -0.5230 h1        1 F1J      0.069700
     35 H18A        5.2620   -0.0520    0.8730 h1        1 F1J      0.069700
     36 H19         4.4970   -1.8360   -0.7370 h1        1 F1J      0.078700
     37 H19A        4.6650   -0.6810   -2.1200 h1        1 F1J      0.078700
     38 HS20        7.0630   -1.7140   -0.1170 hs        1 F1J      0.205800
     39 HN6         1.5300    2.7370    1.3300 hn        1 F1J      0.372800
     40 F14        -7.3510   -0.4090   -0.1040 f         1 F1J     -0.140900
@<TRIPOS>BOND
     1    1   10 1   
     2    1   13 2   
     3    1   14 1   
     4    2    3 ar  
     5    2    4 ar  
     6    2   20 1   
     7    3    7 ar  
     8    3   21 1   
     9    4    5 ar  
    10    4   40 1   
    11    5    6 ar  
    12    5   22 1   
    13    6    7 ar  
    14    6   23 1   
    15    7    8 1   
    16    8   19 1   
    17    8   24 1   
    18    8   25 1   
    19    9   10 1   
    20    9   19 1   
    21    9   26 1   
    22    9   27 1   
    23   10   18 1   
    24   10   28 1   
    25   11   12 1   
    26   11   19 1   
    27   11   29 1   
    28   11   30 1   
    29   12   18 1   
    30   12   31 1   
    31   12   32 1   
    32   14   15 1   
    33   14   33 1   
    34   15   16 1   
    35   15   34 1   
    36   15   35 1   
    37   16   17 1   
    38   16   36 1   
    39   16   37 1   
    40   17   38 1   
    41   18   39 1   
@<TRIPOS>SUBSTRUCTURE
     1 F1J         1 TEMP              0 ****  ****    0 ROOT
