@<TRIPOS>MOLECULE
F1K
   44    45     1     0     0
SMALL
bcc


@<TRIPOS>ATOM
      1 C24        -0.1090    0.8430    1.3620 ca        1 F1K     -0.088500
      2 C23         1.0450    1.2130    0.6810 ca        1 F1K     -0.166000
      3 C22         1.9940    0.2290    0.3410 ca        1 F1K      0.148900
      4 C20         0.6170   -1.4660    1.3760 ca        1 F1K     -0.088500
      5 C12       -10.0480   -2.0700    4.1270 c3        1 F1K     -0.008300
      6 C11        -9.0080   -2.0660    3.0320 c3        1 F1K     -0.096400
      7 C10        -7.7920   -2.8650    3.4860 c3        1 F1K      0.099800
      8 C7         -5.5050   -3.7070    2.8570 c         1 F1K      0.530100
      9 C4         -3.4740   -2.3240    2.6710 c3        1 F1K      0.177800
     10 C5         -4.2430   -3.5030    2.0000 c3        1 F1K      0.117500
     11 C2         -2.8830   -1.4420    0.5250 c3        1 F1K      0.151800
     12 C1         -3.6150   -2.5850   -0.1970 c3        1 F1K      0.159800
     13 F25         3.1180    0.5790   -0.3250 f         1 F1K     -0.124900
     14 C21         1.7760   -1.1170    0.6910 ca        1 F1K     -0.166000
     15 C19        -0.3310   -0.4930    1.7130 ca        1 F1K     -0.132300
     16 C18        -1.5510   -0.8680    2.4970 c3        1 F1K      0.226100
     17 N3         -2.3930   -1.8590    1.8290 n3        1 F1K     -0.730600
     18 N6         -4.5950   -3.2960    0.6090 n3        1 F1K     -0.858200
     19 O9         -5.6070   -4.4250    3.8360 o         1 F1K     -0.404100
     20 N8         -6.7230   -2.9070    2.4480 n4        1 F1K     -0.666800
     21 S13       -11.3820   -1.0800    3.5220 sh        1 F1K     -0.338900
     22 H24        -0.8460    1.6160    1.6320 ha        1 F1K      0.141000
     23 H23         1.2280    2.2630    0.4090 ha        1 F1K      0.160000
     24 H20         0.4460   -2.5170    1.6570 ha        1 F1K      0.141000
     25 H12       -10.3900   -3.1100    4.3470 h1        1 F1K      0.075700
     26 H12A       -9.6330   -1.6410    5.0720 h1        1 F1K      0.075700
     27 H11        -9.4480   -2.5140    2.1000 hc        1 F1K      0.081200
     28 H11A       -8.7170   -1.0060    2.7990 hc        1 F1K      0.081200
     29 H10        -7.3490   -2.4100    4.4190 hx        1 F1K      0.112700
     30 H10A       -8.0880   -3.9290    3.7230 hx        1 F1K      0.112700
     31 H4         -3.0440   -2.7050    3.6400 h1        1 F1K      0.045700
     32 H4A        -4.2120   -1.5010    2.9130 h1        1 F1K      0.045700
     33 H5         -3.6330   -4.4490    2.1580 h1        1 F1K      0.113700
     34 H2         -3.5690   -0.5480    0.6000 h1        1 F1K      0.063200
     35 H2A        -1.9940   -1.1450   -0.1020 h1        1 F1K      0.063200
     36 H1         -2.8400   -3.2960   -0.6070 h1        1 F1K      0.068200
     37 H1A        -4.1820   -2.1470   -1.0680 h1        1 F1K      0.068200
     38 H21         2.5250   -1.8770    0.4260 ha        1 F1K      0.160000
     39 H18        -1.2150   -1.3260    3.4740 h1        1 F1K      0.049200
     40 H18A       -2.1420    0.0650    2.7400 h1        1 F1K      0.049200
     41 HN6        -4.7900   -4.1840    0.1790 hn        1 F1K      0.384800
     42 HN8        -6.4180   -1.9520    2.2210 hn        1 F1K      0.466800
     43 HS13      -12.2220   -1.2080    4.5380 hs        1 F1K      0.230800
     44 H82        -7.1010   -3.3190    1.5850 hn        1 F1K      0.466800
@<TRIPOS>BOND
     1    1    2 ar  
     2    1   15 ar  
     3    1   22 1   
     4    2    3 ar  
     5    2   23 1   
     6    3   13 1   
     7    3   14 ar  
     8    4   14 ar  
     9    4   15 ar  
    10    4   24 1   
    11    5    6 1   
    12    5   21 1   
    13    5   25 1   
    14    5   26 1   
    15    6    7 1   
    16    6   27 1   
    17    6   28 1   
    18    7   20 1   
    19    7   29 1   
    20    7   30 1   
    21    8   10 1   
    22    8   19 2   
    23    8   20 1   
    24    9   10 1   
    25    9   17 1   
    26    9   31 1   
    27    9   32 1   
    28   10   18 1   
    29   10   33 1   
    30   11   12 1   
    31   11   17 1   
    32   11   34 1   
    33   11   35 1   
    34   12   18 1   
    35   12   36 1   
    36   12   37 1   
    37   14   38 1   
    38   15   16 1   
    39   16   17 1   
    40   16   39 1   
    41   16   40 1   
    42   18   41 1   
    43   20   42 1   
    44   20   44 1   
    45   21   43 1   
@<TRIPOS>SUBSTRUCTURE
     1 F1K         1 TEMP              0 ****  ****    0 ROOT
