@<TRIPOS>MOLECULE
F1K
   44    45     1     0     0
SMALL
bcc


@<TRIPOS>ATOM
      1 C24        -0.1810    0.8990    1.1610 ca        1 F1K     -0.088500
      2 C23         0.9750    1.2370    0.4650 ca        1 F1K     -0.166000
      3 C22         1.9620    0.2570    0.2450 ca        1 F1K      0.148900
      4 C20         0.6190   -1.3690    1.4260 ca        1 F1K     -0.088500
      5 C12       -10.0740   -2.0560    4.0420 c3        1 F1K     -0.008300
      6 C11        -9.0130   -2.1290    2.9710 c3        1 F1K     -0.096400
      7 C10        -7.7810   -2.8350    3.5260 c3        1 F1K      0.099800
      8 C7         -5.4550   -3.6570    3.0260 c         1 F1K      0.530100
      9 C4         -3.4670   -2.2300    2.7330 c3        1 F1K      0.177800
     10 C5         -4.1830   -3.4980    2.1750 c3        1 F1K      0.117500
     11 C2         -2.8610   -1.5540    0.5170 c3        1 F1K      0.151800
     12 C1         -3.5400   -2.7900   -0.0950 c3        1 F1K      0.159800
     13 F25         3.0870    0.5750   -0.4340 f         1 F1K     -0.124900
     14 C21         1.7800   -1.0530    0.7290 ca        1 F1K     -0.166000
     15 C19        -0.3670   -0.4000    1.6440 ca        1 F1K     -0.132300
     16 C18        -1.5900   -0.7340    2.4420 c3        1 F1K      0.226100
     17 N3         -2.3840   -1.8170    1.8660 n3        1 F1K     -0.730600
     18 N6         -4.5130   -3.4480    0.7640 n7        1 F1K     -0.858200
     19 O9         -5.5530   -4.2730    4.0730 o         1 F1K     -0.404100
     20 N8         -6.6890   -2.9470    2.5160 ny        1 F1K     -0.666800
     21 S13       -11.4270   -1.1800    3.3150 sh        1 F1K     -0.338900
     22 H24        -0.9480    1.6700    1.3360 ha        1 F1K      0.141000
     23 H23         1.1280    2.2590    0.0880 ha        1 F1K      0.160000
     24 H20         0.4770   -2.3910    1.8110 ha        1 F1K      0.141000
     25 H12        -9.6920   -1.5180    4.9450 h1        1 F1K      0.075700
     26 H12A      -10.3870   -3.0800    4.3630 h1        1 F1K      0.075700
     27 H11        -9.4180   -2.6860    2.0830 hc        1 F1K      0.081200
     28 H11A       -8.7510   -1.0890    2.6340 hc        1 F1K      0.081200
     29 H10        -8.0460   -3.8780    3.8670 hx        1 F1K      0.112700
     30 H10A       -7.3720   -2.2710    4.4140 hx        1 F1K      0.112700
     31 H4         -4.2370   -1.4130    2.8750 h1        1 F1K      0.045700
     32 H4A        -3.0450   -2.4940    3.7430 h1        1 F1K      0.045700
     33 H5         -3.5460   -4.4010    2.4400 h1        1 F1K      0.113700
     34 H2         -1.9700   -1.2930   -0.1220 h1        1 F1K      0.063200
     35 H2A        -3.5780   -0.6820    0.4870 h1        1 F1K      0.063200
     36 H1         -2.7340   -3.5130   -0.4150 h1        1 F1K      0.068200
     37 H1A        -4.1030   -2.4650   -1.0160 h1        1 F1K      0.068200
     38 H21         2.5590   -1.8100    0.5570 ha        1 F1K      0.160000
     39 H18        -1.2590   -1.0760    3.4670 h1        1 F1K      0.049200
     40 H18A       -2.2160    0.1980    2.5760 h1        1 F1K      0.049200
     41 HN6        -4.6690   -4.3820    0.4250 hn        1 F1K      0.384800
     42 HN8        -7.0360   -3.4580    1.6940 hn        1 F1K      0.466800
     43 HS13      -12.2830   -1.2320    4.3250 hs        1 F1K      0.230800
     44 H82        -6.4120   -2.0100    2.1970 hn        1 F1K      0.466800
@<TRIPOS>BOND
     1    1    2 ar  
     2    1   15 ar  
     3    1   22 1   
     4    2    3 ar  
     5    2   23 1   
     6    3   13 1   
     7    3   14 ar  
     8    4   14 ar  
     9    4   15 ar  
    10    4   24 1   
    11    5    6 1   
    12    5   21 1   
    13    5   25 1   
    14    5   26 1   
    15    6    7 1   
    16    6   27 1   
    17    6   28 1   
    18    7   20 1   
    19    7   29 1   
    20    7   30 1   
    21    8   10 1   
    22    8   19 2   
    23    8   20 1   
    24    9   10 1   
    25    9   17 1   
    26    9   31 1   
    27    9   32 1   
    28   10   18 1   
    29   10   33 1   
    30   11   12 1   
    31   11   17 1   
    32   11   34 1   
    33   11   35 1   
    34   12   18 1   
    35   12   36 1   
    36   12   37 1   
    37   14   38 1   
    38   15   16 1   
    39   16   17 1   
    40   16   39 1   
    41   16   40 1   
    42   18   41 1   
    43   20   42 1   
    44   20   44 1   
    45   21   43 1   
@<TRIPOS>SUBSTRUCTURE
     1 F1K         1 TEMP              0 ****  ****    0 ROOT
