@<TRIPOS>MOLECULE
F1K
   43    40     1     0     0
SMALL
bcc


@<TRIPOS>ATOM
      1 C24         3.6750   -2.3030   -0.1850 c1        1 F1K     -0.070000
      2 C23         4.9190   -2.6510   -0.6860 c1        1 F1K     -0.070000
      3 C22         6.0590   -2.4520    0.0810 c1        1 F1K      0.092100
      4 C20         4.7080   -1.5530    1.8600 c1        1 F1K     -0.045500
      5 C12        -6.1690    1.6400   -2.4180 c3        1 F1K      0.011700
      6 C11        -5.0870    0.6160   -2.0160 c3        1 F1K     -0.096400
      7 C10        -4.2180    1.2090   -0.8590 c3        1 F1K      0.033300
      8 C7         -2.0980    0.4860    0.2400 c1        1 F1K      0.543500
      9 C4          0.1530   -0.5250    0.8610 c3        1 F1K      0.099500
     10 C5         -0.5880    0.6820    0.2120 c2        1 F1K      0.221200
     11 C2          1.9070    0.8840    1.5760 c3        1 F1K      0.160800
     12 C1          1.2270    2.0700    0.9830 c3        1 F1K     -0.012700
     13 F25         7.2560   -2.8830   -0.3730 f         1 F1K     -0.109100
     14 C21         5.9550   -1.9040    1.3540 c1        1 F1K     -0.110500
     15 C19         3.5640   -1.7540    1.0870 c1        1 F1K     -0.068100
     16 C18         2.1490   -1.4470    1.6780 c3        1 F1K      0.180900
     17 N3          1.5490   -0.3320    0.9490 n3        1 F1K     -0.732600
     18 N6         -0.1870    1.9120    0.8950 nh        1 F1K     -0.376100
     19 O9         -2.6550    0.1560    1.2860 o         1 F1K     -0.598500
     20 N8         -2.8670    0.6810   -0.9490 n3        1 F1K     -0.410400
     21 S13        -6.9920    1.0950   -3.9100 sh        1 F1K     -0.378900
     22 H24         2.8790   -2.4420   -0.7260 ha        1 F1K      0.092000
     23 H23         4.9980   -3.0550   -1.6250 ha        1 F1K      0.092000
     24 H20         4.6320   -1.1670    2.7630 ha        1 F1K      0.080500
     25 H12        -6.8450    1.7230   -1.6700 h1        1 F1K      0.063200
     26 H12A       -5.7410    2.5290   -2.5800 h1        1 F1K      0.063200
     27 H11        -5.5220   -0.2240   -1.7050 hc        1 F1K      0.061200
     28 H11A       -4.5050    0.4210   -2.8020 hc        1 F1K      0.061200
     29 H10        -4.6110    0.9610    0.0040 h1        1 F1K      0.062200
     30 H10A       -4.1920    2.1790   -0.9350 h1        1 F1K      0.062200
     31 H4         -0.0100   -1.2880    0.3440 h1        1 F1K      0.059700
     32 H4A        -0.2130   -0.6740    1.7840 h1        1 F1K      0.059700
     33 H5         -0.4180    0.7370   -0.7640 h4        1 F1K     -0.048200
     34 H2          2.8880    1.0080    1.5000 h1        1 F1K      0.045700
     35 H2A         1.6730    0.8300    2.5120 h1        1 F1K      0.045700
     36 H1          1.4180    2.8290    1.5140 h1        1 F1K      0.038700
     37 H1A         1.5810    2.2160    0.0880 h1        1 F1K      0.038700
     38 H21         6.7910   -1.7600    1.9130 ha        1 F1K      0.090500
     39 H18         1.5650   -2.2610    1.5860 h1        1 F1K      0.044700
     40 H18A        2.2350   -1.2090    2.6360 h1        1 F1K      0.044700
     41 HN6        -0.5380    2.6200    0.4640 hn        1 F1K      0.204700
     42 HN8        -2.4470    0.5850   -1.8150 hn        1 F1K      0.268700
     43 HS13       -7.8790    1.8180   -4.1490 hs        1 F1K      0.202800
@<TRIPOS>BOND
     1    1    2 3   
     2    1   22 1   
     3    2   23 1   
     4    3   13 1   
     5    3   14 3   
     6    4   15 3   
     7    4   24 1   
     8    5    6 1   
     9    5   21 1   
    10    5   25 1   
    11    5   26 1   
    12    6    7 1   
    13    6   27 1   
    14    6   28 1   
    15    7   20 1   
    16    7   29 1   
    17    7   30 1   
    18    8   19 2   
    19    8   20 2   
    20    9   10 1   
    21    9   17 1   
    22    9   31 1   
    23    9   32 1   
    24   10   18 2   
    25   10   33 1   
    26   11   12 1   
    27   11   17 1   
    28   11   34 1   
    29   11   35 1   
    30   12   18 1   
    31   12   36 1   
    32   12   37 1   
    33   14   38 1   
    34   15   16 1   
    35   16   17 1   
    36   16   39 1   
    37   16   40 1   
    38   18   41 1   
    39   20   42 1   
    40   21   43 1   
@<TRIPOS>SUBSTRUCTURE
     1 F1K         1 TEMP              0 ****  ****    0 ROOT
