@<TRIPOS>MOLECULE
F1K
   44    45     1     0     0
SMALL
bcc


@<TRIPOS>ATOM
      1 C24        -0.1380    0.8760    1.2960 ca        1 F1K     -0.088500
      2 C23         1.0180    1.2370    0.6120 ca        1 F1K     -0.166000
      3 C22         1.9830    0.2550    0.3170 ca        1 F1K      0.148900
      4 C20         0.6210   -1.4200    1.4040 ca        1 F1K     -0.088500
      5 C12       -10.0600   -2.0790    4.0830 c3        1 F1K     -0.008300
      6 C11        -9.0100   -2.1000    2.9980 c3        1 F1K     -0.096400
      7 C10        -7.7860   -2.8630    3.4930 c3        1 F1K      0.099800
      8 C7         -5.4810   -3.6930    2.9160 c         1 F1K      0.530100
      9 C4         -3.4690   -2.2880    2.6950 c3        1 F1K      0.177800
     10 C5         -4.2150   -3.5030    2.0630 c3        1 F1K      0.117500
     11 C2         -2.8710   -1.4790    0.5230 c3        1 F1K      0.151800
     12 C1         -3.5800   -2.6590   -0.1620 c3        1 F1K      0.159800
     13 F25         3.1080    0.5950   -0.3510 f         1 F1K     -0.124900
     14 C21         1.7810   -1.0810    0.7170 ca        1 F1K     -0.166000
     15 C19        -0.3440   -0.4490    1.6950 ca        1 F1K     -0.132300
     16 C18        -1.5660   -0.8110    2.4830 c3        1 F1K      0.226100
     17 N3         -2.3870   -1.8390    1.8460 n3        1 F1K     -0.730600
     18 N6         -4.5560   -3.3540    0.6620 n3        1 F1K     -0.858200
     19 O9         -5.5810   -4.3750    3.9210 o         1 F1K     -0.404100
     20 N8         -6.7060   -2.9280    2.4660 n4        1 F1K     -0.666800
     21 S13       -11.4020   -1.1330    3.4280 sh        1 F1K     -0.338900
     22 H24        -0.8880    1.6480    1.5300 ha        1 F1K      0.141000
     23 H23         1.1880    2.2780    0.3010 ha        1 F1K      0.160000
     24 H20         0.4620   -2.4620    1.7230 ha        1 F1K      0.141000
     25 H12       -10.3880   -3.1150    4.3390 h1        1 F1K      0.075700
     26 H12A       -9.6600   -1.6080    5.0140 h1        1 F1K      0.075700
     27 H11        -8.7320   -1.0460    2.7270 hc        1 F1K      0.081200
     28 H11A       -9.4340   -2.5910    2.0790 hc        1 F1K      0.081200
     29 H10        -7.3590   -2.3660    4.4110 hx        1 F1K      0.112700
     30 H10A       -8.0680   -3.9210    3.7680 hx        1 F1K      0.112700
     31 H4         -4.2210   -1.4680    2.8990 h1        1 F1K      0.045700
     32 H4A        -3.0420   -2.6250    3.6820 h1        1 F1K      0.045700
     33 H5         -3.5920   -4.4330    2.2620 h1        1 F1K      0.113700
     34 H2         -3.5710   -0.5940    0.5570 h1        1 F1K      0.063200
     35 H2A        -1.9810   -1.1930   -0.1080 h1        1 F1K      0.063200
     36 H1         -4.1450   -2.2640   -1.0540 h1        1 F1K      0.068200
     37 H1A        -2.7900   -3.3740   -0.5380 h1        1 F1K      0.068200
     38 H21         2.5440   -1.8390    0.4870 ha        1 F1K      0.160000
     39 H18        -1.2320   -1.2260    3.4790 h1        1 F1K      0.049200
     40 H18A       -2.1730    0.1220    2.6840 h1        1 F1K      0.049200
     41 HN6        -4.7340   -4.2610    0.2640 hn        1 F1K      0.384800
     42 HN8        -7.0710   -3.3780    1.6160 hn        1 F1K      0.466800
     43 HS13      -12.2500   -1.2360    4.4420 hs        1 F1K      0.230800
     44 H82        -6.4140   -1.9780    2.2070 hn        1 F1K      0.466800
@<TRIPOS>BOND
     1    1    2 ar  
     2    1   15 ar  
     3    1   22 1   
     4    2    3 ar  
     5    2   23 1   
     6    3   13 1   
     7    3   14 ar  
     8    4   14 ar  
     9    4   15 ar  
    10    4   24 1   
    11    5    6 1   
    12    5   21 1   
    13    5   25 1   
    14    5   26 1   
    15    6    7 1   
    16    6   27 1   
    17    6   28 1   
    18    7   20 1   
    19    7   29 1   
    20    7   30 1   
    21    8   10 1   
    22    8   19 2   
    23    8   20 1   
    24    9   10 1   
    25    9   17 1   
    26    9   31 1   
    27    9   32 1   
    28   10   18 1   
    29   10   33 1   
    30   11   12 1   
    31   11   17 1   
    32   11   34 1   
    33   11   35 1   
    34   12   18 1   
    35   12   36 1   
    36   12   37 1   
    37   14   38 1   
    38   15   16 1   
    39   16   17 1   
    40   16   39 1   
    41   16   40 1   
    42   18   41 1   
    43   20   42 1   
    44   20   44 1   
    45   21   43 1   
@<TRIPOS>SUBSTRUCTURE
     1 F1K         1 TEMP              0 ****  ****    0 ROOT
