@<TRIPOS>MOLECULE
F1K
   43    44     1     0     0
SMALL
bcc


@<TRIPOS>ATOM
      1 C24        -4.1780    1.1080    1.4550 ca        1 F1K     -0.093500
      2 C23        -5.5690    1.1170    1.4600 ca        1 F1K     -0.169000
      3 C22        -6.2660    0.9050    0.2570 ca        1 F1K      0.125900
      4 C20        -4.1700    0.6870   -0.9260 ca        1 F1K     -0.093500
      5 C12         6.3000    0.4690    0.8780 c3        1 F1K      0.011700
      6 C11         4.8130    0.2250    0.8980 c3        1 F1K     -0.096400
      7 C10         4.4480   -0.8180   -0.1640 c3        1 F1K      0.089000
      8 C7          2.2780   -0.8860   -1.3360 c         1 F1K      0.655100
      9 C4          0.0900    0.0140   -0.5610 c3        1 F1K      0.171800
     10 C5          0.7670   -1.1910   -1.2650 c3        1 F1K      0.100500
     11 C2         -1.6200   -1.4560    0.3080 c3        1 F1K      0.161800
     12 C1         -0.9360   -2.6590   -0.3710 c3        1 F1K      0.163800
     13 F25        -7.6210    0.9090    0.2520 f         1 F1K     -0.140900
     14 C21        -5.5610    0.6880   -0.9410 ca        1 F1K     -0.169000
     15 C19        -3.4700    0.8950    0.2680 ca        1 F1K     -0.104300
     16 C18        -1.9700    0.9470    0.2740 c3        1 F1K      0.217100
     17 N3         -1.3380   -0.1990   -0.3700 n3        1 F1K     -0.730600
     18 N6          0.4810   -2.4530   -0.5960 n3        1 F1K     -0.826200
     19 O9          2.7600   -0.4330   -2.3930 o         1 F1K     -0.613100
     20 N8          3.0470   -1.1230   -0.2220 n         1 F1K     -0.558900
     21 S13         6.6570    1.5910    2.2030 sh        1 F1K     -0.378900
     22 H24        -3.6350    1.2740    2.3990 ha        1 F1K      0.144500
     23 H23        -6.1280    1.2870    2.3920 ha        1 F1K      0.149500
     24 H20        -3.6140    0.5180   -1.8620 ha        1 F1K      0.144500
     25 H12         6.8590   -0.4870    1.0220 h1        1 F1K      0.063200
     26 H12A        6.6120    0.9060   -0.1010 h1        1 F1K      0.063200
     27 H11         4.5010   -0.1340    1.9150 hc        1 F1K      0.061700
     28 H11A        4.2690    1.1850    0.6970 hc        1 F1K      0.061700
     29 H10         4.7840   -0.4470   -1.1750 h1        1 F1K      0.060700
     30 H10A        5.0100   -1.7710    0.0630 h1        1 F1K      0.060700
     31 H4          0.6180    0.2130    0.4170 h1        1 F1K      0.046700
     32 H4A         0.2270    0.9140   -1.2240 h1        1 F1K      0.046700
     33 H5          0.4110   -1.2030   -2.3430 h1        1 F1K      0.069700
     34 H2         -2.7330   -1.6200    0.2740 h1        1 F1K      0.044700
     35 H2A        -1.3050   -1.4260    1.3920 h1        1 F1K      0.044700
     36 H1         -1.0410   -3.5490    0.3100 h1        1 F1K      0.041200
     37 H1A        -1.4880   -2.8870   -1.3300 h1        1 F1K      0.041200
     38 H21        -6.1140    0.5230   -1.8770 ha        1 F1K      0.149500
     39 H18        -1.6560    1.8700   -0.2980 h1        1 F1K      0.043200
     40 H18A       -1.6090    1.0710    1.3390 h1        1 F1K      0.043200
     41 HN6         0.8620   -3.2130   -1.1290 hn        1 F1K      0.371800
     42 HN8         2.6150   -1.4580    0.6060 hn        1 F1K      0.325500
     43 HS13        7.9520    1.7490    1.9980 hs        1 F1K      0.202800
@<TRIPOS>BOND
     1    1    2 ar  
     2    1   15 ar  
     3    1   22 1   
     4    2    3 ar  
     5    2   23 1   
     6    3   13 1   
     7    3   14 ar  
     8    4   14 ar  
     9    4   15 ar  
    10    4   24 1   
    11    5    6 1   
    12    5   21 1   
    13    5   25 1   
    14    5   26 1   
    15    6    7 1   
    16    6   27 1   
    17    6   28 1   
    18    7   20 1   
    19    7   29 1   
    20    7   30 1   
    21    8   10 1   
    22    8   19 2   
    23    8   20 1   
    24    9   10 1   
    25    9   17 1   
    26    9   31 1   
    27    9   32 1   
    28   10   18 1   
    29   10   33 1   
    30   11   12 1   
    31   11   17 1   
    32   11   34 1   
    33   11   35 1   
    34   12   18 1   
    35   12   36 1   
    36   12   37 1   
    37   14   38 1   
    38   15   16 1   
    39   16   17 1   
    40   16   39 1   
    41   16   40 1   
    42   18   41 1   
    43   20   42 1   
    44   21   43 1   
@<TRIPOS>SUBSTRUCTURE
     1 F1K         1 TEMP              0 ****  ****    0 ROOT
