@<TRIPOS>MOLECULE
F1L
   52    50     1     0     0
SMALL
bcc


@<TRIPOS>ATOM
      1 C28        -6.9140   -2.7390    1.1280 c3        1 F1L      0.110700
      2 C26        -3.5050   -3.2270    2.6700 c3        1 F1L      0.114700
      3 C24        -3.4920   -2.8640    0.3410 c1        1 F1L      0.069600
      4 C23        -4.8340   -2.8200   -0.0110 c1        1 F1L      0.083600
      5 C22        -5.2310   -2.1330   -1.1470 c1        1 F1L     -0.112500
      6 O25        -3.0740   -3.6760    1.4090 os        1 F1L     -0.314400
      7 C20        -2.9440   -1.5300   -1.5850 c1        1 F1L     -0.047500
      8 C12         6.5380    4.9030   -0.4370 c3        1 F1L      0.006700
      9 C11         5.7870    3.7240    0.1760 c3        1 F1L     -0.070400
     10 C10         4.3300    3.7540   -0.2850 c3        1 F1L     -0.156400
     11 C8          3.6220    2.4720    0.1720 c         1 F1L      0.661100
     12 C4          1.0580   -1.5050   -0.8410 c3        1 F1L      0.168300
     13 C5          1.9000   -0.2740   -1.1410 c3        1 F1L     -0.092400
     14 C6          1.7740    0.7660   -0.0920 c3        1 F1L      0.097700
     15 C2         -0.4790   -0.1350    0.4980 c3        1 F1L      0.168300
     16 C1          0.3560    1.1000    0.2030 c3        1 F1L     -0.092400
     17 BR29       -4.8360   -0.5610   -3.5160 br        1 F1L     -0.180800
     18 C21        -4.2870   -1.4880   -1.9350 c1        1 F1L      0.084800
     19 O27        -5.7910   -3.5200    0.7610 os        1 F1L     -0.305400
     20 C19        -2.5450   -2.2160   -0.4480 c1        1 F1L     -0.032100
     21 C18        -1.0510   -2.3660   -0.1290 c3        1 F1L      0.176900
     22 N3         -0.3460   -1.1690   -0.5440 n3        1 F1L     -0.731600
     23 N7          2.4690    1.9900   -0.5460 n         1 F1L     -0.571900
     24 O9          4.0230    1.8730    1.1490 o         1 F1L     -0.610100
     25 S13         8.2280    4.8840    0.1200 sh        1 F1L     -0.375900
     26 H28        -7.3870   -2.4450    0.3190 h1        1 F1L      0.047367
     27 H28A       -7.5200   -3.2770    1.6850 h1        1 F1L      0.047367
     28 H28B       -6.6140   -1.9530    1.6360 h1        1 F1L      0.047367
     29 H26        -4.3230   -2.6930    2.5660 h1        1 F1L      0.045033
     30 H26A       -2.8030   -2.6750    3.0780 h1        1 F1L      0.045033
     31 H26B       -3.6910   -4.0010    3.2480 h1        1 F1L      0.045033
     32 H22        -6.1790   -2.1030   -1.3950 ha        1 F1L      0.094500
     33 H20        -2.2820   -1.0770   -2.1370 ha        1 F1L      0.108500
     34 H12         6.1130    5.7410   -0.1600 h1        1 F1L      0.063200
     35 H12A        6.5160    4.8330   -1.4120 h1        1 F1L      0.063200
     36 H11         5.8220    3.7870    1.1530 hc        1 F1L      0.063200
     37 H11A        6.2030    2.8890   -0.1120 hc        1 F1L      0.063200
     38 H10         4.2970    3.8150   -1.2610 hc        1 F1L      0.073200
     39 H10A        3.8810    4.5300    0.1050 hc        1 F1L      0.073200
     40 H4          1.0830   -2.1020   -1.6160 h1        1 F1L      0.036700
     41 H4A         1.4410   -1.9700   -0.0700 h1        1 F1L      0.036700
     42 H5          2.8380   -0.5420   -1.2100 hc        1 F1L      0.052700
     43 H5A         1.6150    0.1040   -1.9980 hc        1 F1L      0.052700
     44 H6          2.2010    0.4440    0.7250 h1        1 F1L      0.090700
     45 H2         -1.4200    0.1270    0.5650 h1        1 F1L      0.036700
     46 H2A        -0.1950   -0.5120    1.3550 h1        1 F1L      0.036700
     47 H1         -0.0270    1.5640   -0.5680 hc        1 F1L      0.052700
     48 H1A         0.3260    1.6960    0.9800 hc        1 F1L      0.052700
     49 H18        -0.6920   -3.1380   -0.6080 h1        1 F1L      0.056200
     50 H18A       -0.9350   -2.4950    0.8330 h1        1 F1L      0.056200
     51 HN7         2.1510    2.4550   -1.2620 hn        1 F1L      0.308500
     52 HS13        8.8250    5.7530   -0.4080 hs        1 F1L      0.203800
@<TRIPOS>BOND
     1    1   19 1   
     2    1   26 1   
     3    1   27 1   
     4    1   28 1   
     5    2    6 1   
     6    2   29 1   
     7    2   30 1   
     8    2   31 1   
     9    3    6 1   
    10    3   20 3   
    11    4    5 3   
    12    4   19 1   
    13    5   32 1   
    14    7   18 3   
    15    7   33 1   
    16    8    9 1   
    17    8   25 1   
    18    8   34 1   
    19    8   35 1   
    20    9   10 1   
    21    9   36 1   
    22    9   37 1   
    23   10   11 1   
    24   10   38 1   
    25   10   39 1   
    26   11   23 1   
    27   11   24 2   
    28   12   13 1   
    29   12   22 1   
    30   12   40 1   
    31   12   41 1   
    32   13   14 1   
    33   13   42 1   
    34   13   43 1   
    35   14   16 1   
    36   14   23 1   
    37   14   44 1   
    38   15   16 1   
    39   15   22 1   
    40   15   45 1   
    41   15   46 1   
    42   16   47 1   
    43   16   48 1   
    44   17   18 1   
    45   20   21 1   
    46   21   22 1   
    47   21   49 1   
    48   21   50 1   
    49   23   51 1   
    50   25   52 1   
@<TRIPOS>SUBSTRUCTURE
     1 F1L         1 TEMP              0 ****  ****    0 ROOT
