@<TRIPOS>MOLECULE
F1L
   53    49     1     0     0
SMALL
bcc


@<TRIPOS>ATOM
      1 C28         3.5840    0.3800   -1.4190 c3        1 F1L     -0.224000
      2 C26         4.7970    0.9410    1.5110 c1        1 F1L     -0.071000
      3 C24         2.5890    0.1380    0.9700 c3        1 F1L     -0.087000
      4 C23         2.9810   -1.3160    1.1960 c2        1 F1L      0.232000
      5 C22         2.4580    0.5160   -0.4920 c2        1 F1L     -0.015000
      6 C20         0.3250    0.8990    0.4230 c1        1 F1L      0.112000
      7 C12         9.1570    8.2970    1.9440 c3        1 F1L     -0.275000
      8 C11         9.2320    7.3360    3.1050 c3        1 F1L     -0.161000
      9 C10         7.8420    6.9470    3.5670 c3        1 F1L     -0.191000
     10 C8          7.8750    5.8680    4.6350 c2        1 F1L      0.331000
     11 C4          6.6700    1.9580    4.3300 c2        1 F1L      0.046000
     12 C5          4.8100    5.3720    2.1710 c3        1 F1L     -0.286000
     13 C6          8.6300    5.3560    6.9470 c2        1 F1L      0.016000
     14 C2          7.9150    2.8840    7.3560 c2        1 F1L     -0.157000
     15 C1          8.2500    4.1080    7.0940 c1        1 F1L     -0.203000
     16 C21         1.1890    0.9550   -0.7550 c2        1 F1L     -0.294000
     17 O27         4.0930   -1.5690    1.6560 o         1 F1L     -0.290000
     18 C19         1.1800    0.4480    1.5690 c3        1 F1L     -0.270000
     19 C18         0.6600   -0.6910    2.3060 c1        1 F1L     -0.017000
     20 N3          6.0710    2.4530    3.3060 n3        1 F1L     -0.202000
     21 O9          7.3430    4.7520    4.4280 o         1 F1L     -0.456000
     22 S13        10.7260    8.9730    1.5150 sh        1 F1L      0.025000
     23 H28         3.2240    0.1840   -2.4640 hc        1 F1L      0.121333
     24 H28A        4.1830    1.3280   -1.4410 hc        1 F1L      0.121333
     25 H28B        4.2580   -0.4630   -1.1160 hc        1 F1L      0.121333
     26 H26         5.9100   -1.6030   -0.0970 ha        1 F1L      0.002000
     27 H26A        6.0240   -2.1580    0.2740 ha        1 F1L      0.002000
     28 H26B        5.2720    0.2860    0.7580 ha        1 F1L      0.120000
     29 H22         2.2140   -2.0730    0.9360 h4        1 F1L      0.174000
     30 H20         1.2520    1.3320    2.2840 hc        1 F1L      0.215000
     31 H12         8.5330    9.1880    2.2160 h1        1 F1L      0.118000
     32 H12A        9.8010    7.8160    3.9450 hc        1 F1L      0.098500
     33 H11         9.7980    6.4160    2.8000 hc        1 F1L      0.098500
     34 H11A        8.6790    7.8030    1.0640 h1        1 F1L      0.118000
     35 H10         7.3000    7.8470    3.9630 hc        1 F1L      0.119000
     36 H10A        7.2470    6.5480    2.7010 hc        1 F1L      0.119000
     37 H4          6.6760    0.8610    4.4960 h4        1 F1L      0.187500
     38 H4A         4.2490    6.3000    1.9210 hc        1 F1L      0.072500
     39 H5          5.5820    5.1890    1.3910 hc        1 F1L      0.072500
     40 H5A         4.1010    4.5160    2.2050 hc        1 F1L      0.072500
     41 H6          5.3010    5.4950    3.1630 hc        1 F1L      0.072500
     42 H2          6.9460    2.6240    7.8090 ha        1 F1L      0.131500
     43 H2A         5.5340    1.8430    2.5500 hn        1 F1L      0.300500
     44 H1          9.1370    5.8690    7.7950 h4        1 F1L      0.171000
     45 H1A         8.5980    2.0380    7.1820 ha        1 F1L      0.131500
     46 H18        -0.3790   -0.6260    2.6590 ha        1 F1L      0.100000
     47 H18A        6.0720    3.4530    3.1600 hn        1 F1L      0.300500
     48 HN7         8.8910    7.0900    5.9130 hn        1 F1L      0.250000
     49 HS13       11.3110    7.8920    1.0320 hs        1 F1L      0.025000
     50 BR29        0.5320    1.5440   -2.3690 br        1 F1L      0.168000
     51 N7          8.4900    6.1800    5.8280 n         1 F1L     -0.301000
     52 H72         7.1970    2.6030    5.0770 h4        1 F1L      0.187500
     53 O25         3.5340    1.0060    1.6800 os        1 F1L     -0.054000
@<TRIPOS>BOND
     1    1    5 1   
     2    1   23 1   
     3    1   24 1   
     4    1   25 1   
     5    2   28 1   
     6    2   53 1   
     7    3    4 1   
     8    3    5 1   
     9    3   18 1   
    10    3   53 1   
    11    4   17 1   
    12    4   29 1   
    13    5   16 1   
    14    6   16 1   
    15    6   18 1   
    16    7    8 1   
    17    7   22 1   
    18    7   31 1   
    19    7   34 1   
    20    8    9 1   
    21    8   32 1   
    22    8   33 1   
    23    9   10 1   
    24    9   35 1   
    25    9   36 1   
    26   10   21 1   
    27   10   51 1   
    28   11   20 1   
    29   11   37 1   
    30   11   52 1   
    31   12   38 1   
    32   12   39 1   
    33   12   40 1   
    34   12   41 1   
    35   13   15 1   
    36   13   44 1   
    37   13   51 1   
    38   14   15 1   
    39   14   42 1   
    40   14   45 1   
    41   16   50 1   
    42   18   19 1   
    43   18   30 1   
    44   19   46 1   
    45   20   43 1   
    46   20   47 1   
    47   22   49 1   
    48   26   27 1   
    49   48   51 1   
@<TRIPOS>SUBSTRUCTURE
     1 F1L         1 TEMP              0 ****  ****    0 ROOT
