@<TRIPOS>MOLECULE
F1L
   53    51     1     0     0
SMALL
bcc


@<TRIPOS>ATOM
      1 C28        -0.1320    0.2170    1.5760 c3        1 F1L     -0.001000
      2 C26         3.7020   -0.6740   -1.9720 c1        1 F1L      0.011000
      3 C24         3.3900    0.3120    0.1890 ca        1 F1L     -0.024000
      4 C23         2.0100    0.1540    0.2810 ca        1 F1L     -0.159000
      5 C22         1.3510    0.4140    1.4880 ca        1 F1L     -0.037000
      6 C20         3.4860    0.9920    2.4950 ca        1 F1L     -0.058000
      7 C12         8.8160   11.5050    3.8950 c2        1 F1L     -0.229000
      8 C11        10.0910    6.9480    4.5880 c3        1 F1L     -0.246000
      9 C10         8.6030    6.8860    4.8010 c3        1 F1L     -0.168000
     10 C8          7.9450    5.6080    4.3030 c2        1 F1L      0.301000
     11 C4          7.7580    1.6270    1.7870 c3        1 F1L     -0.094000
     12 C5          8.3320    2.9830    2.2060 c3        1 F1L     -0.173000
     13 C6          8.2140    3.1580    3.7200 c3        1 F1L     -0.071000
     14 C2          5.1130    4.1990    4.9060 c3        1 F1L     -0.256000
     15 C1          5.6570    4.8770    3.6780 c3        1 F1L     -0.039000
     16 C21         2.1010    0.8300    2.5990 ca        1 F1L     -0.189000
     17 O27        -0.7310    0.0010    0.3160 oh        1 F1L     -0.309000
     18 C19         4.1520    0.7420    1.2910 ca        1 F1L     -0.071000
     19 C18         5.6060    0.8960    1.1430 c2        1 F1L      0.018000
     20 N3          6.3340    1.5480    1.9840 n2        1 F1L     -0.246000
     21 O9          6.6580    5.8580    4.0340 os        1 F1L     -0.174000
     22 S13         9.0410   10.0260    4.1690 s         1 F1L     -0.024000
     23 H28        -0.3500   -0.7250    2.1570 h1        1 F1L      0.119000
     24 H28A       -0.6120    1.0930    2.0940 h1        1 F1L      0.119000
     25 H28B       -0.7590    0.8510   -0.1420 ho        1 F1L      0.204000
     26 H26         4.6210   -2.7560   -1.2210 ha        1 F1L      0.005500
     27 H26A        5.0660   -2.5980   -1.7080 ha        1 F1L      0.005500
     28 H26B        2.7550   -1.2480   -1.9180 ha        1 F1L      0.054000
     29 H22         1.4210   -0.1860   -0.5890 ha        1 F1L      0.170000
     30 H20         4.0670    1.3120    3.3760 ha        1 F1L      0.154000
     31 H12         9.5670   12.2990    4.0600 h4        1 F1L      0.128000
     32 H12A       10.4300    8.0030    4.7820 hc        1 F1L      0.110000
     33 H11        10.6430    6.2760    5.2890 hc        1 F1L      0.110000
     34 H11A        7.8790   11.9430    3.5020 h4        1 F1L      0.128000
     35 H10         8.3510    6.9700    5.8960 hc        1 F1L      0.167500
     36 H10A        8.1040    7.7600    4.2790 hc        1 F1L      0.167500
     37 H4          8.2390    0.8210    2.4160 h1        1 F1L      0.102500
     38 H4A         9.4110    3.0110    1.9010 hc        1 F1L      0.103000
     39 H5          7.8050    3.8100    1.6620 hc        1 F1L      0.103000
     40 H5A         8.0740    1.4460    0.7170 h1        1 F1L      0.102500
     41 H6          8.8960    2.4090    4.2240 h1        1 F1L      0.137500
     42 H2          5.9240    3.7360    5.5190 hc        1 F1L      0.108667
     43 H2A         6.0500    4.1680    2.9060 h1        1 F1L      0.141000
     44 H1          7.1670    2.9330    4.0680 h1        1 F1L      0.137500
     45 H1A         4.5650    4.9290    5.5510 hc        1 F1L      0.108667
     46 H18         6.0130    0.3990    0.2300 h4        1 F1L      0.138000
     47 H18A        4.4010    3.3960    4.5880 hc        1 F1L      0.108667
     48 HN7         9.6050    4.5310    4.4190 hn        1 F1L      0.274000
     49 HS13       10.3700    6.6930    3.5370 hc        1 F1L      0.110000
     50 BR29        1.2980    1.1750    4.2570 br        1 F1L      0.074000
     51 N7          8.6240    4.4660    4.1970 n3        1 F1L     -0.246000
     52 H72         4.8780    5.5460    3.2050 h1        1 F1L      0.141000
     53 O25         4.0890    0.0950   -1.0300 os        1 F1L     -0.047000
@<TRIPOS>BOND
     1    1    5 1   
     2    1   17 1   
     3    1   23 1   
     4    1   24 1   
     5    2   28 1   
     6    2   53 1   
     7    3    4 1   
     8    3   18 1   
     9    3   53 1   
    10    4    5 1   
    11    4   29 1   
    12    5   16 1   
    13    6   16 1   
    14    6   18 1   
    15    6   30 1   
    16    7   22 1   
    17    7   31 1   
    18    7   34 1   
    19    8    9 1   
    20    8   32 1   
    21    8   33 1   
    22    8   49 1   
    23    9   10 1   
    24    9   35 1   
    25    9   36 1   
    26   10   21 1   
    27   10   51 1   
    28   11   12 1   
    29   11   20 1   
    30   11   37 1   
    31   11   40 1   
    32   12   13 1   
    33   12   38 1   
    34   12   39 1   
    35   13   41 1   
    36   13   44 1   
    37   13   51 1   
    38   14   15 1   
    39   14   42 1   
    40   14   45 1   
    41   14   47 1   
    42   15   21 1   
    43   15   43 1   
    44   15   52 1   
    45   16   50 1   
    46   17   25 1   
    47   18   19 1   
    48   19   20 1   
    49   19   46 1   
    50   26   27 1   
    51   48   51 1   
@<TRIPOS>SUBSTRUCTURE
     1 F1L         1 TEMP              0 ****  ****    0 ROOT
