@<TRIPOS>MOLECULE
F1L
   52    53     1     0     0
SMALL
bcc


@<TRIPOS>ATOM
      1 C28        -5.9200   -1.0860   -2.7020 c3        1 F1L      0.110700
      2 C26        -2.3530   -3.2850   -1.6170 c3        1 F1L      0.116700
      3 C24        -3.2270   -1.5570   -0.2700 ca        1 F1L      0.106100
      4 C23        -4.2240   -0.9070   -1.0390 ca        1 F1L      0.101100
      5 C22        -4.5330    0.4350   -0.8020 ca        1 F1L     -0.170000
      6 C20        -2.8620    0.4990    0.9540 ca        1 F1L     -0.123000
      7 C12         7.9420    0.5590   -1.1600 c3        1 F1L      0.006700
      8 C11         6.5370    0.4020   -0.6310 c3        1 F1L     -0.070400
      9 C10         6.5190   -0.5420    0.5520 c3        1 F1L     -0.156400
     10 C8          5.1680   -0.5640    1.2460 c         1 F1L      0.661100
     11 C4          0.7320   -2.4480    1.5760 c3        1 F1L      0.167300
     12 C5          2.1310   -2.4430    0.9660 c3        1 F1L     -0.091900
     13 C6          2.7390   -1.0320    1.0430 c3        1 F1L      0.097700
     14 C2          0.3980   -0.1310    0.9560 c3        1 F1L      0.167300
     15 C1          1.7860   -0.0620    0.3270 c3        1 F1L     -0.091900
     16 C21        -3.8500    1.1300    0.2010 ca        1 F1L     -0.004900
     17 O27        -4.8210   -1.6790   -2.0160 os        1 F1L     -0.318900
     18 C19        -2.5410   -0.8430    0.7220 ca        1 F1L     -0.062300
     19 C18        -1.4950   -1.5230    1.5600 c3        1 F1L      0.214100
     20 N3         -0.1640   -1.4750    0.9650 n3        1 F1L     -0.727600
     21 O9          5.0620   -0.2370    2.4460 o         1 F1L     -0.609100
     22 S13         7.8310    1.5200   -2.6440 sh        1 F1L     -0.375900
     23 H28        -5.5790   -0.2090   -3.3030 h1        1 F1L      0.047367
     24 H28A       -6.2780   -1.9090   -3.3720 h1        1 F1L      0.047367
     25 H28B       -6.7210   -0.7850   -1.9840 h1        1 F1L      0.047367
     26 H26        -2.9720   -2.9850   -2.4960 h1        1 F1L      0.046700
     27 H26A       -1.3390   -2.8190   -1.6680 h1        1 F1L      0.046700
     28 H26B       -2.2780   -4.3990   -1.5440 h1        1 F1L      0.046700
     29 H22        -5.3090    0.9420   -1.3940 ha        1 F1L      0.153000
     30 H20        -2.3220    1.0480    1.7420 ha        1 F1L      0.150000
     31 H12         8.5880    1.0710   -0.4070 h1        1 F1L      0.063200
     32 H12A        8.3930   -0.4390   -1.3780 h1        1 F1L      0.063200
     33 H11         6.1360    1.4040   -0.3220 hc        1 F1L      0.062700
     34 H11A        5.8730    0.0120   -1.4490 hc        1 F1L      0.062700
     35 H10         6.7860   -1.5810    0.2260 hc        1 F1L      0.073200
     36 H10A        7.2790   -0.2170    1.3130 hc        1 F1L      0.073200
     37 H4          0.2820   -3.4700    1.4210 h1        1 F1L      0.036700
     38 H4A         0.8270   -2.2820    2.6900 h1        1 F1L      0.036700
     39 H5          2.7640   -3.1700    1.5360 hc        1 F1L      0.051950
     40 H5A         2.0840   -2.7840   -0.1000 hc        1 F1L      0.051950
     41 H6          2.7960   -0.7310    2.1350 h1        1 F1L      0.090700
     42 H2          0.4580    0.2990    2.0010 h1        1 F1L      0.036700
     43 H2A        -0.3020    0.5220    0.3610 h1        1 F1L      0.036700
     44 H1          2.1610    0.9900    0.4180 hc        1 F1L      0.051950
     45 H1A         1.7250   -0.3140   -0.7630 hc        1 F1L      0.051950
     46 H18        -1.5070   -1.0580    2.5920 h1        1 F1L      0.051700
     47 H18A       -1.7870   -2.6080    1.6690 h1        1 F1L      0.051700
     48 HN7         4.1970   -1.2000   -0.4500 hn        1 F1L      0.308500
     49 HS13        9.1190    1.6330   -2.9160 hs        1 F1L      0.203800
     50 O25        -3.0040   -2.9170   -0.3990 os        1 F1L     -0.331900
     51 BR29       -4.2700    2.9270    0.5250 br        1 F1L     -0.086100
     52 N7          4.0820   -0.9860    0.5110 n         1 F1L     -0.570900
@<TRIPOS>BOND
     1    1   17 1   
     2    1   23 1   
     3    1   24 1   
     4    1   25 1   
     5    2   26 1   
     6    2   27 1   
     7    2   28 1   
     8    2   50 1   
     9    3    4 ar  
    10    3   18 ar  
    11    3   50 1   
    12    4    5 ar  
    13    4   17 1   
    14    5   16 ar  
    15    5   29 1   
    16    6   16 ar  
    17    6   18 ar  
    18    6   30 1   
    19    7    8 1   
    20    7   22 1   
    21    7   31 1   
    22    7   32 1   
    23    8    9 1   
    24    8   33 1   
    25    8   34 1   
    26    9   10 1   
    27    9   35 1   
    28    9   36 1   
    29   10   21 2   
    30   10   52 1   
    31   11   12 1   
    32   11   20 1   
    33   11   37 1   
    34   11   38 1   
    35   12   13 1   
    36   12   39 1   
    37   12   40 1   
    38   13   15 1   
    39   13   41 1   
    40   13   52 1   
    41   14   15 1   
    42   14   20 1   
    43   14   42 1   
    44   14   43 1   
    45   15   44 1   
    46   15   45 1   
    47   16   51 1   
    48   18   19 1   
    49   19   20 1   
    50   19   46 1   
    51   19   47 1   
    52   22   49 1   
    53   48   52 1   
@<TRIPOS>SUBSTRUCTURE
     1 F1L         1 TEMP              0 ****  ****    0 ROOT
