@<TRIPOS>MOLECULE
F1M
   67    62     1     0     0
SMALL
bcc


@<TRIPOS>ATOM
      1 C1          3.7960    1.4820   -3.6960 c1        1 F1M      0.039000
      2 C2          5.1710    1.2440   -3.7300 c1        1 F1M      0.059000
      3 C3          1.6090    1.8350   -2.4480 c3        1 F1M     -0.032000
      4 C7         -3.1030   -0.1270    1.8940 c1        1 F1M      0.304000
      5 C8          3.8310    1.4220   -1.2900 c1        1 F1M     -0.125000
      6 C11         5.2310    1.1800   -1.3280 c1        1 F1M     -0.044000
      7 C13         0.2220    2.5500   -0.6320 c3        1 F1M     -0.070000
      8 C14         0.2980    0.1860   -1.3060 c3        1 F1M     -0.070000
      9 C16        -4.3870   -4.0390    6.0790 c1        1 F1M      0.012000
     10 C19        -0.4430   -0.2060   -0.0420 c3        1 F1M     -0.170500
     11 C20        -1.2910    0.9120    0.4910 c3        1 F1M      0.017000
     12 C22        -3.7400   -0.4260    3.2980 c2        1 F1M     -0.052000
     13 C27         3.6740    2.3780   -5.9200 c3        1 F1M      0.029000
     14 C30         2.9270    3.6790   -6.0420 c3        1 F1M     -0.227000
     15 S          -6.2510   -4.5770    8.1160 ss        1 F1M      2.871000
     16 C           3.1290    1.5700   -2.4590 c1        1 F1M     -0.055000
     17 N           1.0510    1.4470   -1.1530 n3        1 F1M     -0.254000
     18 C4         -5.6870   -3.8770    6.5780 c1        1 F1M     -0.866000
     19 C5          5.8840    1.0930   -2.5390 c1        1 F1M     -0.190000
     20 O          -5.4850   -4.0850    9.2230 o         1 F1M     -0.938500
     21 O6         -7.5650   -4.1040    8.4550 o         1 F1M     -0.938500
     22 O9          3.0520    1.5700   -4.9230 os        1 F1M     -0.217000
     23 N10        -1.8360    0.5220    1.8130 n3        1 F1M     -0.355000
     24 N12        -6.2070   -6.2570    8.0430 n2        1 F1M     -0.953000
     25 O15        -3.7240   -0.3550    0.8930 o         1 F1M     -0.366000
     26 C17        -6.5330   -2.8640    6.0480 c2        1 F1M      0.023000
     27 C18        -0.5260    2.1710    0.6420 c3        1 F1M     -0.170500
     28 O21        -4.4120   -1.6800    3.2560 os        1 F1M     -0.216000
     29 C23        -4.7370   -2.1970    4.5210 c2        1 F1M      0.143000
     30 O24         5.8610    1.1140   -5.0180 os        1 F1M     -0.205000
     31 CL          6.3250    0.9730    0.0590 cl        1 F1M     -0.015000
     32 C25        -3.9120   -3.1850    5.0380 c1        1 F1M     -0.183000
     33 C26        -6.0720   -2.0330    5.0350 c2        1 F1M     -0.232000
     34 C28         6.9620    0.1930   -4.9990 c3        1 F1M     -0.079000
     35 C29         3.6480    1.6470   -7.2520 c3        1 F1M     -0.227000
     36 H3          1.4460    2.7710   -2.6010 h1        1 F1M      0.090500
     37 H3A         1.1830    1.3100   -3.1570 h1        1 F1M      0.090500
     38 H8          3.3540    1.4850   -0.4040 ha        1 F1M      0.163000
     39 H13         0.7940    3.3080   -0.4440 h1        1 F1M      0.078750
     40 H13A       -0.4160    2.8010   -1.3020 h1        1 F1M      0.078750
     41 H14        -0.3500    0.2920   -2.0330 h1        1 F1M      0.078750
     42 H14A        0.9450   -0.5550   -1.5480 h1        1 F1M      0.078750
     43 H16        -3.7920   -4.7540    6.4540 ha        1 F1M      0.157000
     44 H19        -1.0280   -0.9870   -0.2430 hc        1 F1M      0.093000
     45 H19A        0.1980   -0.4590    0.6290 hc        1 F1M      0.093000
     46 H20        -2.0690    1.0740   -0.1530 h1        1 F1M      0.129000
     47 H22        -4.3770    0.2780    3.5230 h4        1 F1M      0.117000
     48 H22A       -3.0390   -0.4550    3.9720 h4        1 F1M      0.117000
     49 H27         4.6130    2.5600   -5.6600 h1        1 F1M      0.102000
     50 H30         1.9380    3.4940   -6.1110 hc        1 F1M      0.084333
     51 H30A        3.2260    4.1540   -6.8400 hc        1 F1M      0.084333
     52 H30B        3.1040    4.2330   -5.2430 hc        1 F1M      0.084333
     53 H5          6.8740    0.9220   -2.5640 ha        1 F1M      0.153000
     54 HN10       -1.4090    0.8090    2.5950 hn        1 F1M      0.234000
     55 HN12       -5.3810   -6.7050    8.0340 hn        1 F1M      0.242000
     56 HN1A       -7.0060   -6.7450    8.0000 hn        1 F1M      0.242000
     57 H17        -7.4460   -2.7520    6.4000 ha        1 F1M      0.157000
     58 H18        -1.1460    2.8940    0.8710 hc        1 F1M      0.093000
     59 H18A        0.1370    2.0610    1.3870 hc        1 F1M      0.093000
     60 H25        -3.0340   -3.2920    4.7010 ha        1 F1M      0.158000
     61 H26        -6.6690   -1.3210    4.6630 ha        1 F1M      0.149000
     62 H28         7.7000    0.5780   -4.4820 h1        1 F1M      0.086667
     63 H28A        7.2640    0.0190   -5.9290 h1        1 F1M      0.086667
     64 H28B        6.6820   -0.6360   -4.5910 h1        1 F1M      0.086667
     65 H29         2.9560    2.0370   -7.8240 hc        1 F1M      0.084333
     66 H29A        3.4500    0.6920   -7.0990 hc        1 F1M      0.084333
     67 H29B        4.5430    1.7350   -7.7010 hc        1 F1M      0.084333
@<TRIPOS>BOND
     1    1    2 1   
     2    1   22 1   
     3    2   30 1   
     4    3   16 1   
     5    3   17 1   
     6    3   36 1   
     7    3   37 1   
     8    4   23 1   
     9    4   25 1   
    10    5   16 1   
    11    5   38 1   
    12    6   19 1   
    13    6   31 1   
    14    7   17 1   
    15    7   27 1   
    16    7   39 1   
    17    7   40 1   
    18    8   10 1   
    19    8   17 1   
    20    8   41 1   
    21    8   42 1   
    22    9   18 1   
    23    9   43 1   
    24   10   11 1   
    25   10   44 1   
    26   10   45 1   
    27   11   23 1   
    28   11   27 1   
    29   11   46 1   
    30   12   28 1   
    31   12   47 1   
    32   12   48 1   
    33   13   14 1   
    34   13   22 1   
    35   13   35 1   
    36   13   49 1   
    37   14   50 1   
    38   14   51 1   
    39   14   52 1   
    40   15   20 1   
    41   15   21 1   
    42   18   26 1   
    43   19   53 1   
    44   23   54 1   
    45   24   55 1   
    46   24   56 1   
    47   26   33 1   
    48   26   57 1   
    49   27   58 1   
    50   27   59 1   
    51   28   29 1   
    52   29   32 1   
    53   29   33 1   
    54   30   34 1   
    55   32   60 1   
    56   33   61 1   
    57   34   62 1   
    58   34   63 1   
    59   34   64 1   
    60   35   65 1   
    61   35   66 1   
    62   35   67 1   
@<TRIPOS>SUBSTRUCTURE
     1 F1M         1 TEMP              0 ****  ****    0 ROOT
