@<TRIPOS>MOLECULE
F1M
   67    69     1     0     0
SMALL
bcc


@<TRIPOS>ATOM
      1 C1         -5.7220    1.0000   -0.4000 ca        1 F1M      0.102100
      2 C2         -6.6210    0.9570   -1.4970 ca        1 F1M      0.103100
      3 C3         -4.3300   -0.1780    1.3430 c3        1 F1M      0.222100
      4 C8         -5.7250   -1.4230   -0.3330 ca        1 F1M     -0.143000
      5 C11        -6.6150   -1.4500   -1.4040 ca        1 F1M      0.036400
      6 C13        -2.0500    0.2670    2.0010 c3        1 F1M      0.171300
      7 C14        -2.5270   -1.5490    0.4680 c3        1 F1M      0.171300
      8 C16         6.6680    1.0270   -1.2250 ca        1 F1M      0.017500
      9 C19        -1.0660   -1.6130    0.0330 c3        1 F1M     -0.091900
     10 C20        -0.1540   -1.1670    1.1870 c3        1 F1M      0.093700
     11 C22         3.6590   -1.7620    1.2420 c3        1 F1M      0.048400
     12 C30        -5.4370    4.4600    0.6130 c3        1 F1M     -0.108600
     13 C          -5.2750   -0.2000    0.1740 ca        1 F1M     -0.056300
     14 N          -2.9270   -0.2370    0.9530 n3        1 F1M     -0.724600
     15 C4          7.7410    0.1540   -0.9900 ca        1 F1M     -0.421500
     16 C5         -7.0700   -0.2680   -1.9970 ca        1 F1M     -0.188000
     17 O           9.9570   -0.7440   -1.7720 o         1 F1M     -0.659300
     18 O6          9.1120    1.2910   -2.7690 o         1 F1M     -0.659300
     19 O9         -5.1820    2.1910    0.0460 os        1 F1M     -0.322900
     20 N12         9.9740    1.3390   -0.4690 n3        1 F1M     -1.026700
     21 O15         1.9030   -2.3430    2.7500 o         1 F1M     -0.605100
     22 C17         7.5060   -1.0090   -0.2500 ca        1 F1M      0.017500
     23 C18        -0.5750    0.2490    1.6100 c3        1 F1M     -0.091900
     24 O21         3.9030   -0.5800    0.4740 os        1 F1M     -0.332900
     25 C23         5.1930   -0.4090    0.0230 ca        1 F1M      0.188100
     26 O24        -7.0170    2.1810   -1.9990 os        1 F1M     -0.321900
     27 CL         -7.1620   -2.9430   -2.0100 cl        1 F1M     -0.093400
     28 C25         5.4010    0.7650   -0.7290 ca        1 F1M     -0.207500
     29 C26         6.2460   -1.3030    0.2620 ca        1 F1M     -0.207500
     30 C28        -7.7780    2.1510   -3.2020 c3        1 F1M      0.111700
     31 C29        -6.4640    2.6780    2.0510 c3        1 F1M     -0.108600
     32 H3         -4.4980    0.7910    1.9020 h1        1 F1M      0.046200
     33 H3A        -4.6040   -1.0290    2.0360 h1        1 F1M      0.046200
     34 H8         -5.3740   -2.3620    0.1230 ha        1 F1M      0.150000
     35 H13        -2.3470    1.3350    2.2090 h1        1 F1M      0.035700
     36 H13A       -2.1720   -0.3170    2.9610 h1        1 F1M      0.035700
     37 H14        -3.1750   -1.7900   -0.4220 h1        1 F1M      0.035700
     38 H14A       -2.7040   -2.3510    1.2470 h1        1 F1M      0.035700
     39 H16         6.8370    1.9340   -1.8350 ha        1 F1M      0.157000
     40 H19        -0.8330   -2.6680   -0.2620 hc        1 F1M      0.054950
     41 H19A       -0.9050   -0.9580   -0.8620 hc        1 F1M      0.054950
     42 H20        -0.3230   -1.8630    2.0650 h1        1 F1M      0.087700
     43 H22         4.3010   -1.7600    2.1630 h1        1 F1M      0.077700
     44 H22A        3.8650   -2.6730    0.6200 h1        1 F1M      0.077700
     45 H27        -7.0640    3.1410    0.0100 h1        1 F1M      0.063700
     46 H30        -5.2130    4.7560   -0.4400 hc        1 F1M      0.044867
     47 H30A       -6.1030    5.2230    1.0790 hc        1 F1M      0.044867
     48 H30B       -4.4760    4.4150    1.1790 hc        1 F1M      0.044867
     49 H5         -7.7660   -0.3110   -2.8470 ha        1 F1M      0.153000
     50 HN10        1.5510   -0.7070    0.0580 hn        1 F1M      0.320500
     51 HN12       10.5150    0.9400    0.2560 hn        1 F1M      0.446800
     52 HN1A        9.9360    2.3250   -0.4200 hn        1 F1M      0.446800
     53 H17         8.3360   -1.7200   -0.0840 ha        1 F1M      0.157000
     54 H18        -0.3950    0.9710    0.7710 hc        1 F1M      0.054950
     55 H18A        0.0260    0.5850    2.4930 hc        1 F1M      0.054950
     56 H25         4.5610    1.4490   -0.9130 ha        1 F1M      0.153500
     57 H26         6.0930   -2.2260    0.8390 ha        1 F1M      0.153500
     58 H28        -7.2260    1.6120   -4.0100 h1        1 F1M      0.047367
     59 H28A       -8.7740    1.6790   -3.0240 h1        1 F1M      0.047367
     60 H28B       -7.8950    3.2350   -3.4590 h1        1 F1M      0.047367
     61 H29        -6.8700    1.6370    2.0510 hc        1 F1M      0.044867
     62 H29A       -5.5510    2.7020    2.6940 hc        1 F1M      0.044867
     63 H29B       -7.2280    3.3660    2.4840 hc        1 F1M      0.044867
     64 N10         1.2460   -1.2560    0.8270 n         1 F1M     -0.543900
     65 C27        -6.1300    3.1100    0.6370 c3        1 F1M      0.136100
     66 C7          2.1910   -1.7790    1.6750 c         1 F1M      0.660100
     67 S           9.2690    0.4800   -1.6240 sy        1 F1M      1.532200
@<TRIPOS>BOND
     1    1    2 ar  
     2    1   13 ar  
     3    1   19 1   
     4    2   16 ar  
     5    2   26 1   
     6    3   13 1   
     7    3   14 1   
     8    3   32 1   
     9    3   33 1   
    10    4    5 ar  
    11    4   13 ar  
    12    4   34 1   
    13    5   16 ar  
    14    5   27 1   
    15    6   14 1   
    16    6   23 1   
    17    6   35 1   
    18    6   36 1   
    19    7    9 1   
    20    7   14 1   
    21    7   37 1   
    22    7   38 1   
    23    8   15 ar  
    24    8   28 ar  
    25    8   39 1   
    26    9   10 1   
    27    9   40 1   
    28    9   41 1   
    29   10   23 1   
    30   10   42 1   
    31   10   64 1   
    32   11   24 1   
    33   11   43 1   
    34   11   44 1   
    35   11   66 1   
    36   12   46 1   
    37   12   47 1   
    38   12   48 1   
    39   12   65 1   
    40   15   22 ar  
    41   15   67 1   
    42   16   49 1   
    43   17   67 2   
    44   18   67 2   
    45   19   65 1   
    46   20   51 1   
    47   20   52 1   
    48   20   67 1   
    49   21   66 2   
    50   22   29 ar  
    51   22   53 1   
    52   23   54 1   
    53   23   55 1   
    54   24   25 1   
    55   25   28 ar  
    56   25   29 ar  
    57   26   30 1   
    58   28   56 1   
    59   29   57 1   
    60   30   58 1   
    61   30   59 1   
    62   30   60 1   
    63   31   61 1   
    64   31   62 1   
    65   31   63 1   
    66   31   65 1   
    67   45   65 1   
    68   50   64 1   
    69   64   66 1   
@<TRIPOS>SUBSTRUCTURE
     1 F1M         1 TEMP              0 ****  ****    0 ROOT
