@<TRIPOS>MOLECULE
F1N
   70    72     1     0     0
SMALL
bcc


@<TRIPOS>ATOM
      1 C31        -4.8850   -2.3350   -1.1640 c3        1 F1N      0.138100
      2 C28        -6.7960    0.3820   -1.0860 ca        1 F1N      0.120100
      3 C27        -6.9180    1.7500   -0.8320 ca        1 F1N     -0.194000
      4 C26        -6.2380    2.3000    0.2600 ca        1 F1N      0.041400
      5 C24        -5.3200    0.1370    0.8390 ca        1 F1N     -0.060300
      6 C23        -4.5200   -0.7190    1.7800 c3        1 F1N      0.209100
      7 C22        -0.9340   -1.9260    1.9350 c3        1 F1N     -0.091900
      8 C17        -0.2550   -0.5810    2.2390 c3        1 F1N      0.093700
      9 C11         5.1460    0.1190   -0.6800 ca        1 F1N     -0.124300
     10 C10         6.4240    0.0990   -1.2300 ca        1 F1N      0.007000
     11 C9          7.5690   -0.0590   -0.4370 ca        1 F1N     -0.415500
     12 C8          7.4110   -0.2150    0.9430 ca        1 F1N      0.017000
     13 C7          6.1510   -0.2020    1.5320 ca        1 F1N     -0.228000
     14 C6          5.0210   -0.0320    0.7220 ca        1 F1N      0.184100
     15 C3          3.5670   -0.1890    2.6040 c3        1 F1N      0.048400
     16 CL36       -6.3850    3.9650    0.5750 cl        1 F1N     -0.093400
     17 O34        -7.4040   -0.2600   -2.1450 os        1 F1N     -0.308900
     18 C35        -8.3950    0.4880   -2.8440 c3        1 F1N      0.108700
     19 C29        -5.9980   -0.4370   -0.2470 ca        1 F1N      0.094100
     20 O30        -6.0170   -1.8070   -0.4270 os        1 F1N     -0.335900
     21 C33        -4.7290   -3.7640   -0.6780 c3        1 F1N     -0.105600
     22 C32        -5.1730   -2.2790   -2.6500 c3        1 F1N     -0.105600
     23 C25        -5.4480    1.5080    1.0900 ca        1 F1N     -0.148000
     24 N20        -3.0900   -0.7550    1.4850 n3        1 F1N     -0.730600
     25 C21        -2.4310   -1.8310    2.2170 c3        1 F1N      0.166300
     26 C19        -2.4360    0.5320    1.6760 c3        1 F1N      0.166300
     27 C18        -0.9380    0.5010    1.3870 c3        1 F1N     -0.091900
     28 O1          1.7420    0.2500    4.0760 o         1 F1N     -0.604100
     29 O5          3.7270    0.0000    1.1940 os        1 F1N     -0.332900
     30 O15         9.9550   -0.8450   -0.2980 o         1 F1N     -0.659300
     31 O16         8.9630   -0.5300   -2.4800 o         1 F1N     -0.659300
     32 N14         9.5580    1.4330   -1.1280 n3        1 F1N     -1.026700
     33 H31        -3.9670   -1.7340   -0.9180 h1        1 F1N      0.065700
     34 H27        -7.5370    2.3920   -1.4750 ha        1 F1N      0.154000
     35 H23        -4.7160   -0.3570    2.8340 h1        1 F1N      0.052700
     36 H23A       -4.9080   -1.7780    1.7000 h1        1 F1N      0.052700
     37 H22        -0.7620   -2.2120    0.8660 hc        1 F1N      0.054200
     38 H22A       -0.5060   -2.7330    2.5830 hc        1 F1N      0.054200
     39 H17        -0.4280   -0.3330    3.3310 h1        1 F1N      0.089700
     40 H12         3.1980   -0.5130   -1.3020 hc        1 F1N      0.049700
     41 H12A        3.4590    1.2770   -1.3020 hc        1 F1N      0.049700
     42 H12B        4.2000    0.2540   -2.6100 hc        1 F1N      0.049700
     43 H10         6.5410    0.1920   -2.3260 ha        1 F1N      0.157000
     44 H8          8.3040   -0.3690    1.5750 ha        1 F1N      0.156000
     45 H7          6.0590   -0.3270    2.6200 ha        1 F1N      0.148000
     46 H3          4.0800    0.6390    3.1600 h1        1 F1N      0.078200
     47 H3A         3.9830   -1.1860    2.9090 h1        1 F1N      0.078200
     48 H35        -7.9240    1.3340   -3.4010 h1        1 F1N      0.046700
     49 H35A       -8.8270   -0.2610   -3.5560 h1        1 F1N      0.046700
     50 H35B       -9.1790    0.8650   -2.1440 h1        1 F1N      0.046700
     51 H33        -5.6800   -4.3300   -0.8220 hc        1 F1N      0.044700
     52 H33A       -3.9140   -4.2620   -1.2560 hc        1 F1N      0.044700
     53 H33B       -4.4690   -3.7740    0.4070 hc        1 F1N      0.044700
     54 H32        -4.3050   -2.6870   -3.2200 hc        1 F1N      0.044700
     55 H32A       -6.0850   -2.8770   -2.8910 hc        1 F1N      0.044700
     56 H32B       -5.3590   -1.2230   -2.9640 hc        1 F1N      0.044700
     57 H25        -4.9270    1.9520    1.9530 ha        1 F1N      0.150000
     58 H21        -2.9120   -2.8000    1.8990 h1        1 F1N      0.037700
     59 H21A       -2.5790   -1.7260    3.3320 h1        1 F1N      0.037700
     60 H19        -2.9190    1.2620    0.9670 h1        1 F1N      0.037700
     61 H19A       -2.5890    0.9220    2.7270 h1        1 F1N      0.037700
     62 H18        -0.5140    1.5100    1.6270 hc        1 F1N      0.054200
     63 H18A       -0.7630    0.3010    0.2980 hc        1 F1N      0.054200
     64 HN4         1.4910   -0.8230    1.1040 hn        1 F1N      0.319500
     65 HN14       10.0690    1.8450   -0.3890 hn        1 F1N      0.446800
     66 HN1A        9.3830    2.0630   -1.8700 hn        1 F1N      0.446800
     67 N4          1.1760   -0.6430    2.0290 n         1 F1N     -0.545900
     68 C2          2.0760   -0.1530    2.9440 c         1 F1N      0.660100
     69 S13         9.1010   -0.1020   -1.1420 sy        1 F1N      1.531200
     70 C12         3.9430    0.2920   -1.5240 c3        1 F1N     -0.043800
@<TRIPOS>BOND
     1    1   20 1   
     2    1   21 1   
     3    1   22 1   
     4    1   33 1   
     5    2    3 ar  
     6    2   17 1   
     7    2   19 ar  
     8    3    4 ar  
     9    3   34 1   
    10    4   16 1   
    11    4   23 ar  
    12    5    6 1   
    13    5   19 ar  
    14    5   23 ar  
    15    6   24 1   
    16    6   35 1   
    17    6   36 1   
    18    7    8 1   
    19    7   25 1   
    20    7   37 1   
    21    7   38 1   
    22    8   27 1   
    23    8   39 1   
    24    8   67 1   
    25    9   10 ar  
    26    9   14 ar  
    27    9   70 1   
    28   10   11 ar  
    29   10   43 1   
    30   11   12 ar  
    31   11   69 1   
    32   12   13 ar  
    33   12   44 1   
    34   13   14 ar  
    35   13   45 1   
    36   14   29 1   
    37   15   29 1   
    38   15   46 1   
    39   15   47 1   
    40   15   68 1   
    41   17   18 1   
    42   18   48 1   
    43   18   49 1   
    44   18   50 1   
    45   19   20 1   
    46   21   51 1   
    47   21   52 1   
    48   21   53 1   
    49   22   54 1   
    50   22   55 1   
    51   22   56 1   
    52   23   57 1   
    53   24   25 1   
    54   24   26 1   
    55   25   58 1   
    56   25   59 1   
    57   26   27 1   
    58   26   60 1   
    59   26   61 1   
    60   27   62 1   
    61   27   63 1   
    62   28   68 2   
    63   30   69 2   
    64   31   69 2   
    65   32   65 1   
    66   32   66 1   
    67   32   69 1   
    68   40   70 1   
    69   41   70 1   
    70   42   70 1   
    71   64   67 1   
    72   67   68 1   
@<TRIPOS>SUBSTRUCTURE
     1 F1N         1 TEMP              0 ****  ****    0 ROOT
