@<TRIPOS>MOLECULE
F1N
   70    66     1     0     0
SMALL
bcc


@<TRIPOS>ATOM
      1 C31         4.0940    3.4520   -1.7690 c3        1 F1N      0.028000
      2 C28         2.2660    5.5270   -2.5180 c1        1 F1N      0.060000
      3 C27         1.2040    6.2570   -3.0660 c1        1 F1N     -0.190000
      4 C26        -0.0870    6.0920   -2.5650 c1        1 F1N     -0.044000
      5 C24         0.7400    4.4800   -0.9830 c1        1 F1N     -0.053000
      6 C23         0.4980    3.5540    0.2490 c2        1 F1N     -0.034000
      7 C22        -2.5910    2.0700    1.7080 c3        1 F1N     -0.172500
      8 C17        -2.8220    1.0150    0.6480 c3        1 F1N      0.019000
      9 C12        -3.5060   -5.5230    3.7860 c3        1 F1N     -0.169000
     10 C11        -2.4760   -5.9190    2.7530 c2        1 F1N     -0.118000
     11 C10        -2.0480   -7.2290    2.6700 c1        1 F1N      0.007000
     12 C9         -1.1630   -7.6010    1.6840 c1        1 F1N     -0.860000
     13 C8         -0.6970   -6.6470    0.7640 c1        1 F1N      0.017000
     14 C7         -1.1240   -5.3420    0.8480 c1        1 F1N     -0.228000
     15 C6         -2.0090   -4.9700    1.8340 c2        1 F1N      0.140000
     16 C3         -1.8470   -2.6490    1.4720 c3        1 F1N     -0.052000
     17 C2         -2.6850   -1.3870    1.2790 c2        1 F1N      0.302000
     18 CL36       -1.4270    7.0160   -3.2570 cl        1 F1N     -0.013000
     19 O34         3.5950    5.7540   -2.9750 o         1 F1N     -0.207000
     20 C35         3.7310    5.7250   -4.4040 c3        1 F1N     -0.078000
     21 C29         2.0360    4.6460   -1.4860 c2        1 F1N      0.035000
     22 O30         3.1510    3.9320   -0.8690 os        1 F1N     -0.217000
     23 C33         5.3790    3.1350   -1.0240 c3        1 F1N     -0.227000
     24 C32         3.5670    2.1820   -2.4360 c3        1 F1N     -0.227000
     25 C25        -0.3190    5.2080   -1.5290 c2        1 F1N     -0.127000
     26 N20        -0.8410    3.1430    0.2730 n3        1 F1N     -0.258000
     27 C21        -1.1920    2.6640    1.6400 c3        1 F1N     -0.072500
     28 C19        -1.0640    2.1020   -0.7830 c3        1 F1N     -0.072500
     29 C18        -2.4640    1.5040   -0.7260 c3        1 F1N     -0.172500
     30 N4         -2.0350   -0.1290    0.9520 n         1 F1N     -0.355000
     31 O1         -3.9050   -1.4580    1.2930 o         1 F1N     -0.366000
     32 O5         -2.6950   -3.7560    1.6240 os        1 F1N     -0.218000
     33 S13        -0.5900   -9.3070    1.5720 s4        1 F1N      2.086800
     34 O15        -1.6450  -10.2420    1.9060 o         1 F1N     -0.546400
     35 O16        -0.3220   -9.6620    0.2510 o         1 F1N     -0.546400
     36 N14         0.7120   -9.5260    2.5130 n2        1 F1N     -0.954000
     37 H31         4.2630    4.1000   -2.4210 h1        1 F1N      0.105000
     38 H27         1.3610    6.8600   -3.7670 ha        1 F1N      0.153000
     39 H23         1.0840    2.7620    0.1850 h4        1 F1N      0.095000
     40 H23A        0.7040    4.0460    1.0740 h4        1 F1N      0.095000
     41 H22        -3.2430    2.7860    1.5850 hc        1 F1N      0.100000
     42 H22A       -2.7260    1.6600    2.6090 hc        1 F1N      0.100000
     43 H17        -3.7540    0.7600    0.6560 h1        1 F1N      0.129000
     44 H12        -3.2330   -4.6990    4.2150 hc        1 F1N      0.089000
     45 H12A       -4.3710   -5.3900    3.3490 hc        1 F1N      0.089000
     46 H12B       -3.5870   -6.2470    4.4730 hc        1 F1N      0.089000
     47 H10        -2.3600   -7.8660    3.2870 ha        1 F1N      0.158000
     48 H8         -0.0700   -6.9090    0.0650 ha        1 F1N      0.156000
     49 H7         -0.7820   -4.6430    0.1730 ha        1 F1N      0.149000
     50 H3         -1.2830   -2.7810    0.7060 h1        1 F1N      0.117500
     51 H3A        -1.2890   -2.5510    2.2750 h1        1 F1N      0.117500
     52 H35         4.6030    6.1240   -4.6620 h1        1 F1N      0.087000
     53 H35A        3.0080    6.2360   -4.8080 h1        1 F1N      0.087000
     54 H35B        3.6910    4.8000   -4.7160 h1        1 F1N      0.087000
     55 H33         5.5400    3.8210   -0.3480 hc        1 F1N      0.083833
     56 H33A        6.1450    3.1150   -1.6690 hc        1 F1N      0.083833
     57 H33B        5.2960    2.2680   -0.5930 hc        1 F1N      0.083833
     58 H32         4.3510    1.6240   -2.7680 hc        1 F1N      0.083833
     59 H32A        2.9970    2.4220   -3.1890 hc        1 F1N      0.083833
     60 H32B        3.0370    1.6510   -1.7720 hc        1 F1N      0.083833
     61 H25        -1.2370    5.0900   -1.1730 ha        1 F1N      0.168000
     62 H21        -0.5380    1.9700    1.9110 h1        1 F1N      0.072500
     63 H21A       -1.1340    3.4280    2.2760 h1        1 F1N      0.072500
     64 H19        -0.3900    1.3620   -0.6560 h1        1 F1N      0.072500
     65 H19A       -0.9250    2.5210   -1.6930 h1        1 F1N      0.072500
     66 H18        -2.5150    0.7420   -1.3640 hc        1 F1N      0.100000
     67 H18A       -3.1000    2.1740   -0.9910 hc        1 F1N      0.100000
     68 HN4        -1.1260   -0.0860    0.8980 hn        1 F1N      0.233000
     69 HN14        1.5560   -9.5370    2.1350 hn        1 F1N      0.242000
     70 HN1A        0.6080   -9.7220    3.3910 hn        1 F1N      0.242000
@<TRIPOS>BOND
     1    1   22 1   
     2    1   23 1   
     3    1   24 1   
     4    1   37 1   
     5    2    3 1   
     6    2   21 1   
     7    3   38 1   
     8    4   18 1   
     9    4   25 1   
    10    5   21 1   
    11    5   25 1   
    12    6   26 1   
    13    6   39 1   
    14    6   40 1   
    15    7    8 1   
    16    7   27 1   
    17    7   41 1   
    18    7   42 1   
    19    8   29 1   
    20    8   30 1   
    21    8   43 1   
    22    9   10 1   
    23    9   44 1   
    24    9   45 1   
    25    9   46 1   
    26   10   11 1   
    27   10   15 1   
    28   11   47 1   
    29   12   13 1   
    30   12   33 1   
    31   13   48 1   
    32   14   15 1   
    33   14   49 1   
    34   15   32 1   
    35   16   17 1   
    36   16   32 1   
    37   16   50 1   
    38   16   51 1   
    39   17   30 1   
    40   17   31 1   
    41   19   20 1   
    42   20   52 1   
    43   20   53 1   
    44   20   54 1   
    45   21   22 1   
    46   23   55 1   
    47   23   56 1   
    48   23   57 1   
    49   24   58 1   
    50   24   59 1   
    51   24   60 1   
    52   25   61 1   
    53   26   27 1   
    54   26   28 1   
    55   27   62 1   
    56   27   63 1   
    57   28   29 1   
    58   28   64 1   
    59   28   65 1   
    60   29   66 1   
    61   29   67 1   
    62   30   68 1   
    63   33   34 1   
    64   33   35 1   
    65   36   69 1   
    66   36   70 1   
@<TRIPOS>SUBSTRUCTURE
     1 F1N         1 TEMP              0 ****  ****    0 ROOT
