@<TRIPOS>MOLECULE
F1P
   27    27     1     0     0
SMALL
bcc


@<TRIPOS>ATOM
      1 C1          1.7620    0.4140   -0.3550 c3        1 F1P      0.212400
      2 C2          0.1880    0.3970   -0.2100 c3        1 F1P      0.269600
      3 C3         -0.1730    0.1440    1.2950 c3        1 F1P      0.138100
      4 C4         -1.7300    0.2670    1.1280 c3        1 F1P      0.106100
      5 C5         -2.3010   -0.7620    0.2090 c3        1 F1P      0.112100
      6 C6         -1.3230   -1.3030   -0.6080 c3        1 F1P      0.122400
      7 O1          2.1140    0.3310   -1.7390 os        1 F1P     -0.571200
      8 O2         -0.2970    1.6120   -0.5770 oh        1 F1P     -0.651800
      9 O3          0.2960    1.0540    2.0530 oh        1 F1P     -0.694800
     10 O4         -2.3390    0.1260    2.4030 oh        1 F1P     -0.653800
     11 O5         -2.9210   -1.8650    1.0330 oh        1 F1P     -0.621800
     12 O6         -0.3710   -0.6520   -1.1410 os        1 F1P     -0.433600
     13 P1          3.6840    0.4170   -2.1430 p5        1 F1P      1.329900
     14 O1P         4.4270   -0.7160   -1.5080 o         1 F1P     -0.909167
     15 O2P         4.2530    1.7220   -1.6610 o         1 F1P     -0.909167
     16 O3P         3.8270    0.3280   -3.6610 o         1 F1P     -0.909167
     17 H11         2.1560   -0.3770    0.1420 h1        1 F1P      0.020200
     18 H12         2.1100    1.2340    0.0170 h1        1 F1P      0.020200
     19 H3          0.0940   -0.7580    1.5880 h1        1 F1P      0.018700
     20 H4         -1.9470    1.1960    0.7590 h1        1 F1P      0.062700
     21 H5         -2.9800   -0.3560   -0.3370 h1        1 F1P      0.088700
     22 H61        -0.9120   -2.0000   -0.1000 h1        1 F1P      0.020200
     23 H62        -1.8040   -1.7400   -1.3560 h1        1 F1P      0.020200
     24 HO2         0.0240    1.8290   -1.3550 ho        1 F1P      0.455000
     25 HO3         0.6400    0.6690    2.8200 ho        1 F1P      0.528000
     26 HO4        -2.8070    0.8520    2.5870 ho        1 F1P      0.425000
     27 HO5        -3.6720   -2.0610    0.7170 ho        1 F1P      0.406000
@<TRIPOS>BOND
     1    1    2 1   
     2    1    7 1   
     3    1   17 1   
     4    1   18 1   
     5    2    3 1   
     6    2    8 1   
     7    2   12 1   
     8    3    4 1   
     9    3    9 1   
    10    3   19 1   
    11    4    5 1   
    12    4   10 1   
    13    4   20 1   
    14    5    6 1   
    15    5   11 1   
    16    5   21 1   
    17    6   12 1   
    18    6   22 1   
    19    6   23 1   
    20    7   13 1   
    21    8   24 1   
    22    9   25 1   
    23   10   26 1   
    24   11   27 1   
    25   13   14 1   
    26   13   15 1   
    27   13   16 1   
@<TRIPOS>SUBSTRUCTURE
     1 F1P         1 TEMP              0 ****  ****    0 ROOT
