@<TRIPOS>MOLECULE
F1P
   27    27     1     0     0
SMALL
bcc


@<TRIPOS>ATOM
      1 C1         -0.7200   -0.5730    0.3610 c3        1 F1P      0.227400
      2 C2          0.6070   -0.1060   -0.3370 c3        1 F1P      0.303600
      3 C3          1.8190   -1.0220   -0.0120 c3        1 F1P      0.099100
      4 C4          3.1370   -0.4180   -0.5330 c3        1 F1P      0.068100
      5 C5          3.3010    1.0300   -0.0510 c3        1 F1P      0.077100
      6 C6          2.0340    1.8190   -0.4000 c3        1 F1P      0.108400
      7 O1         -1.7490   -0.4830   -0.5200 os        1 F1P     -0.554200
      8 O2          0.5100    0.0650   -1.7170 oh        1 F1P     -0.652800
      9 O3          1.6100   -2.2990   -0.5830 oh        1 F1P     -0.560800
     10 O4          4.2370   -1.2180   -0.1190 oh        1 F1P     -0.628800
     11 O5          3.5530    1.0420    1.3480 oh        1 F1P     -0.635800
     12 O6          0.9110    1.1980    0.1860 os        1 F1P     -0.420600
     13 P1         -3.1950    0.3750    0.0330 p5        1 F1P      1.310900
     14 O1P        -2.9380    0.4810    1.5120 o         1 F1P     -0.921167
     15 O2P        -3.0600    1.6390   -0.7660 o         1 F1P     -0.921167
     16 O3P        -4.2780   -0.5770   -0.3800 o         1 F1P     -0.921167
     17 H11        -0.5250   -1.6470    0.6530 h1        1 F1P      0.028200
     18 H12        -0.8920    0.0610    1.2780 h1        1 F1P      0.028200
     19 H3          1.8820   -1.1230    1.1090 h1        1 F1P      0.024700
     20 H4          3.1470   -0.4610   -1.6560 h1        1 F1P      0.094700
     21 H5          4.2170    1.4910   -0.5090 h1        1 F1P      0.051700
     22 H61         2.0680    2.8430    0.0560 h1        1 F1P      0.054200
     23 H62         1.9230    1.8880   -1.5130 h1        1 F1P      0.054200
     24 HO2        -0.4420    0.1530   -1.9280 ho        1 F1P      0.480000
     25 HO3         2.4470   -2.7710   -0.4820 ho        1 F1P      0.378000
     26 HO4         4.3560   -1.0510    0.8250 ho        1 F1P      0.402000
     27 HO5         2.6910    0.9570    1.7820 ho        1 F1P      0.427000
@<TRIPOS>BOND
     1    1    2 1   
     2    1    7 1   
     3    1   17 1   
     4    1   18 1   
     5    2    3 1   
     6    2    8 1   
     7    2   12 1   
     8    3    4 1   
     9    3    9 1   
    10    3   19 1   
    11    4    5 1   
    12    4   10 1   
    13    4   20 1   
    14    5    6 1   
    15    5   11 1   
    16    5   21 1   
    17    6   12 1   
    18    6   22 1   
    19    6   23 1   
    20    7   13 1   
    21    8   24 1   
    22    9   25 1   
    23   10   26 1   
    24   11   27 1   
    25   13   14 1   
    26   13   15 1   
    27   13   16 1   
@<TRIPOS>SUBSTRUCTURE
     1 F1P         1 TEMP              0 ****  ****    0 ROOT
