@<TRIPOS>MOLECULE
F1S
   56    59     1     0     0
SMALL
bcc


@<TRIPOS>ATOM
      1 C31        -0.3500    0.1310   -0.5990 c3        1 F1S     -0.374300
      2 S30         1.2390   -0.2100   -0.1160 s6        1 F1S      1.470900
      3 O32         1.2350   -0.4280    1.2740 o         1 F1S     -0.649800
      4 O33         1.7410   -1.2490   -0.9240 o         1 F1S     -0.649800
      5 N27         2.0530    1.1500   -0.5040 nh        1 F1S     -0.775500
      6 C26         1.9920    2.3930    0.1350 ca        1 F1S      0.075300
      7 C25         1.8270    2.4980    1.5320 ca        1 F1S     -0.193000
      8 C21         2.1040    3.6110   -0.6030 ca        1 F1S      0.431300
      9 CL2         2.3270    3.5410   -2.3020 cl        1 F1S     -0.154000
     10 N22         2.0580    4.8310   -0.0260 nb        1 F1S     -0.621000
     11 C23         1.8920    4.9120    1.2960 ca        1 F1S      0.400200
     12 C24         1.7640    3.7680    2.1410 ca        1 F1S      0.078300
     13 N28         1.6710    3.8660    3.5340 nh        1 F1S     -0.723300
     14 C2          0.8350    4.7560    4.2170 ca        1 F1S      0.690200
     15 N1          0.0650    5.6490    3.5100 nb        1 F1S     -0.724000
     16 C6         -0.7210    6.4880    4.1900 ca        1 F1S      0.457200
     17 C5         -0.8380    6.5160    5.5970 ca        1 F1S     -0.240600
     18 C15        -1.7490    7.4730    6.2840 c3        1 F1S     -0.007400
     19 C16        -1.3590    8.9190    5.9940 c3        1 F1S     -0.109400
     20 C17        -2.3450    9.8740    6.6440 c3        1 F1S      0.126400
     21 O18        -3.6850    9.6120    6.2450 os        1 F1S     -0.414600
     22 C19        -4.1010    8.2820    6.5340 c3        1 F1S      0.126400
     23 C20        -3.2020    7.2480    5.8780 c3        1 F1S     -0.109400
     24 C4         -0.0630    5.6070    6.3200 ca        1 F1S     -0.018000
     25 C3          0.7880    4.7240    5.6490 cp        1 F1S     -0.304800
     26 C7          1.6210    3.7960    6.4560 cp        1 F1S      0.754500
     27 N12         0.9600    3.0020    7.3490 nb        1 F1S     -0.787000
     28 N8          2.9780    3.8260    6.2690 nb        1 F1S     -0.767000
     29 C9          3.7000    2.9740    7.0710 ca        1 F1S      0.707300
     30 C13         5.2000    2.9790    6.8990 c3        1 F1S     -0.142400
     31 N10         3.1720    2.1340    8.0020 nb        1 F1S     -0.787000
     32 C11         1.7810    2.1800    8.1230 ca        1 F1S      0.904900
     33 N14         1.1860    1.3930    9.0900 nh        1 F1S     -0.942500
     34 H1         -1.0320   -0.7140   -0.3210 h1        1 F1S      0.121367
     35 H2         -0.7850    1.0440   -0.1230 h1        1 F1S      0.121367
     36 H3         -0.4600    0.2660   -1.7030 h1        1 F1S      0.121367
     37 H4          2.6440    1.1530   -1.3100 hn        1 F1S      0.468800
     38 H5          1.7530    1.5820    2.1480 ha        1 F1S      0.180000
     39 H6          1.8650    5.9410    1.7020 h4        1 F1S      0.055100
     40 H7          1.9350    3.0470    4.0380 hn        1 F1S      0.450800
     41 H8         -1.3080    7.1860    3.5620 h4        1 F1S      0.031100
     42 H9         -1.6710    7.3100    7.3990 hc        1 F1S      0.054700
     43 H10        -1.3480    9.0900    4.8860 hc        1 F1S      0.054950
     44 H11        -0.3300    9.1240    6.3850 hc        1 F1S      0.054950
     45 H12        -2.2700    9.8120    7.7630 h1        1 F1S      0.048200
     46 H13        -2.1640   10.9300    6.3090 h1        1 F1S      0.048200
     47 H14        -5.1430    8.2290    6.1220 h1        1 F1S      0.048200
     48 H15        -4.1240    8.1320    7.6460 h1        1 F1S      0.048200
     49 H16        -3.5300    6.2230    6.1830 hc        1 F1S      0.054950
     50 H17        -3.2960    7.3250    4.7630 hc        1 F1S      0.054950
     51 H18        -0.1160    5.5840    7.4200 ha        1 F1S      0.153000
     52 H19         5.5950    3.9900    7.1710 hc        1 F1S      0.068700
     53 H20         5.4550    2.7670    5.8320 hc        1 F1S      0.068700
     54 H21         5.6860    2.2120    7.5490 hc        1 F1S      0.068700
     55 H22         1.7320    0.7080    9.5530 hn        1 F1S      0.448300
     56 H23         0.1990    1.3060    9.0980 hn        1 F1S      0.448300
@<TRIPOS>BOND
     1    1    2 1   
     2    1   34 1   
     3    1   35 1   
     4    1   36 1   
     5    2    3 2   
     6    2    4 2   
     7    2    5 1   
     8    5    6 1   
     9    5   37 1   
    10    6    7 ar  
    11    6    8 ar  
    12    7   12 ar  
    13    7   38 1   
    14    8    9 1   
    15    8   10 ar  
    16   10   11 ar  
    17   11   12 ar  
    18   11   39 1   
    19   12   13 1   
    20   13   14 1   
    21   13   40 1   
    22   14   15 ar  
    23   14   25 ar  
    24   15   16 ar  
    25   16   17 ar  
    26   16   41 1   
    27   17   18 1   
    28   17   24 ar  
    29   18   19 1   
    30   18   23 1   
    31   18   42 1   
    32   19   20 1   
    33   19   43 1   
    34   19   44 1   
    35   20   21 1   
    36   20   45 1   
    37   20   46 1   
    38   21   22 1   
    39   22   23 1   
    40   22   47 1   
    41   22   48 1   
    42   23   49 1   
    43   23   50 1   
    44   24   25 ar  
    45   24   51 1   
    46   25   26 1   
    47   26   27 ar  
    48   26   28 ar  
    49   27   32 ar  
    50   28   29 ar  
    51   29   30 1   
    52   29   31 ar  
    53   30   52 1   
    54   30   53 1   
    55   30   54 1   
    56   31   32 ar  
    57   32   33 1   
    58   33   55 1   
    59   33   56 1   
@<TRIPOS>SUBSTRUCTURE
     1 F1S         1 TEMP              0 ****  ****    0 ROOT
