@<TRIPOS>MOLECULE
F1S
   59    61     1     0     0
SMALL
bcc


@<TRIPOS>ATOM
      1 C31        -0.3290    2.1340   -3.1960 c3        1 F1S     -0.592800
      2 S30        -0.8230    2.4740   -1.7270 s4        1 F1S      1.651500
      3 O32        -0.6920    3.7400   -1.2880 o         1 F1S     -0.396400
      4 O33        -1.4790    1.5150   -1.0430 o         1 F1S     -0.396400
      5 N27         1.2560    1.7080   -0.5620 nh        1 F1S     -0.874200
      6 C26         1.8750    2.6080    0.3570 ca        1 F1S     -0.061700
      7 C25         1.6950    2.4850    1.7500 ca        1 F1S     -0.047000
      8 C21         2.6840    3.6930   -0.1180 ca        1 F1S      0.535300
      9 CL2         2.9730    3.8550   -1.7830 cl        1 F1S     -0.052000
     10 N22         3.2450    4.6020    0.7120 nb        1 F1S     -0.582000
     11 C23         3.0640    4.4800    2.0300 ca        1 F1S      0.475200
     12 C24         2.3130    3.4170    2.6010 ca        1 F1S     -0.139700
     13 N28         2.2010    3.3070    4.0580 n4        1 F1S     -0.600100
     14 C2          1.1260    4.1300    4.6780 ca        1 F1S      0.483200
     15 N1          0.1400    4.5290    3.8330 nb        1 F1S     -0.649000
     16 C6         -0.8590    5.2740    4.3220 ca        1 F1S      0.463200
     17 C5         -0.9430    5.6690    5.6810 ca        1 F1S     -0.098600
     18 C15        -2.0800    6.5050    6.1670 c3        1 F1S     -0.044400
     19 C16        -2.1150    7.8480    5.4390 c3        1 F1S     -0.110900
     20 C17        -3.3510    8.6370    5.8460 c3        1 F1S      0.122400
     21 O18        -4.5350    7.8870    5.6170 os        1 F1S     -0.387600
     22 C19        -4.5690    6.6790    6.3640 c3        1 F1S      0.122400
     23 C20        -3.4070    5.7700    5.9870 c3        1 F1S     -0.110900
     24 C4          0.0730    5.2400    6.5410 ca        1 F1S     -0.044000
     25 C3          1.1440    4.4540    6.0640 cp        1 F1S     -0.240800
     26 C7          2.1680    3.9930    7.0380 cp        1 F1S      0.779500
     27 N12         2.3360    4.7490    8.1810 nb        1 F1S     -0.707000
     28 N8          2.8590    2.8380    6.7840 nb        1 F1S     -0.782000
     29 C9          3.7290    2.3980    7.7490 ca        1 F1S      0.779300
     30 C13         4.4810    1.1120    7.5410 c3        1 F1S     -0.168400
     31 N10         3.9530    3.0740    8.9340 nb        1 F1S     -0.684000
     32 C11         3.2390    4.2280    9.0760 ca        1 F1S      0.779900
     33 N14         3.4570    4.9950   10.3400 n4        1 F1S     -0.825300
     34 H1          0.6540    2.5970   -3.5230 h1        1 F1S      0.221033
     35 H2         -1.0200    2.4800   -4.0400 h1        1 F1S      0.221033
     36 H3         -0.2090    1.0330   -3.4500 h1        1 F1S      0.221033
     37 H4          1.9320    1.4130   -1.2540 hn        1 F1S      0.419800
     38 H5          1.0790    1.6640    2.1600 ha        1 F1S      0.175000
     39 H6          3.5520    5.2690    2.6410 h4        1 F1S      0.070100
     40 H7          2.0240    2.3220    4.3120 hn        1 F1S      0.476300
     41 H8         -1.6380    5.5740    3.5870 h4        1 F1S      0.084100
     42 H9         -1.9430    6.7110    7.2690 hc        1 F1S      0.077700
     43 H10        -1.1990    8.4430    5.6840 hc        1 F1S      0.055700
     44 H11        -2.1380    7.6780    4.3310 hc        1 F1S      0.055700
     45 H12        -3.4740    9.5490    5.2010 h1        1 F1S      0.073950
     46 H13        -3.2880    8.9380    6.9250 h1        1 F1S      0.073950
     47 H14        -4.5520    6.9040    7.4630 h1        1 F1S      0.073950
     48 H15        -5.5510    6.2090    6.0850 h1        1 F1S      0.073950
     49 H16        -3.5210    5.4530    4.9180 hc        1 F1S      0.055700
     50 H17        -3.4300    4.8540    6.6300 hc        1 F1S      0.055700
     51 H18         0.0170    5.5240    7.6070 ha        1 F1S      0.189000
     52 H19         5.5800    1.2810    7.6880 hc        1 F1S      0.110033
     53 H20         4.3060    0.6950    6.5190 hc        1 F1S      0.110033
     54 H21         4.1390    0.3600    8.3030 hc        1 F1S      0.110033
     55 H22         2.6410    4.8620   10.9570 hn        1 F1S      0.500800
     56 H23         3.5630    5.9990   10.1290 hn        1 F1S      0.500800
     57 H272        0.9140    0.8900   -0.0750 hn        1 F1S      0.419800
     58 H282        3.1030    3.6010    4.4600 hn        1 F1S      0.476300
     59 H143        4.3050    4.6530   10.8230 hn        1 F1S      0.500800
@<TRIPOS>BOND
     1    1    2 1   
     2    1   34 1   
     3    1   35 1   
     4    1   36 1   
     5    2    3 1   
     6    2    4 1   
     7    5    6 1   
     8    5   37 1   
     9    5   57 1   
    10    6    7 ar  
    11    6    8 ar  
    12    7   12 ar  
    13    7   38 1   
    14    8    9 1   
    15    8   10 ar  
    16   10   11 ar  
    17   11   12 ar  
    18   11   39 1   
    19   12   13 1   
    20   13   14 1   
    21   13   40 1   
    22   13   58 1   
    23   14   15 ar  
    24   14   25 ar  
    25   15   16 ar  
    26   16   17 ar  
    27   16   41 1   
    28   17   18 1   
    29   17   24 ar  
    30   18   19 1   
    31   18   23 1   
    32   18   42 1   
    33   19   20 1   
    34   19   43 1   
    35   19   44 1   
    36   20   21 1   
    37   20   45 1   
    38   20   46 1   
    39   21   22 1   
    40   22   23 1   
    41   22   47 1   
    42   22   48 1   
    43   23   49 1   
    44   23   50 1   
    45   24   25 ar  
    46   24   51 1   
    47   25   26 1   
    48   26   27 ar  
    49   26   28 ar  
    50   27   32 ar  
    51   28   29 ar  
    52   29   30 1   
    53   29   31 ar  
    54   30   52 1   
    55   30   53 1   
    56   30   54 1   
    57   31   32 ar  
    58   32   33 1   
    59   33   55 1   
    60   33   56 1   
    61   33   59 1   
@<TRIPOS>SUBSTRUCTURE
     1 F1S         1 TEMP              0 ****  ****    0 ROOT
