@<TRIPOS>MOLECULE
F1S
   56    59     1     0     0
SMALL
bcc


@<TRIPOS>ATOM
      1 C31        -0.3450    0.1350   -0.6020 c3        1 F1S     -0.374300
      2 S30         1.2420   -0.2100   -0.1160 s6        1 F1S      1.470900
      3 O32         1.2340   -0.4290    1.2750 o         1 F1S     -0.649800
      4 O33         1.7440   -1.2500   -0.9220 o         1 F1S     -0.649800
      5 N27         2.0610    1.1480   -0.5000 nu        1 F1S     -0.775500
      6 C26         2.0010    2.3910    0.1390 ca        1 F1S      0.075300
      7 C25         1.8330    2.4960    1.5360 ca        1 F1S     -0.193000
      8 C21         2.1180    3.6090   -0.5980 ca        1 F1S      0.431300
      9 Cl2         2.3460    3.5390   -2.2970 cl        1 F1S     -0.154000
     10 N22         2.0740    4.8290   -0.0220 nb        1 F1S     -0.621000
     11 C23         1.9050    4.9100    1.3000 ca        1 F1S      0.401200
     12 C24         1.7710    3.7670    2.1440 ca        1 F1S      0.078300
     13 N28         1.6750    3.8650    3.5370 nu        1 F1S     -0.723300
     14 C2          0.8370    4.7550    4.2180 ca        1 F1S      0.690200
     15 N1          0.0720    5.6500    3.5080 nb        1 F1S     -0.724000
     16 C6         -0.7150    6.4900    4.1870 ca        1 F1S      0.457200
     17 C5         -0.8370    6.5180    5.5930 ca        1 F1S     -0.240600
     18 C15        -1.7490    7.4760    6.2770 c3        1 F1S     -0.007400
     19 C16        -1.3550    8.9210    5.9900 c3        1 F1S     -0.109400
     20 C17        -2.3420    9.8770    6.6370 c3        1 F1S      0.126400
     21 O18        -3.6810    9.6190    6.2320 os        1 F1S     -0.414600
     22 C19        -4.1000    8.2890    6.5190 c3        1 F1S      0.126400
     23 C20        -3.2000    7.2540    5.8650 c3        1 F1S     -0.109400
     24 C4         -0.0660    5.6070    6.3180 ca        1 F1S     -0.018000
     25 C3          0.7860    4.7230    5.6500 cp        1 F1S     -0.304800
     26 C7          1.6140    3.7920    6.4590 cp        1 F1S      0.754500
     27 N12         0.9480    2.9980    7.3480 nb        1 F1S     -0.787000
     28 N8          2.9710    3.8210    6.2780 nb        1 F1S     -0.767000
     29 C9          3.6890    2.9670    7.0810 ca        1 F1S      0.707300
     30 C13         5.1900    2.9720    6.9180 c3        1 F1S     -0.142400
     31 N10         3.1560    2.1260    8.0090 nb        1 F1S     -0.787000
     32 C11         1.7650    2.1740    8.1240 ca        1 F1S      0.904900
     33 N14         1.1640    1.3860    9.0870 nv        1 F1S     -0.942500
     34 H1         -0.7780    1.0500   -0.1280 h1        1 F1S      0.121367
     35 H2         -1.0300   -0.7070   -0.3250 h1        1 F1S      0.121367
     36 H3         -0.4520    0.2700   -1.7060 h1        1 F1S      0.121367
     37 H4          2.6550    1.1500   -1.3040 hn        1 F1S      0.468800
     38 H5          1.7550    1.5800    2.1510 ha        1 F1S      0.180000
     39 H6          1.8790    5.9390    1.7060 h4        1 F1S      0.055100
     40 H7          1.9350    3.0440    4.0420 hn        1 F1S      0.450800
     41 H8         -1.2980    7.1900    3.5570 h4        1 F1S      0.031100
     42 H9         -1.6760    7.3120    7.3920 hc        1 F1S      0.054700
     43 H10        -1.3400    9.0930    4.8820 hc        1 F1S      0.054950
     44 H11        -0.3270    9.1240    6.3850 hc        1 F1S      0.054950
     45 H12        -2.1580   10.9330    6.3040 h1        1 F1S      0.048200
     46 H13        -2.2720    9.8150    7.7560 h1        1 F1S      0.048200
     47 H14        -4.1280    8.1380    7.6310 h1        1 F1S      0.048200
     48 H15        -5.1410    8.2380    6.1030 h1        1 F1S      0.048200
     49 H16        -3.2900    7.3310    4.7510 hc        1 F1S      0.054950
     50 H17        -3.5320    6.2290    6.1690 hc        1 F1S      0.054950
     51 H18        -0.1240    5.5830    7.4180 ha        1 F1S      0.153000
     52 H19         5.5850    3.9750    7.2120 hc        1 F1S      0.068700
     53 H20         5.4510    2.7810    5.8480 hc        1 F1S      0.068700
     54 H21         5.6710    2.1900    7.5540 hc        1 F1S      0.068700
     55 H22         0.1770    1.3000    9.0900 hn        1 F1S      0.447800
     56 H23         1.7080    0.6990    9.5510 hn        1 F1S      0.447800
@<TRIPOS>BOND
     1    1    2 1   
     2    1   34 1   
     3    1   35 1   
     4    1   36 1   
     5    2    3 2   
     6    2    4 2   
     7    2    5 1   
     8    5    6 1   
     9    5   37 1   
    10    6    7 ar  
    11    6    8 ar  
    12    7   12 ar  
    13    7   38 1   
    14    8    9 1   
    15    8   10 ar  
    16   10   11 ar  
    17   11   12 ar  
    18   11   39 1   
    19   12   13 1   
    20   13   14 1   
    21   13   40 1   
    22   14   15 ar  
    23   14   25 ar  
    24   15   16 ar  
    25   16   17 ar  
    26   16   41 1   
    27   17   18 1   
    28   17   24 ar  
    29   18   19 1   
    30   18   23 1   
    31   18   42 1   
    32   19   20 1   
    33   19   43 1   
    34   19   44 1   
    35   20   21 1   
    36   20   45 1   
    37   20   46 1   
    38   21   22 1   
    39   22   23 1   
    40   22   47 1   
    41   22   48 1   
    42   23   49 1   
    43   23   50 1   
    44   24   25 ar  
    45   24   51 1   
    46   25   26 1   
    47   26   27 ar  
    48   26   28 ar  
    49   27   32 ar  
    50   28   29 ar  
    51   29   30 1   
    52   29   31 ar  
    53   30   52 1   
    54   30   53 1   
    55   30   54 1   
    56   31   32 ar  
    57   32   33 1   
    58   33   55 1   
    59   33   56 1   
@<TRIPOS>SUBSTRUCTURE
     1 F1S         1 TEMP              0 ****  ****    0 ROOT
