@<TRIPOS>MOLECULE
F1S
   56    49     1     0     0
SMALL
bcc


@<TRIPOS>ATOM
      1 C31         6.2260   -1.8140   -4.6240 c3        1 F1S     -0.953000
      2 S30         4.8500   -2.2780   -3.6290 s4        1 F1S      2.042800
      3 O32         4.4320   -3.6270   -3.9110 o         1 F1S     -0.536900
      4 O33         5.2200   -2.3850   -2.2380 o         1 F1S     -0.536900
      5 N27         3.6040   -1.2040   -3.8420 n2        1 F1S     -0.824000
      6 C26         2.2680   -1.5860   -3.5160 c2        1 F1S      0.061000
      7 C25         1.8490   -1.5670   -2.2000 c1        1 F1S     -0.193000
      8 C21         1.3560   -1.8650   -4.5300 c2        1 F1S     -0.064000
      9 CL2         1.8490   -1.7710   -6.1780 cl        1 F1S      0.011000
     10 N22         0.0440   -2.1200   -4.2220 n1        1 F1S     -0.095000
     11 C23        -0.3740   -2.1000   -2.9060 c1        1 F1S     -0.066000
     12 C24         0.5300   -1.8230   -1.8940 c1        1 F1S      0.049000
     13 N28         0.0620   -1.7310   -0.4780 n3        1 F1S     -0.233000
     14 C2         -0.7660   -0.6100   -0.0630 c1        1 F1S      0.144000
     15 N1         -1.4100    0.1330   -0.9940 n1        1 F1S     -0.190000
     16 C6         -2.1400    1.2460   -0.6120 c1        1 F1S     -0.016000
     17 C5         -2.2150    1.6080    0.7400 c1        1 F1S     -0.156000
     18 C15        -3.1250    2.8250    1.1820 c2        1 F1S     -0.056000
     19 C16        -2.6010    4.0670    0.5420 c3        1 F1S     -0.188000
     20 C17        -3.5110    5.2500    0.7510 c3        1 F1S     -0.024000
     21 O18        -4.9060    4.9640    0.3730 os        1 F1S     -0.271000
     22 C19        -5.4280    3.7580    1.0020 c3        1 F1S     -0.024000
     23 C20        -4.5100    2.5440    0.7960 c3        1 F1S     -0.188000
     24 C4         -1.5620    0.8560    1.6890 c1        1 F1S     -0.028000
     25 C3         -0.8390   -0.2470    1.3100 c1        1 F1S     -0.112000
     26 C7         -0.0480   -1.0560    2.3720 c2        1 F1S      0.138000
     27 N12        -0.6480   -2.0320    3.0480 n2        1 F1S     -0.259000
     28 N8          1.2300   -0.7370    2.6450 n1        1 F1S     -0.267000
     29 C9          1.8950   -1.3980    3.5920 c1        1 F1S      0.096000
     30 C13         3.3480   -0.9800    3.9590 c3        1 F1S     -0.167000
     31 N10         1.2940   -2.3750    4.2680 n1        1 F1S     -0.263000
     32 C11         0.0190   -2.6940    3.9960 c1        1 F1S      0.189000
     33 N14        -0.5970   -3.7780    4.6700 n2        1 F1S     -0.340000
     34 H1          6.4890   -0.8930   -4.4080 h1        1 F1S      0.160667
     35 H2          5.9760   -1.8690   -5.5760 h1        1 F1S      0.160667
     36 H3          6.9790   -2.4210   -4.4470 h1        1 F1S      0.160667
     37 H4          3.7700   -0.3660   -4.2120 hn        1 F1S      0.264000
     38 H5          2.4890   -1.3710   -1.4840 ha        1 F1S      0.181000
     39 H6         -1.3070   -2.2820   -2.6890 ha        1 F1S      0.185000
     40 H7          0.2010   -2.4300    0.0930 hn        1 F1S      0.247000
     41 H8         -2.5910    1.7660   -1.2680 ha        1 F1S      0.168000
     42 H9         -3.0790    2.9230    2.1690 ha        1 F1S      0.095000
     43 H10        -2.4990    3.9100   -0.4200 hc        1 F1S      0.094750
     44 H11        -1.7110    4.2760    0.9310 hc        1 F1S      0.094750
     45 H12        -3.4850    5.5020    1.6820 h1        1 F1S      0.088000
     46 H13        -3.1760    6.0150    0.1990 h1        1 F1S      0.088000
     47 H14        -5.5260    3.9210    1.9620 h1        1 F1S      0.088000
     48 H15        -6.3070    3.5590    0.6240 h1        1 F1S      0.088000
     49 H16        -4.8500    1.7870    1.3420 hc        1 F1S      0.094750
     50 H17        -4.5290    2.2900   -0.1430 hc        1 F1S      0.094750
     51 H18        -1.6130    1.1080    2.6370 ha        1 F1S      0.154000
     52 H19         3.9420   -1.1150    3.1710 hc        1 F1S      0.108667
     53 H20         3.6700   -1.5330    4.7120 hc        1 F1S      0.108667
     54 H21         3.3600   -0.0220    4.2240 hc        1 F1S      0.108667
     55 H22        -1.4740   -3.9610    4.5290 hn        1 F1S      0.242500
     56 H23        -0.1240   -4.2650    5.2730 hn        1 F1S      0.242500
@<TRIPOS>BOND
     1    1    2 1   
     2    1   34 1   
     3    1   35 1   
     4    1   36 1   
     5    2    3 1   
     6    2    4 1   
     7    5    6 1   
     8    5   37 1   
     9    6    7 1   
    10    6    8 1   
    11    7   38 1   
    12    8    9 1   
    13    8   10 1   
    14   11   12 1   
    15   11   39 1   
    16   12   13 1   
    17   13   14 1   
    18   13   40 1   
    19   14   25 1   
    20   15   16 1   
    21   16   41 1   
    22   17   24 1   
    23   18   19 1   
    24   18   23 1   
    25   18   42 1   
    26   19   20 1   
    27   19   43 1   
    28   19   44 1   
    29   20   21 1   
    30   20   45 1   
    31   20   46 1   
    32   21   22 1   
    33   22   23 1   
    34   22   47 1   
    35   22   48 1   
    36   23   49 1   
    37   23   50 1   
    38   24   51 1   
    39   25   26 1   
    40   26   27 1   
    41   26   28 1   
    42   27   32 1   
    43   29   30 1   
    44   29   31 1   
    45   30   52 1   
    46   30   53 1   
    47   30   54 1   
    48   33   55 1   
    49   33   56 1   
@<TRIPOS>SUBSTRUCTURE
     1 F1S         1 TEMP              0 ****  ****    0 ROOT
