@<TRIPOS>MOLECULE
F1S
   56    59     1     0     0
SMALL
bcc


@<TRIPOS>ATOM
      1 C31         4.8690   -1.1570    2.8000 c3        1 F1S     -0.374300
      2 S30         5.2740    0.0660    1.6970 s6        1 F1S      1.470900
      3 O32         4.4030    1.1500    1.9100 o         1 F1S     -0.649800
      4 O33         6.6540    0.3250    1.7990 o         1 F1S     -0.649800
      5 N27         5.0110   -0.6310    0.2450 nh        1 F1S     -0.775500
      6 C26         3.7810   -0.9340   -0.3480 ca        1 F1S      0.075300
      7 C25         2.6550   -0.1010   -0.1760 ca        1 F1S     -0.193000
      8 C21         3.6160   -2.0970   -1.1600 ca        1 F1S      0.431300
      9 CL2         4.9580   -3.1330   -1.4190 cl        1 F1S     -0.154000
     10 N22         2.4490   -2.4220   -1.7570 nb        1 F1S     -0.621000
     11 C23         1.3910   -1.6290   -1.5770 ca        1 F1S      0.400200
     12 C24         1.4280   -0.4420   -0.7840 ca        1 F1S      0.078300
     13 N28         0.3340    0.4240   -0.6700 nh        1 F1S     -0.723300
     14 C2         -0.9810    0.0170   -0.4180 ca        1 F1S      0.690200
     15 N1         -1.2740   -1.3220   -0.3170 nb        1 F1S     -0.724000
     16 C6         -2.5390   -1.6790   -0.0790 ca        1 F1S      0.457200
     17 C5         -3.6090   -0.7760    0.0960 ca        1 F1S     -0.240600
     18 C15        -4.9940   -1.2500    0.3720 c3        1 F1S     -0.007400
     19 C16        -5.5240   -2.1140   -0.7670 c3        1 F1S     -0.109400
     20 C17        -6.9060   -2.6460   -0.4290 c3        1 F1S      0.126400
     21 O18        -6.9180   -3.3570    0.8040 os        1 F1S     -0.414600
     22 C19        -6.4650   -2.5710    1.9010 c3        1 F1S      0.126400
     23 C20        -5.0620   -2.0360    1.6780 c3        1 F1S     -0.109400
     24 C4         -3.3160    0.5860   -0.0010 ca        1 F1S     -0.018000
     25 C3         -2.0090    1.0040   -0.2680 cp        1 F1S     -0.304800
     26 C7         -1.7450    2.4600   -0.3960 cp        1 F1S      0.754500
     27 N12        -2.1340    3.2460    0.6510 nb        1 F1S     -0.787000
     28 N8         -1.1660    2.9050   -1.5550 nb        1 F1S     -0.767000
     29 C9         -0.9820    4.2660   -1.6330 ca        1 F1S      0.707300
     30 C13        -0.3520    4.8000   -2.8970 c3        1 F1S     -0.142400
     31 N10        -1.3250    5.1630   -0.6690 nb        1 F1S     -0.787000
     32 C11        -1.9130    4.6120    0.4710 ca        1 F1S      0.904900
     33 N14        -2.3360    5.4740    1.4650 nh        1 F1S     -0.942500
     34 H1          5.5450   -2.0460    2.7450 h1        1 F1S      0.121367
     35 H2          4.9440   -0.7750    3.8500 h1        1 F1S      0.121367
     36 H3          3.8270   -1.5450    2.6890 h1        1 F1S      0.121367
     37 H4          5.7930   -0.9320   -0.3020 hn        1 F1S      0.468800
     38 H5          2.7390    0.8200    0.4300 ha        1 F1S      0.180000
     39 H6          0.4690   -1.9540   -2.0950 h4        1 F1S      0.055100
     40 H7          0.5560    1.3590   -0.4050 hn        1 F1S      0.450800
     41 H8         -2.7090   -2.7720   -0.0170 h4        1 F1S      0.031100
     42 H9         -5.6710   -0.3530    0.4720 hc        1 F1S      0.054700
     43 H10        -5.5770   -1.5130   -1.7100 hc        1 F1S      0.054950
     44 H11        -4.8260   -2.9730   -0.9440 hc        1 F1S      0.054950
     45 H12        -7.6490   -1.8060   -0.3830 h1        1 F1S      0.048200
     46 H13        -7.2400   -3.4070   -1.1830 h1        1 F1S      0.048200
     47 H14        -7.1840   -1.7270    2.0760 h1        1 F1S      0.048200
     48 H15        -6.4930   -3.2800    2.7700 h1        1 F1S      0.048200
     49 H16        -4.3370   -2.8900    1.6400 hc        1 F1S      0.054950
     50 H17        -4.7750   -1.3770    2.5360 hc        1 F1S      0.054950
     51 H18        -4.1130    1.3370    0.1290 ha        1 F1S      0.153000
     52 H19        -1.0360    4.5980   -3.7590 hc        1 F1S      0.068700
     53 H20        -0.1700    5.8990   -2.8280 hc        1 F1S      0.068700
     54 H21         0.6210    4.2800   -3.0800 hc        1 F1S      0.068700
     55 H22        -2.6260    5.0990    2.3350 hn        1 F1S      0.447800
     56 H23        -2.0690    6.4280    1.4180 hn        1 F1S      0.447800
@<TRIPOS>BOND
     1    1    2 1   
     2    1   34 1   
     3    1   35 1   
     4    1   36 1   
     5    2    3 2   
     6    2    4 2   
     7    2    5 1   
     8    5    6 1   
     9    5   37 1   
    10    6    7 ar  
    11    6    8 ar  
    12    7   12 ar  
    13    7   38 1   
    14    8    9 1   
    15    8   10 ar  
    16   10   11 ar  
    17   11   12 ar  
    18   11   39 1   
    19   12   13 1   
    20   13   14 1   
    21   13   40 1   
    22   14   15 ar  
    23   14   25 ar  
    24   15   16 ar  
    25   16   17 ar  
    26   16   41 1   
    27   17   18 1   
    28   17   24 ar  
    29   18   19 1   
    30   18   23 1   
    31   18   42 1   
    32   19   20 1   
    33   19   43 1   
    34   19   44 1   
    35   20   21 1   
    36   20   45 1   
    37   20   46 1   
    38   21   22 1   
    39   22   23 1   
    40   22   47 1   
    41   22   48 1   
    42   23   49 1   
    43   23   50 1   
    44   24   25 ar  
    45   24   51 1   
    46   25   26 1   
    47   26   27 ar  
    48   26   28 ar  
    49   27   32 ar  
    50   28   29 ar  
    51   29   30 1   
    52   29   31 ar  
    53   30   52 1   
    54   30   53 1   
    55   30   54 1   
    56   31   32 ar  
    57   32   33 1   
    58   33   55 1   
    59   33   56 1   
@<TRIPOS>SUBSTRUCTURE
     1 F1S         1 TEMP              0 ****  ****    0 ROOT
