@<TRIPOS>MOLECULE
F1X
   27    27     1     0     0
SMALL
bcc


@<TRIPOS>ATOM
      1 C1          1.3680    0.1970    0.6940 c3        1 F1X      0.210400
      2 O1          2.0560   -0.1290    1.8770 os        1 F1X     -0.568200
      3 P1          3.4550    0.5510    2.1460 p5        1 F1X      1.329900
      4 C2         -0.0810   -0.2160    0.8230 c3        1 F1X      0.262600
      5 O2         -0.4210   -0.3740    2.1870 oh        1 F1X     -0.638800
      6 C3         -0.2830   -1.3110    0.1910 c3        1 F1X      0.047100
      7 O3         -1.3790   -2.1080    0.8640 oh        1 F1X     -0.630800
      8 C4         -0.7210   -0.8880   -1.1990 c3        1 F1X      0.156100
      9 O4          0.2660   -1.1170   -2.0900 oh        1 F1X     -0.658800
     10 C5         -1.0200    0.6520   -1.1000 c3        1 F1X      0.077100
     11 O5         -1.0320    0.8880    0.1410 os        1 F1X     -0.454600
     12 C6         -2.3920    0.9750   -1.7220 c3        1 F1X      0.122400
     13 O6         -2.6120    2.3670   -1.6800 oh        1 F1X     -0.641800
     14 O1P         3.6710    0.6860    3.6340 o         1 F1X     -0.922500
     15 O2P         4.5510   -0.3010    1.5530 o         1 F1X     -0.922500
     16 O3P         3.4800    1.9190    1.5080 o         1 F1X     -0.922500
     17 H1          1.4200    1.1640    0.5420 h1        1 F1X      0.013200
     18 H1A         1.7760   -0.2750   -0.0620 h1        1 F1X      0.013200
     19 HO2        -0.8900    0.3310    2.4580 ho        1 F1X      0.427000
     20 H3          0.5410   -1.8350    0.1440 h1        1 F1X      0.190700
     21 HO3        -1.1640   -2.9720    0.8570 ho        1 F1X      0.410000
     22 H4         -1.5300   -1.3730   -1.4590 h1        1 F1X      0.043700
     23 HO4         0.0200   -1.7660   -2.6470 ho        1 F1X      0.503000
     24 H5         -0.3140    1.1660   -1.5400 h1        1 F1X      0.061700
     25 H6         -2.4090    0.6700   -2.6530 h1        1 F1X      0.034200
     26 H6A        -3.0960    0.5180   -1.2160 h1        1 F1X      0.034200
     27 HO6        -3.2600    2.5820   -2.2490 ho        1 F1X      0.423000
@<TRIPOS>BOND
     1    1    2 1   
     2    1    4 1   
     3    1   17 1   
     4    1   18 1   
     5    2    3 1   
     6    3   14 1   
     7    3   15 1   
     8    3   16 1   
     9    4    5 1   
    10    4    6 1   
    11    4   11 1   
    12    5   19 1   
    13    6    7 1   
    14    6    8 1   
    15    6   20 1   
    16    7   21 1   
    17    8    9 1   
    18    8   10 1   
    19    8   22 1   
    20    9   23 1   
    21   10   11 1   
    22   10   12 1   
    23   10   24 1   
    24   12   13 1   
    25   12   25 1   
    26   12   26 1   
    27   13   27 1   
@<TRIPOS>SUBSTRUCTURE
     1 F1X         1 TEMP              0 ****  ****    0 ROOT
