@<TRIPOS>MOLECULE
F1X
   27    27     1     0     0
SMALL
bcc


@<TRIPOS>ATOM
      1 C1          0.3960   -0.0020    1.0100 c3        1 F1X      0.159400
      2 O1          1.1610    1.1360    0.7530 os        1 F1X     -0.591200
      3 P1          2.7460    0.8940    0.3450 p5        1 F1X      1.440800
      4 C2         -0.7310   -0.1850   -0.0370 c3        1 F1X      0.484300
      5 O2         -0.4130   -0.7000   -1.1930 o         1 F1X     -0.847500
      6 C3         -1.6200    1.1180   -0.1510 c3        1 F1X      0.043100
      7 O3         -1.8000    1.5130   -1.4930 oh        1 F1X     -0.645800
      8 C4         -2.9950    0.7460    0.4440 c3        1 F1X      0.091100
      9 O4         -3.1640    1.2640    1.7550 oh        1 F1X     -0.634800
     10 C5         -2.9860   -0.8000    0.4730 c3        1 F1X      0.099100
     11 O5         -1.6440   -1.1960    0.6110 os        1 F1X     -0.523600
     12 C6         -3.5840   -1.3790   -0.8180 c3        1 F1X      0.136400
     13 O6         -2.8210   -2.4430   -1.3380 oh        1 F1X     -0.660800
     14 O1P         3.2660   -0.2090    1.1880 o         1 F1X     -0.858500
     15 O2P         2.5000    0.3360   -1.1610 oh        1 F1X     -0.813400
     16 O3P         3.4060    2.2170    0.2830 o         1 F1X     -0.858500
     17 H1          1.0450   -0.9190    1.0120 h1        1 F1X      0.017200
     18 H1A        -0.0800    0.1200    2.0240 h1        1 F1X      0.017200
     19 HO2         1.6400   -0.0600   -1.3060 ho        1 F1X      0.469000
     20 H3         -1.1490    1.9740    0.3960 h1        1 F1X      0.070700
     21 HO3        -1.3390    0.8520   -2.0440 ho        1 F1X      0.434000
     22 H4         -3.8480    1.1650   -0.1460 h1        1 F1X      0.055700
     23 HO4        -2.3610    1.0310    2.2390 ho        1 F1X      0.408000
     24 H5         -3.5380   -1.1910    1.3690 h1        1 F1X      0.023700
     25 H6         -4.6050   -1.8040   -0.6250 h1        1 F1X      0.004700
     26 H6A        -3.6630   -0.5740   -1.6010 h1        1 F1X      0.004700
     27 HO6        -1.8770   -2.1830   -1.2580 ho        1 F1X      0.475000
@<TRIPOS>BOND
     1    1    2 1   
     2    1    4 1   
     3    1   17 1   
     4    1   18 1   
     5    2    3 1   
     6    3   14 1   
     7    3   15 1   
     8    3   16 1   
     9    4    5 1   
    10    4    6 1   
    11    4   11 1   
    12    6    7 1   
    13    6    8 1   
    14    6   20 1   
    15    7   21 1   
    16    8    9 1   
    17    8   10 1   
    18    8   22 1   
    19    9   23 1   
    20   10   11 1   
    21   10   12 1   
    22   10   24 1   
    23   12   13 1   
    24   12   25 1   
    25   12   26 1   
    26   13   27 1   
    27   15   19 1   
@<TRIPOS>SUBSTRUCTURE
     1 F1X         1 TEMP              0 ****  ****    0 ROOT
