@<TRIPOS>MOLECULE
F20
   70    73     1     0     0
SMALL
bcc


@<TRIPOS>ATOM
      1 C1          0.8950   -0.4630   -0.1060 c3        1 F20     -0.225600
      2 C2          1.4170   -0.1610   -1.5080 c3        1 F20     -0.141400
      3 C3          2.9240   -0.3770   -1.5030 c         1 F20      0.715500
      4 N4          3.4310   -0.3950   -0.2040 n         1 F20     -0.679300
      5 S5          2.3230   -0.4130    1.0080 s6        1 F20      1.449600
      6 O6          2.2480    0.7740    1.7090 o         1 F20     -0.597800
      7 O7          2.3860   -1.6200    1.6980 o         1 F20     -0.597800
      8 O9          3.5970   -0.5590   -2.5250 o         1 F20     -0.599500
      9 C11         0.0780   -1.7010   -0.1130 ca        1 F20      0.021700
     10 C12        -1.3180   -1.6080   -0.2040 ca        1 F20     -0.099000
     11 C13        -2.1070   -2.7560   -0.2700 ca        1 F20     -0.113000
     12 C14        -1.5090   -4.0220   -0.2380 ca        1 F20     -0.222300
     13 C15        -0.1150   -4.1210   -0.1140 ca        1 F20     -0.113000
     14 C16         0.6700   -2.9750   -0.0640 ca        1 F20     -0.099000
     15 C21        -2.3520   -5.2440   -0.2000 c3        1 F20     -0.041100
     16 C22        -1.9220   -6.2760   -1.2750 c3        1 F20      0.056500
     17 C25        -3.0060   -7.3480   -1.3990 c         1 F20      0.517100
     18 O26        -3.6600   -7.5860   -2.4040 o         1 F20     -0.373100
     19 N27        -3.3030   -8.1610   -0.1830 n4        1 F20     -0.738400
     20 N45        -1.6530   -5.6050   -2.5960 n4        1 F20     -0.672800
     21 C47        -0.8130   -6.4000   -3.5670 c         1 F20      0.541100
     22 C48        -0.7950   -5.9170   -5.0220 c3        1 F20      0.076500
     23 O49        -0.2180   -7.3720   -3.1340 o         1 F20     -0.393100
     24 N51         0.6100   -5.6820   -5.4810 n4        1 F20     -0.690800
     25 C4         -1.5060   -6.9880   -5.8920 c3        1 F20     -0.032100
     26 C5         -1.3700   -6.6540   -7.3310 ca        1 F20     -0.209300
     27 C30        -0.3320   -7.2250   -8.0850 ca        1 F20     -0.127500
     28 C31        -0.2500   -6.9860   -9.4540 ca        1 F20     -0.102500
     29 C6         -1.2000   -6.1760  -10.0830 ca        1 F20     -0.063000
     30 C33        -2.2330   -5.6060   -9.3370 ca        1 F20     -0.102500
     31 C34        -2.3210   -5.8450   -7.9650 ca        1 F20     -0.127500
     32 C67         1.2920   -4.5260   -4.7300 c         1 F20      0.624700
     33 O70         0.6920   -4.2490   -3.6860 o         1 F20     -0.584100
     34 C71         2.4710   -3.9560   -5.3130 ca        1 F20     -0.240600
     35 C74         3.0190   -2.8240   -4.6580 ca        1 F20     -0.039000
     36 C75         4.1650   -2.2140   -5.1570 ca        1 F20     -0.120000
     37 C76         4.7840   -2.7130   -6.3040 ca        1 F20      0.012000
     38 C77         4.2480   -3.8370   -6.9580 ca        1 F20     -0.120000
     39 C78         3.1070   -4.4550   -6.4750 ca        1 F20     -0.039000
     40 H1          0.2320    0.3950    0.2160 h1        1 F20      0.150700
     41 H2C1        1.2150    0.9080   -1.7920 hc        1 F20      0.100200
     42 H2C2        0.9530   -0.8120   -2.2880 hc        1 F20      0.100200
     43 H4          4.4210   -0.3930   -0.0970 hn        1 F20      0.379500
     44 H12        -1.8060   -0.6170   -0.2080 ha        1 F20      0.181500
     45 H13        -3.2030   -2.6540   -0.3180 ha        1 F20      0.142500
     46 H15         0.3690   -5.1040   -0.0060 ha        1 F20      0.142500
     47 H16         1.7620   -3.0810    0.0700 ha        1 F20      0.181500
     48 H211       -2.2250   -5.7360    0.8050 hc        1 F20      0.097700
     49 H212       -3.4340   -4.9760   -0.3350 hc        1 F20      0.097700
     50 H22        -0.9450   -6.7640   -0.9510 hx        1 F20      0.169700
     51 H271       -4.0920   -8.8080   -0.3780 hn        1 F20      0.504133
     52 H272       -3.5660   -7.5510    0.6070 hn        1 F20      0.504133
     53 H45        -2.5420   -5.3430   -3.0430 hn        1 F20      0.508300
     54 H48        -1.3400   -4.9300   -5.1380 hx        1 F20      0.141700
     55 H51         1.1690   -6.5390   -5.3660 hn        1 F20      0.491800
     56 H4C1       -1.0710   -8.0010   -5.6760 hc        1 F20      0.097700
     57 H4C2       -2.5890   -6.9990   -5.5930 hc        1 F20      0.097700
     58 H30         0.3840   -7.9150   -7.6110 ha        1 F20      0.133000
     59 H31         0.5510   -7.4570  -10.0500 ha        1 F20      0.176500
     60 H6         -1.1440   -6.0030  -11.1720 ha        1 F20      0.184000
     61 H33        -2.9940   -4.9810   -9.8360 ha        1 F20      0.176500
     62 H34        -3.1590   -5.4180   -7.3930 ha        1 F20      0.133000
     63 H74         2.5400   -2.4170   -3.7500 ha        1 F20      0.148500
     64 H75         4.5770   -1.3310   -4.6270 ha        1 F20      0.200000
     65 H76         5.6960   -2.2290   -6.7020 ha        1 F20      0.196000
     66 H77         4.7480   -4.2280   -7.8630 ha        1 F20      0.200000
     67 H78         2.7280   -5.3390   -7.0100 ha        1 F20      0.148500
     68 H273       -2.4830   -8.7240    0.0910 hn        1 F20      0.504133
     69 H452       -1.1200   -4.7220   -2.3740 hn        1 F20      0.508300
     70 H512        0.5680   -5.4720   -6.4980 hn        1 F20      0.491800
@<TRIPOS>BOND
     1    1    2 1   
     2    1    5 1   
     3    1    9 1   
     4    1   40 1   
     5    2    3 1   
     6    2   41 1   
     7    2   42 1   
     8    3    4 1   
     9    3    8 2   
    10    4    5 1   
    11    4   43 1   
    12    5    6 2   
    13    5    7 2   
    14    9   10 ar  
    15    9   14 ar  
    16   10   11 ar  
    17   10   44 1   
    18   11   12 ar  
    19   11   45 1   
    20   12   13 ar  
    21   12   15 1   
    22   13   14 ar  
    23   13   46 1   
    24   14   47 1   
    25   15   16 1   
    26   15   48 1   
    27   15   49 1   
    28   16   17 1   
    29   16   20 1   
    30   16   50 1   
    31   17   18 2   
    32   17   19 1   
    33   19   51 1   
    34   19   52 1   
    35   19   68 1   
    36   20   21 1   
    37   20   53 1   
    38   20   69 1   
    39   21   22 1   
    40   21   23 2   
    41   22   24 1   
    42   22   25 1   
    43   22   54 1   
    44   24   32 1   
    45   24   55 1   
    46   24   70 1   
    47   25   26 1   
    48   25   56 1   
    49   25   57 1   
    50   26   27 ar  
    51   26   31 ar  
    52   27   28 ar  
    53   27   58 1   
    54   28   29 ar  
    55   28   59 1   
    56   29   30 ar  
    57   29   60 1   
    58   30   31 ar  
    59   30   61 1   
    60   31   62 1   
    61   32   33 2   
    62   32   34 1   
    63   34   35 ar  
    64   34   39 ar  
    65   35   36 ar  
    66   35   63 1   
    67   36   37 ar  
    68   36   64 1   
    69   37   38 ar  
    70   37   65 1   
    71   38   39 ar  
    72   38   66 1   
    73   39   67 1   
@<TRIPOS>SUBSTRUCTURE
     1 F20         1 TEMP              0 ****  ****    0 ROOT
