@<TRIPOS>MOLECULE
F20
   70    73     1     0     0
SMALL
bcc


@<TRIPOS>ATOM
      1 C1          0.9370   -0.4850   -0.0860 c3        1 F20     -0.225600
      2 C2          1.4650   -0.1840   -1.4850 c3        1 F20     -0.141400
      3 C3          2.9700   -0.4200   -1.4780 c         1 F20      0.715500
      4 N4          3.4740   -0.4490   -0.1790 ns        1 F20     -0.679300
      5 S5          2.3630   -0.4580    1.0310 s6        1 F20      1.449600
      6 O6          2.3020    0.7260    1.7380 o         1 F20     -0.597800
      7 O7          2.4090   -1.6690    1.7160 o         1 F20     -0.597800
      8 O9          3.6430   -0.6060   -2.4990 o         1 F20     -0.599500
      9 C11         0.1040   -1.7130   -0.1000 ca        1 F20      0.021700
     10 C12        -1.2910   -1.6010   -0.1940 ca        1 F20     -0.099000
     11 C13        -2.0940   -2.7390   -0.2670 ca        1 F20     -0.113000
     12 C14        -1.5130   -4.0130   -0.2390 ca        1 F20     -0.222300
     13 C15        -0.1200   -4.1300   -0.1110 ca        1 F20     -0.113000
     14 C16         0.6790   -2.9950   -0.0550 ca        1 F20     -0.099000
     15 C21        -2.3710   -5.2230   -0.2080 c3        1 F20     -0.041100
     16 C22        -1.9530   -6.2560   -1.2850 c3        1 F20      0.056500
     17 C25        -3.0500   -7.3140   -1.4170 c         1 F20      0.517100
     18 O26        -3.7040   -7.5390   -2.4240 o         1 F20     -0.373100
     19 N27        -3.3610   -8.1280   -0.2040 nz        1 F20     -0.738400
     20 N45        -1.6720   -5.5840   -2.6040 ny        1 F20     -0.672800
     21 C47        -0.8400   -6.3860   -3.5750 c         1 F20      0.541100
     22 C48        -0.8120   -5.8980   -5.0280 c3        1 F20      0.076500
     23 O49        -0.2580   -7.3670   -3.1440 o         1 F20     -0.393100
     24 N51         0.5980   -5.6790   -5.4820 ny        1 F20     -0.690800
     25 C4         -1.5340   -6.9570   -5.9040 c3        1 F20     -0.032100
     26 C5         -1.3890   -6.6200   -7.3410 ca        1 F20     -0.209300
     27 C30        -0.3560   -7.2010   -8.0940 ca        1 F20     -0.127500
     28 C31        -0.2680   -6.9590   -9.4620 ca        1 F20     -0.102500
     29 C6         -1.2070   -6.1340  -10.0910 ca        1 F20     -0.063000
     30 C33        -2.2340   -5.5540   -9.3460 ca        1 F20     -0.102500
     31 C34        -2.3290   -5.7970   -7.9750 ca        1 F20     -0.127500
     32 C67         1.2920   -4.5340   -4.7260 c         1 F20      0.624700
     33 O70         0.6930   -4.2540   -3.6820 o         1 F20     -0.584100
     34 C71         2.4790   -3.9770   -5.3040 ca        1 F20     -0.240600
     35 C74         3.0400   -2.8550   -4.6440 ca        1 F20     -0.039000
     36 C75         4.1950   -2.2570   -5.1370 ca        1 F20     -0.120000
     37 C76         4.8100   -2.7600   -6.2850 ca        1 F20      0.012000
     38 C77         4.2620   -3.8740   -6.9450 ca        1 F20     -0.120000
     39 C78         3.1120   -4.4800   -6.4670 ca        1 F20     -0.039000
     40 H1          0.2840    0.3790    0.2390 h1        1 F20      0.150700
     41 H2C1        0.9950   -0.8260   -2.2690 hc        1 F20      0.100200
     42 H2C2        1.2780    0.8880   -1.7650 hc        1 F20      0.100200
     43 H4          4.4640   -0.4610   -0.0690 hn        1 F20      0.379500
     44 H12        -1.7660   -0.6040   -0.1950 ha        1 F20      0.181500
     45 H13        -3.1890   -2.6220   -0.3160 ha        1 F20      0.142500
     46 H15         0.3500   -5.1200   -0.0070 ha        1 F20      0.142500
     47 H16         1.7700   -3.1160    0.0810 ha        1 F20      0.181500
     48 H211       -2.2530   -5.7210    0.7960 hc        1 F20      0.097700
     49 H212       -3.4500   -4.9410   -0.3440 hc        1 F20      0.097700
     50 H22        -0.9830   -6.7580   -0.9610 hx        1 F20      0.169700
     51 H271       -4.1580   -8.7640   -0.4040 hn        1 F20      0.504133
     52 H272       -3.6190   -7.5180    0.5880 hn        1 F20      0.504133
     53 H45        -2.5560   -5.3090   -3.0520 hn        1 F20      0.508300
     54 H48        -1.3440   -4.9030   -5.1410 hx        1 F20      0.141700
     55 H51         1.1450   -6.5430   -5.3700 hn        1 F20      0.491800
     56 H4C1       -1.1120   -7.9760   -5.6910 hc        1 F20      0.097700
     57 H4C2       -2.6180   -6.9550   -5.6080 hc        1 F20      0.097700
     58 H30         0.3490   -7.9020   -7.6210 ha        1 F20      0.133000
     59 H31         0.5290   -7.4370  -10.0580 ha        1 F20      0.176500
     60 H6         -1.1450   -5.9580  -11.1800 ha        1 F20      0.184000
     61 H33        -2.9860   -4.9170   -9.8440 ha        1 F20      0.176500
     62 H34        -3.1630   -5.3610   -7.4040 ha        1 F20      0.133000
     63 H74         2.5640   -2.4460   -3.7350 ha        1 F20      0.148500
     64 H75         4.6160   -1.3810   -4.6030 ha        1 F20      0.200000
     65 H76         5.7290   -2.2850   -6.6790 ha        1 F20      0.196000
     66 H77         4.7590   -4.2680   -7.8500 ha        1 F20      0.200000
     67 H78         2.7230   -5.3560   -7.0060 ha        1 F20      0.148500
     68 H273       -2.5490   -8.7020    0.0690 hn        1 F20      0.504133
     69 H452       -1.1280   -4.7090   -2.3770 hn        1 F20      0.508300
     70 H512        0.5610   -5.4650   -6.4990 hn        1 F20      0.491800
@<TRIPOS>BOND
     1    1    2 1   
     2    1    5 1   
     3    1    9 1   
     4    1   40 1   
     5    2    3 1   
     6    2   41 1   
     7    2   42 1   
     8    3    4 1   
     9    3    8 2   
    10    4    5 1   
    11    4   43 1   
    12    5    6 2   
    13    5    7 2   
    14    9   10 ar  
    15    9   14 ar  
    16   10   11 ar  
    17   10   44 1   
    18   11   12 ar  
    19   11   45 1   
    20   12   13 ar  
    21   12   15 1   
    22   13   14 ar  
    23   13   46 1   
    24   14   47 1   
    25   15   16 1   
    26   15   48 1   
    27   15   49 1   
    28   16   17 1   
    29   16   20 1   
    30   16   50 1   
    31   17   18 2   
    32   17   19 1   
    33   19   51 1   
    34   19   52 1   
    35   19   68 1   
    36   20   21 1   
    37   20   53 1   
    38   20   69 1   
    39   21   22 1   
    40   21   23 2   
    41   22   24 1   
    42   22   25 1   
    43   22   54 1   
    44   24   32 1   
    45   24   55 1   
    46   24   70 1   
    47   25   26 1   
    48   25   56 1   
    49   25   57 1   
    50   26   27 ar  
    51   26   31 ar  
    52   27   28 ar  
    53   27   58 1   
    54   28   29 ar  
    55   28   59 1   
    56   29   30 ar  
    57   29   60 1   
    58   30   31 ar  
    59   30   61 1   
    60   31   62 1   
    61   32   33 2   
    62   32   34 1   
    63   34   35 ar  
    64   34   39 ar  
    65   35   36 ar  
    66   35   63 1   
    67   36   37 ar  
    68   36   64 1   
    69   37   38 ar  
    70   37   65 1   
    71   38   39 ar  
    72   38   66 1   
    73   39   67 1   
@<TRIPOS>SUBSTRUCTURE
     1 F20         1 TEMP              0 ****  ****    0 ROOT
