@<TRIPOS>MOLECULE
F20
   70    73     1     0     0
SMALL
bcc


@<TRIPOS>ATOM
      1 C1          0.8980   -0.4730   -0.0890 c3        1 F20     -0.225600
      2 C2          1.4170   -0.1660   -1.4900 c3        1 F20     -0.141400
      3 C3          2.9250   -0.3810   -1.4890 c         1 F20      0.715500
      4 N4          3.4330   -0.4040   -0.1910 n         1 F20     -0.679300
      5 S5          2.3270   -0.4280    1.0230 s6        1 F20      1.449600
      6 O6          2.2530    0.7560    1.7290 o         1 F20     -0.597800
      7 O7          2.3920   -1.6380    1.7080 o         1 F20     -0.597800
      8 O9          3.5960   -0.5590   -2.5120 o         1 F20     -0.599500
      9 C11         0.0810   -1.7120   -0.1000 ca        1 F20      0.021700
     10 C12        -1.3160   -1.6180   -0.1890 ca        1 F20     -0.099000
     11 C13        -2.1040   -2.7670   -0.2590 ca        1 F20     -0.113000
     12 C14        -1.5060   -4.0330   -0.2330 ca        1 F20     -0.222300
     13 C15        -0.1120   -4.1320   -0.1110 ca        1 F20     -0.113000
     14 C16         0.6730   -2.9860   -0.0570 ca        1 F20     -0.099000
     15 C21        -2.3490   -5.2540   -0.1990 c3        1 F20     -0.041100
     16 C22        -1.9200   -6.2820   -1.2780 c3        1 F20      0.056500
     17 C25        -3.0040   -7.3540   -1.4050 c         1 F20      0.517100
     18 O26        -3.6590   -7.5880   -2.4100 o         1 F20     -0.373100
     19 N27        -3.2990   -8.1720   -0.1920 n4        1 F20     -0.738400
     20 N45        -1.6530   -5.6070   -2.5970 n4        1 F20     -0.672800
     21 C47        -0.8130   -6.3970   -3.5710 c         1 F20      0.541100
     22 C48        -0.7970   -5.9100   -5.0250 c3        1 F20      0.076500
     23 O49        -0.2170   -7.3710   -3.1420 o         1 F20     -0.393100
     24 N51         0.6090   -5.6720   -5.4840 n4        1 F20     -0.690800
     25 C4         -1.5080   -6.9770   -5.8980 c3        1 F20     -0.032100
     26 C5         -1.3730   -6.6380   -7.3360 ca        1 F20     -0.209300
     27 C30        -0.3350   -7.2070   -8.0920 ca        1 F20     -0.127500
     28 C31        -0.2540   -6.9630   -9.4600 ca        1 F20     -0.102500
     29 C6         -1.2060   -6.1510  -10.0860 ca        1 F20     -0.063000
     30 C33        -2.2380   -5.5840   -9.3370 ca        1 F20     -0.102500
     31 C34        -2.3250   -5.8280   -7.9660 ca        1 F20     -0.127500
     32 C67         1.2900   -4.5180   -4.7300 c         1 F20      0.624700
     33 O70         0.6910   -4.2450   -3.6840 o         1 F20     -0.584100
     34 C71         2.4680   -3.9460   -5.3120 ca        1 F20     -0.240600
     35 C74         3.0160   -2.8160   -4.6540 ca        1 F20     -0.039000
     36 C75         4.1620   -2.2040   -5.1510 ca        1 F20     -0.120000
     37 C76         4.7800   -2.6990   -6.3010 ca        1 F20      0.012000
     38 C77         4.2440   -3.8210   -6.9570 ca        1 F20     -0.120000
     39 C78         3.1040   -4.4410   -6.4760 ca        1 F20     -0.039000
     40 H1          0.2340    0.3830    0.2370 h1        1 F20      0.150700
     41 H2C1        1.2140    0.9040   -1.7700 hc        1 F20      0.100200
     42 H2C2        0.9520   -0.8140   -2.2730 hc        1 F20      0.100200
     43 H4          4.4240   -0.4020   -0.0850 hn        1 F20      0.379500
     44 H12        -1.8040   -0.6270   -0.1890 ha        1 F20      0.181500
     45 H13        -3.2010   -2.6640   -0.3040 ha        1 F20      0.142500
     46 H15         0.3720   -5.1150   -0.0080 ha        1 F20      0.142500
     47 H16         1.7650   -3.0930    0.0750 ha        1 F20      0.181500
     48 H211       -2.2210   -5.7500    0.8040 hc        1 F20      0.097700
     49 H212       -3.4320   -4.9860   -0.3320 hc        1 F20      0.097700
     50 H22        -0.9430   -6.7710   -0.9570 hx        1 F20      0.169700
     51 H271       -2.4790   -8.7350    0.0790 hn        1 F20      0.504133
     52 H272       -4.0890   -8.8190   -0.3880 hn        1 F20      0.504133
     53 H45        -2.5420   -5.3430   -3.0420 hn        1 F20      0.508300
     54 H48        -1.3420   -4.9220   -5.1360 hx        1 F20      0.141700
     55 H51         1.1680   -6.5290   -5.3720 hn        1 F20      0.491800
     56 H4C1       -2.5910   -6.9900   -5.5980 hc        1 F20      0.097700
     57 H4C2       -1.0720   -7.9910   -5.6860 hc        1 F20      0.097700
     58 H30         0.3820   -7.8980   -7.6220 ha        1 F20      0.133000
     59 H31         0.5470   -7.4310  -10.0590 ha        1 F20      0.176500
     60 H6         -1.1500   -5.9740  -11.1750 ha        1 F20      0.184000
     61 H33        -3.0000   -4.9570   -9.8330 ha        1 F20      0.176500
     62 H34        -3.1620   -5.4030   -7.3920 ha        1 F20      0.133000
     63 H74         2.5380   -2.4120   -3.7430 ha        1 F20      0.148500
     64 H75         4.5730   -1.3220   -4.6190 ha        1 F20      0.200000
     65 H76         5.6910   -2.2120   -6.6970 ha        1 F20      0.196000
     66 H77         4.7440   -4.2080   -7.8640 ha        1 F20      0.200000
     67 H78         2.7250   -5.3230   -7.0130 ha        1 F20      0.148500
     68 H273       -3.5620   -7.5650    0.6010 hn        1 F20      0.504133
     69 H452       -1.1190   -4.7240   -2.3720 hn        1 F20      0.508300
     70 H512        0.5650   -5.4580   -6.5000 hn        1 F20      0.491800
@<TRIPOS>BOND
     1    1    2 1   
     2    1    5 1   
     3    1    9 1   
     4    1   40 1   
     5    2    3 1   
     6    2   41 1   
     7    2   42 1   
     8    3    4 1   
     9    3    8 2   
    10    4    5 1   
    11    4   43 1   
    12    5    6 2   
    13    5    7 2   
    14    9   10 ar  
    15    9   14 ar  
    16   10   11 ar  
    17   10   44 1   
    18   11   12 ar  
    19   11   45 1   
    20   12   13 ar  
    21   12   15 1   
    22   13   14 ar  
    23   13   46 1   
    24   14   47 1   
    25   15   16 1   
    26   15   48 1   
    27   15   49 1   
    28   16   17 1   
    29   16   20 1   
    30   16   50 1   
    31   17   18 2   
    32   17   19 1   
    33   19   51 1   
    34   19   52 1   
    35   19   68 1   
    36   20   21 1   
    37   20   53 1   
    38   20   69 1   
    39   21   22 1   
    40   21   23 2   
    41   22   24 1   
    42   22   25 1   
    43   22   54 1   
    44   24   32 1   
    45   24   55 1   
    46   24   70 1   
    47   25   26 1   
    48   25   56 1   
    49   25   57 1   
    50   26   27 ar  
    51   26   31 ar  
    52   27   28 ar  
    53   27   58 1   
    54   28   29 ar  
    55   28   59 1   
    56   29   30 ar  
    57   29   60 1   
    58   30   31 ar  
    59   30   61 1   
    60   31   62 1   
    61   32   33 2   
    62   32   34 1   
    63   34   35 ar  
    64   34   39 ar  
    65   35   36 ar  
    66   35   63 1   
    67   36   37 ar  
    68   36   64 1   
    69   37   38 ar  
    70   37   65 1   
    71   38   39 ar  
    72   38   66 1   
    73   39   67 1   
@<TRIPOS>SUBSTRUCTURE
     1 F20         1 TEMP              0 ****  ****    0 ROOT
