@<TRIPOS>MOLECULE
F20
   67    70     1     0     0
SMALL
bcc


@<TRIPOS>ATOM
      1 C1         -3.2850   -2.2400   -1.6710 c3        1 F20     -0.192600
      2 C2         -2.5940   -2.4260   -3.0170 c3        1 F20     -0.135400
      3 C3         -3.5600   -3.1380   -3.9520 c         1 F20      0.699500
      4 N4         -4.8370   -3.2340   -3.3880 n         1 F20     -0.687300
      5 S5         -5.0120   -2.5830   -1.8890 s6        1 F20      1.427600
      6 O6         -5.3910   -3.5540   -0.9570 o         1 F20     -0.628300
      7 O7         -5.7940   -1.4280   -1.9440 o         1 F20     -0.628300
      8 O9         -3.2710   -3.5760   -5.0700 o         1 F20     -0.571500
      9 C11        -2.9790   -0.9220   -1.0610 ca        1 F20     -0.084300
     10 C12        -2.2620   -0.8640    0.1400 ca        1 F20     -0.108500
     11 C13        -1.9490    0.3650    0.7180 ca        1 F20     -0.120500
     12 C14        -2.3510    1.5570    0.1060 ca        1 F20     -0.071300
     13 C15        -3.0670    1.4990   -1.0960 ca        1 F20     -0.120500
     14 C16        -3.3760    0.2720   -1.6770 ca        1 F20     -0.108500
     15 C21        -2.0590    2.8700    0.7370 c3        1 F20     -0.045100
     16 C22        -0.7120    3.4550    0.2780 c3        1 F20      0.044700
     17 C25        -0.6510    4.9300    0.7580 c         1 F20      0.636100
     18 O26        -1.4890    5.3900    1.5600 o         1 F20     -0.620100
     19 N27         0.3490    5.7130    0.2550 n         1 F20     -0.667000
     20 N45         0.4190    2.6960    0.7510 n         1 F20     -0.552900
     21 C47         1.6400    2.7200    0.1270 c         1 F20      0.649100
     22 C48         2.7630    1.8560    0.7630 c3        1 F20      0.046700
     23 O49         1.8600    3.4210   -0.8830 o         1 F20     -0.636100
     24 N51         2.5530    0.4530    0.5130 n         1 F20     -0.554900
     25 C4          4.1090    2.3680    0.2210 c3        1 F20     -0.045100
     26 C5          5.2580    1.6080    0.7770 ca        1 F20     -0.093300
     27 C30         5.8990    0.6310    0.0060 ca        1 F20     -0.127000
     28 C31         6.9840   -0.0730    0.5250 ca        1 F20     -0.125000
     29 C6          7.4370    0.1910    1.8170 ca        1 F20     -0.125000
     30 C33         6.8030    1.1640    2.5900 ca        1 F20     -0.125000
     31 C34         5.7190    1.8710    2.0730 ca        1 F20     -0.127000
     32 C67         1.7700   -0.3290    1.3410 c         1 F20      0.680700
     33 O70         1.0620    0.1940    2.2300 o         1 F20     -0.630100
     34 C71         1.7920   -1.8020    1.1250 ca        1 F20     -0.145600
     35 C74         1.6810   -2.6310    2.2490 ca        1 F20     -0.089500
     36 C75         1.6960   -4.0160    2.0950 ca        1 F20     -0.139000
     37 C76         1.8130   -4.5770    0.8230 ca        1 F20     -0.104000
     38 C77         1.9100   -3.7520   -0.2980 ca        1 F20     -0.139000
     39 C78         1.9000   -2.3650   -0.1510 ca        1 F20     -0.089500
     40 H1         -2.8920   -3.0380   -0.9730 h1        1 F20      0.126700
     41 H2C1       -2.3130   -1.4410   -3.4740 hc        1 F20      0.101200
     42 H2C2       -1.6610   -3.0360   -2.9200 hc        1 F20      0.101200
     43 H4         -5.5420   -3.6800   -3.9240 hn        1 F20      0.358500
     44 H12        -1.9410   -1.7920    0.6380 ha        1 F20      0.140000
     45 H13        -1.3750    0.3920    1.6600 ha        1 F20      0.147000
     46 H15        -3.3990    2.4290   -1.5820 ha        1 F20      0.147000
     47 H16        -3.9650    0.2440   -2.6080 ha        1 F20      0.140000
     48 H211       -2.0720    2.7800    1.8570 hc        1 F20      0.081200
     49 H212       -2.8560    3.6160    0.4640 hc        1 F20      0.081200
     50 H22        -0.6870    3.4660   -0.8550 h1        1 F20      0.084700
     51 H271        0.4100    6.6620    0.5250 hn        1 F20      0.323000
     52 H272        1.0040    5.3510   -0.3960 hn        1 F20      0.323000
     53 H45         0.2760    2.0910    1.5320 hn        1 F20      0.349500
     54 H48         2.7390    2.0310    1.8840 h1        1 F20      0.085700
     55 H51         3.1840    0.0120   -0.1160 hn        1 F20      0.324500
     56 H4C1        4.1040    2.3190   -0.9020 hc        1 F20      0.077700
     57 H4C2        4.1890    3.4530    0.5000 hc        1 F20      0.077700
     58 H30         5.5520    0.4270   -1.0180 ha        1 F20      0.131500
     59 H31         7.4850   -0.8370   -0.0880 ha        1 F20      0.135000
     60 H6          8.2940   -0.3650    2.2250 ha        1 F20      0.135000
     61 H33         7.1600    1.3770    3.6090 ha        1 F20      0.135000
     62 H34         5.2220    2.6400    2.6830 ha        1 F20      0.131500
     63 H74         1.5750   -2.1760    3.2470 ha        1 F20      0.147500
     64 H75         1.6130   -4.6650    2.9790 ha        1 F20      0.141000
     65 H76         1.8250   -5.6710    0.7030 ha        1 F20      0.139000
     66 H77         1.9950   -4.1950   -1.3010 ha        1 F20      0.141000
     67 H78         1.9600   -1.7270   -1.0460 ha        1 F20      0.147500
@<TRIPOS>BOND
     1    1    2 1   
     2    1    5 1   
     3    1    9 1   
     4    1   40 1   
     5    2    3 1   
     6    2   41 1   
     7    2   42 1   
     8    3    4 1   
     9    3    8 2   
    10    4    5 1   
    11    4   43 1   
    12    5    6 2   
    13    5    7 2   
    14    9   10 ar  
    15    9   14 ar  
    16   10   11 ar  
    17   10   44 1   
    18   11   12 ar  
    19   11   45 1   
    20   12   13 ar  
    21   12   15 1   
    22   13   14 ar  
    23   13   46 1   
    24   14   47 1   
    25   15   16 1   
    26   15   48 1   
    27   15   49 1   
    28   16   17 1   
    29   16   20 1   
    30   16   50 1   
    31   17   18 2   
    32   17   19 1   
    33   19   51 1   
    34   19   52 1   
    35   20   21 1   
    36   20   53 1   
    37   21   22 1   
    38   21   23 2   
    39   22   24 1   
    40   22   25 1   
    41   22   54 1   
    42   24   32 1   
    43   24   55 1   
    44   25   26 1   
    45   25   56 1   
    46   25   57 1   
    47   26   27 ar  
    48   26   31 ar  
    49   27   28 ar  
    50   27   58 1   
    51   28   29 ar  
    52   28   59 1   
    53   29   30 ar  
    54   29   60 1   
    55   30   31 ar  
    56   30   61 1   
    57   31   62 1   
    58   32   33 2   
    59   32   34 1   
    60   34   35 ar  
    61   34   39 ar  
    62   35   36 ar  
    63   35   63 1   
    64   36   37 ar  
    65   36   64 1   
    66   37   38 ar  
    67   37   65 1   
    68   38   39 ar  
    69   38   66 1   
    70   39   67 1   
@<TRIPOS>SUBSTRUCTURE
     1 F20         1 TEMP              0 ****  ****    0 ROOT
