@<TRIPOS>MOLECULE
F21
   40    42     1     0     0
SMALL
bcc


@<TRIPOS>ATOM
      1 C12        -0.0650    0.0760    0.0280 c3        1 F21      0.225300
      2 C13         1.4480   -0.0880    0.1030 c3        1 F21     -0.032300
      3 S2          2.0620    0.0120    1.7560 ss        1 F21     -0.288200
      4 C15         1.2280    1.4460    2.3630 c3        1 F21     -0.032300
      5 C14        -0.2600    1.4400    2.0390 c3        1 F21      0.225300
      6 N1         -0.5570    1.2850    0.6380 n3        1 F21     -0.817500
      7 S1         -1.3960    2.4050   -0.2040 sy        1 F21      1.509200
      8 O2         -1.2550    3.6660    0.4170 o         1 F21     -0.650800
      9 O1         -1.0540    2.3230   -1.5720 o         1 F21     -0.650800
     10 C7         -2.9980    1.9020   -0.0280 ca        1 F21     -0.379500
     11 C8         -3.5860    1.0490   -0.9660 ca        1 F21     -0.012000
     12 C9         -4.9180    0.6510   -0.8460 ca        1 F21     -0.103300
     13 C1         -5.5040   -0.2460   -1.8970 c3        1 F21      0.210100
     14 N2         -6.7900   -0.8160   -1.5480 n7        1 F21     -0.817200
     15 C3         -7.6890    0.1360   -0.9080 c3        1 F21      0.141500
     16 C11        -9.0600   -0.5130   -0.5880 c3        1 F21      0.156900
     17 F1         -9.7330   -0.8630   -1.7410 f         1 F21     -0.245300
     18 C4         -7.0970    0.6750    0.4020 c3        1 F21     -0.043100
     19 C10        -5.6850    1.1090    0.2360 ca        1 F21     -0.000300
     20 C5         -5.1050    1.9710    1.1750 ca        1 F21     -0.156000
     21 C6         -3.7780    2.3610    1.0410 ca        1 F21     -0.017000
     22 H121       -0.5470   -0.8130    0.5300 h1        1 F21      0.061950
     23 H122       -0.3690    0.0740   -1.0610 h1        1 F21      0.061950
     24 H131        1.7260   -1.1050   -0.2680 h1        1 F21      0.082700
     25 H132        1.9540    0.6700   -0.5430 h1        1 F21      0.082700
     26 H151        1.3620    1.4330    3.4730 h1        1 F21      0.082700
     27 H152        1.7090    2.3710    1.9630 h1        1 F21      0.082700
     28 H141       -0.7060    2.4170    2.3940 h1        1 F21      0.061950
     29 H142       -0.7500    0.6000    2.6150 h1        1 F21      0.061950
     30 H8         -2.9870    0.6990   -1.8260 ha        1 F21      0.153000
     31 H11        -5.5480    0.3490   -2.8600 h1        1 F21      0.048700
     32 H12        -4.8060   -1.1160   -2.0690 h1        1 F21      0.048700
     33 HN2        -7.2320   -1.2060   -2.3600 hn        1 F21      0.379800
     34 H3         -7.8910    1.0220   -1.5870 h1        1 F21      0.036700
     35 H111       -9.6800    0.2350   -0.0210 h1        1 F21      0.053200
     36 H112       -8.9200   -1.4320    0.0440 h1        1 F21      0.053200
     37 H41        -7.7280    1.5350    0.7520 hc        1 F21      0.067200
     38 H42        -7.1350   -0.1230    1.1920 hc        1 F21      0.067200
     39 H5         -5.7060    2.3410    2.0200 ha        1 F21      0.141000
     40 H6         -3.3320    3.0570    1.7740 ha        1 F21      0.152000
@<TRIPOS>BOND
     1    1    2 1   
     2    1    6 1   
     3    1   22 1   
     4    1   23 1   
     5    2    3 1   
     6    2   24 1   
     7    2   25 1   
     8    3    4 1   
     9    4    5 1   
    10    4   26 1   
    11    4   27 1   
    12    5    6 1   
    13    5   28 1   
    14    5   29 1   
    15    6    7 1   
    16    7    8 2   
    17    7    9 2   
    18    7   10 1   
    19   10   11 ar  
    20   10   21 ar  
    21   11   12 ar  
    22   11   30 1   
    23   12   13 1   
    24   12   19 ar  
    25   13   14 1   
    26   13   31 1   
    27   13   32 1   
    28   14   15 1   
    29   14   33 1   
    30   15   16 1   
    31   15   18 1   
    32   15   34 1   
    33   16   17 1   
    34   16   35 1   
    35   16   36 1   
    36   18   19 1   
    37   18   37 1   
    38   18   38 1   
    39   19   20 ar  
    40   20   21 ar  
    41   20   39 1   
    42   21   40 1   
@<TRIPOS>SUBSTRUCTURE
     1 F21         1 TEMP              0 ****  ****    0 ROOT
