@<TRIPOS>MOLECULE
F21
   40    42     1     0     0
SMALL
bcc


@<TRIPOS>ATOM
      1 C12         2.7520    1.4030    0.1840 c3        1 F21      0.225300
      2 C13         4.2080    1.8360    0.2980 c3        1 F21     -0.032300
      3 S2          5.1910    1.2820   -1.0610 ss        1 F21     -0.288200
      4 C15         4.7090   -0.4120   -1.1860 c3        1 F21     -0.032300
      5 C14         3.1980   -0.5970   -1.1360 c3        1 F21      0.225300
      6 N1          2.5710   -0.0180    0.0240 n3        1 F21     -0.817500
      7 S1          1.7130   -0.9110    1.0880 sy        1 F21      1.509200
      8 O2          2.1520   -2.2520    1.0400 o         1 F21     -0.650800
      9 O1          1.7200   -0.2790    2.3510 o         1 F21     -0.650800
     10 C7          0.1430   -0.8440    0.4720 ca        1 F21     -0.379500
     11 C8         -0.7480    0.1470    0.8940 ca        1 F21     -0.012000
     12 C9         -2.0580    0.1940    0.4140 ca        1 F21     -0.103300
     13 C1         -2.9780    1.2640    0.9210 c3        1 F21      0.210100
     14 N2         -4.2130    1.3960    0.1730 n3        1 F21     -0.817200
     15 C3         -4.8120    0.1160   -0.1820 c3        1 F21      0.141500
     16 C11        -6.1460    0.3120   -0.9470 c3        1 F21      0.156900
     17 F1         -7.1040    0.9030   -0.1480 f         1 F21     -0.245300
     18 C4         -3.8730   -0.7200   -1.0620 c3        1 F21     -0.043100
     19 C10        -2.4930   -0.7660   -0.5130 ca        1 F21     -0.000300
     20 C5         -1.6070   -1.7670   -0.9340 ca        1 F21     -0.156000
     21 C6         -0.3070   -1.8030   -0.4450 ca        1 F21     -0.017000
     22 H121        2.2870    1.9350   -0.6970 h1        1 F21      0.061950
     23 H122        2.2090    1.7300    1.1200 h1        1 F21      0.061950
     24 H131        4.2610    2.9530    0.2820 h1        1 F21      0.082700
     25 H132        4.6450    1.4800    1.2620 h1        1 F21      0.082700
     26 H151        5.0910   -0.7690   -2.1740 h1        1 F21      0.082700
     27 H152        5.2010   -1.0140   -0.3830 h1        1 F21      0.082700
     28 H141        2.9740   -1.7050   -1.1490 h1        1 F21      0.061950
     29 H142        2.7490   -0.1370   -2.0660 h1        1 F21      0.061950
     30 H8         -0.4120    0.8950    1.6350 ha        1 F21      0.153000
     31 H11        -3.1640    1.0550    2.0190 h1        1 F21      0.048700
     32 H12        -2.4560    2.2630    0.8510 h1        1 F21      0.048700
     33 HN2        -4.8750    1.9500    0.6860 hn        1 F21      0.379800
     34 H3         -5.0480   -0.4920    0.7470 h1        1 F21      0.036700
     35 H111       -6.5190   -0.6990   -1.2700 h1        1 F21      0.053200
     36 H112       -5.9840    0.9540   -1.8560 h1        1 F21      0.053200
     37 H41        -4.2920   -1.7570   -1.1480 hc        1 F21      0.067200
     38 H42        -3.8320   -0.2800   -2.0960 hc        1 F21      0.067200
     39 H5         -1.9470   -2.5280   -1.6530 ha        1 F21      0.141000
     40 H6          0.3800   -2.6060   -0.7660 ha        1 F21      0.152000
@<TRIPOS>BOND
     1    1    2 1   
     2    1    6 1   
     3    1   22 1   
     4    1   23 1   
     5    2    3 1   
     6    2   24 1   
     7    2   25 1   
     8    3    4 1   
     9    4    5 1   
    10    4   26 1   
    11    4   27 1   
    12    5    6 1   
    13    5   28 1   
    14    5   29 1   
    15    6    7 1   
    16    7    8 2   
    17    7    9 2   
    18    7   10 1   
    19   10   11 ar  
    20   10   21 ar  
    21   11   12 ar  
    22   11   30 1   
    23   12   13 1   
    24   12   19 ar  
    25   13   14 1   
    26   13   31 1   
    27   13   32 1   
    28   14   15 1   
    29   14   33 1   
    30   15   16 1   
    31   15   18 1   
    32   15   34 1   
    33   16   17 1   
    34   16   35 1   
    35   16   36 1   
    36   18   19 1   
    37   18   37 1   
    38   18   38 1   
    39   19   20 ar  
    40   20   21 ar  
    41   20   39 1   
    42   21   40 1   
@<TRIPOS>SUBSTRUCTURE
     1 F21         1 TEMP              0 ****  ****    0 ROOT
