@<TRIPOS>MOLECULE
F21
   40    39     1     0     0
SMALL
bcc


@<TRIPOS>ATOM
      1 C12         1.4160   -3.9620    0.5930 c3        1 F21     -0.015000
      2 C13         0.6130   -4.5850    1.7010 c3        1 F21     -0.299000
      3 S2          1.3720   -4.5060    3.1180 ss        1 F21      0.082000
      4 C15         1.8550   -3.0190    3.4630 c3        1 F21     -0.299000
      5 C14         2.6580   -2.3920    2.3200 c3        1 F21     -0.015000
      6 N1          1.9130   -2.4750    0.9490 n3        1 F21     -0.832000
      7 S1          2.2940   -1.4260   -0.2570 s4        1 F21      2.062800
      8 O2          2.3250   -2.0860   -1.5260 o         1 F21     -0.537400
      9 O1          3.6600   -0.9700   -0.1420 o         1 F21     -0.537400
     10 C7          1.1420   -0.0460   -0.2730 c1        1 F21     -0.830000
     11 C8          0.0610   -0.0500   -1.1770 c2        1 F21     -0.013000
     12 C9         -0.7550    1.0490   -1.2780 c1        1 F21     -0.098000
     13 C1         -2.0350    1.0970   -2.2800 c2        1 F21     -0.032000
     14 N2         -2.8760    2.1560   -2.1400 n3        1 F21     -0.292000
     15 C3         -2.3010    3.4290   -1.8420 c3        1 F21     -0.051000
     16 C11        -3.5000    4.4540   -1.5820 c3        1 F21      0.015000
     17 F1         -4.4500    3.8550   -0.8320 f         1 F21     -0.161000
     18 C4         -1.4020    3.4920   -0.7020 c3        1 F21     -0.133000
     19 C10        -0.5040    2.2160   -0.4530 c2        1 F21      0.011000
     20 C5          0.5470    2.2180    0.4250 c1        1 F21     -0.156000
     21 C6          1.3860    1.0830    0.5270 c1        1 F21     -0.016000
     22 H121        0.8680   -3.9270   -0.2100 h1        1 F21      0.107500
     23 H122        2.1890   -4.5160    0.4210 h1        1 F21      0.107500
     24 H131        0.4450   -5.5410    1.4770 h1        1 F21      0.118250
     25 H132       -0.2390   -4.1230    1.7720 h1        1 F21      0.118250
     26 H151        2.3970   -3.0460    4.2400 h1        1 F21      0.118250
     27 H152        1.0620   -2.4590    3.6440 h1        1 F21      0.118250
     28 H141        2.8290   -1.4470    2.5320 h1        1 F21      0.107500
     29 H142        3.5340   -2.8680    2.2390 h1        1 F21      0.107500
     30 H8         -0.0810   -0.8280   -1.7740 ha        1 F21      0.154000
     31 H11        -1.7070    1.0960   -3.1800 h4        1 F21      0.086000
     32 H12        -2.5510    0.2840   -2.1460 h4        1 F21      0.086000
     33 HN2        -3.3830    2.2240   -2.8560 hn        1 F21      0.167000
     34 H3         -1.7940    3.7400   -2.6520 h1        1 F21      0.067000
     35 H111       -3.1700    5.2200   -1.1250 h1        1 F21      0.083000
     36 H112       -3.8840    4.7270   -2.4360 h1        1 F21      0.083000
     37 H41        -0.7990    4.2570   -0.8430 hc        1 F21      0.113000
     38 H42        -1.9660    3.6310    0.1200 hc        1 F21      0.113000
     39 H5          0.7120    2.9800    0.9650 ha        1 F21      0.142000
     40 H6          2.1210    1.0660    1.2010 ha        1 F21      0.149000
@<TRIPOS>BOND
     1    1    2 1   
     2    1    6 1   
     3    1   22 1   
     4    1   23 1   
     5    2    3 1   
     6    2   24 1   
     7    2   25 1   
     8    3    4 1   
     9    4    5 1   
    10    4   26 1   
    11    4   27 1   
    12    5    6 1   
    13    5   28 1   
    14    5   29 1   
    15    6    7 1   
    16    7    8 1   
    17    7    9 1   
    18   10   11 1   
    19   10   21 1   
    20   11   12 1   
    21   11   30 1   
    22   12   19 1   
    23   13   14 1   
    24   13   31 1   
    25   13   32 1   
    26   14   15 1   
    27   14   33 1   
    28   15   16 1   
    29   15   18 1   
    30   15   34 1   
    31   16   17 1   
    32   16   35 1   
    33   16   36 1   
    34   18   19 1   
    35   18   37 1   
    36   18   38 1   
    37   19   20 1   
    38   20   39 1   
    39   21   40 1   
@<TRIPOS>SUBSTRUCTURE
     1 F21         1 TEMP              0 ****  ****    0 ROOT
