@<TRIPOS>MOLECULE
F21
   40    42     1     0     0
SMALL
bcc


@<TRIPOS>ATOM
      1 C12        -0.0650    0.0770    0.0250 c3        1 F21      0.225300
      2 C13         1.4480   -0.0860    0.0980 c3        1 F21     -0.032300
      3 S2          2.0630    0.0120    1.7510 ss        1 F21     -0.288200
      4 C15         1.2300    1.4450    2.3600 c3        1 F21     -0.032300
      5 C14        -0.2590    1.4390    2.0380 c3        1 F21      0.225300
      6 N1         -0.5570    1.2860    0.6360 n3        1 F21     -0.817500
      7 S1         -1.3970    2.4060   -0.2030 sy        1 F21      1.509200
      8 O2         -1.2570    3.6660    0.4200 o         1 F21     -0.650800
      9 O1         -1.0560    2.3260   -1.5710 o         1 F21     -0.650800
     10 C7         -2.9980    1.9020   -0.0260 ca        1 F21     -0.379500
     11 C8         -3.5870    1.0510   -0.9660 ca        1 F21     -0.012000
     12 C9         -4.9190    0.6520   -0.8460 ca        1 F21     -0.103300
     13 C1         -5.5060   -0.2430   -1.8970 c3        1 F21      0.210100
     14 N2         -6.7910   -0.8140   -1.5480 n3        1 F21     -0.817200
     15 C3         -7.6900    0.1360   -0.9050 c3        1 F21      0.141500
     16 C11        -9.0600   -0.5140   -0.5860 c3        1 F21      0.156900
     17 F1         -9.7340   -0.8620   -1.7400 f         1 F21     -0.245300
     18 C4         -7.0970    0.6730    0.4040 c3        1 F21     -0.043100
     19 C10        -5.6860    1.1070    0.2380 ca        1 F21     -0.000300
     20 C5         -5.1050    1.9670    1.1790 ca        1 F21     -0.156000
     21 C6         -3.7780    2.3580    1.0450 ca        1 F21     -0.017000
     22 H121       -0.5470   -0.8130    0.5270 h1        1 F21      0.061950
     23 H122       -0.3710    0.0760   -1.0630 h1        1 F21      0.061950
     24 H131        1.7260   -1.1030   -0.2740 h1        1 F21      0.082700
     25 H132        1.9520    0.6730   -0.5470 h1        1 F21      0.082700
     26 H151        1.7110    2.3710    1.9610 h1        1 F21      0.082700
     27 H152        1.3660    1.4310    3.4700 h1        1 F21      0.082700
     28 H141       -0.7040    2.4150    2.3950 h1        1 F21      0.061950
     29 H142       -0.7470    0.5980    2.6130 h1        1 F21      0.061950
     30 H8         -2.9890    0.7020   -1.8270 ha        1 F21      0.153000
     31 H11        -5.5500    0.3540   -2.8590 h1        1 F21      0.048700
     32 H12        -4.8070   -1.1130   -2.0720 h1        1 F21      0.048700
     33 HN2        -7.2340   -1.2030   -2.3610 hn        1 F21      0.379800
     34 H3         -7.8920    1.0230   -1.5820 h1        1 F21      0.036700
     35 H111       -9.6800    0.2320   -0.0170 h1        1 F21      0.053200
     36 H112       -8.9190   -1.4340    0.0440 h1        1 F21      0.053200
     37 H41        -7.1340   -0.1280    1.1930 hc        1 F21      0.067200
     38 H42        -7.7280    1.5310    0.7580 hc        1 F21      0.067200
     39 H5         -5.7050    2.3350    2.0250 ha        1 F21      0.141000
     40 H6         -3.3320    3.0530    1.7790 ha        1 F21      0.152000
@<TRIPOS>BOND
     1    1    2 1   
     2    1    6 1   
     3    1   22 1   
     4    1   23 1   
     5    2    3 1   
     6    2   24 1   
     7    2   25 1   
     8    3    4 1   
     9    4    5 1   
    10    4   26 1   
    11    4   27 1   
    12    5    6 1   
    13    5   28 1   
    14    5   29 1   
    15    6    7 1   
    16    7    8 2   
    17    7    9 2   
    18    7   10 1   
    19   10   11 ar  
    20   10   21 ar  
    21   11   12 ar  
    22   11   30 1   
    23   12   13 1   
    24   12   19 ar  
    25   13   14 1   
    26   13   31 1   
    27   13   32 1   
    28   14   15 1   
    29   14   33 1   
    30   15   16 1   
    31   15   18 1   
    32   15   34 1   
    33   16   17 1   
    34   16   35 1   
    35   16   36 1   
    36   18   19 1   
    37   18   37 1   
    38   18   38 1   
    39   19   20 ar  
    40   20   21 ar  
    41   20   39 1   
    42   21   40 1   
@<TRIPOS>SUBSTRUCTURE
     1 F21         1 TEMP              0 ****  ****    0 ROOT
