@<TRIPOS>MOLECULE
F22
   55    54     1     0     0
SMALL
bcc


@<TRIPOS>ATOM
      1 C1         -6.0670   -5.7790   -2.9340 c         1 F22      0.906600
      2 O1         -5.6740   -6.7110   -3.6970 o         1 F22     -0.858300
      3 O2         -6.6830   -6.0060   -1.8470 o         1 F22     -0.858300
      4 C2         -5.7740   -4.3290   -3.3280 c3        1 F22     -0.185400
      5 C3         -7.0560   -3.5380   -3.5210 c3        1 F22     -0.040200
      6 C4         -6.9710   -2.1750   -2.9400 c2        1 F22     -0.162200
      7 C5         -7.1060   -1.8900   -1.6400 c2        1 F22     -0.175200
      8 C6         -7.3720   -2.9030   -0.5890 c3        1 F22     -0.046000
      9 C7         -6.6370   -2.6230    0.6670 c2        1 F22     -0.170200
     10 C8         -6.1350   -3.5530    1.4880 c2        1 F22     -0.161200
     11 C9         -6.2320   -5.0150    1.2700 c3        1 F22     -0.048000
     12 C10        -5.1820   -5.7850    1.9780 c2        1 F22     -0.180200
     13 C11        -4.8480   -7.0430    1.6610 c2        1 F22     -0.159200
     14 C12        -5.4850   -7.8170    0.5720 c3        1 F22     -0.048000
     15 C13        -4.7950   -9.0920    0.2650 c2        1 F22     -0.183200
     16 C14        -5.0810   -9.8420   -0.8060 c2        1 F22     -0.158200
     17 C15        -6.1030   -9.4810   -1.8160 c3        1 F22     -0.055000
     18 C16        -6.4440  -10.6010   -2.7240 c2        1 F22     -0.164200
     19 C17        -7.1810  -10.4700   -3.8330 c2        1 F22     -0.173200
     20 C18        -7.7390   -9.1800   -4.3000 c3        1 F22     -0.055000
     21 C19        -8.1910   -9.2070   -5.7100 c2        1 F22     -0.160200
     22 C20        -8.3830   -8.1090   -6.4510 c2        1 F22     -0.180200
     23 C21        -8.1660   -6.7290   -5.9580 c3        1 F22     -0.076200
     24 C22        -8.1910   -5.7080   -7.0670 c3        1 F22     -0.079100
     25 H2C1       -5.1580   -3.8770   -2.5100 hc        1 F22      0.035200
     26 H2C2       -5.1680   -4.3140   -4.2670 hc        1 F22      0.035200
     27 H3C1       -7.2910   -3.4670   -4.6160 hc        1 F22      0.043200
     28 H3C2       -7.9060   -4.0980   -3.0390 hc        1 F22      0.043200
     29 H4         -6.7740   -1.3650   -3.6610 ha        1 F22      0.094000
     30 H5         -7.0230   -0.8490   -1.2880 ha        1 F22      0.093000
     31 H6C1       -7.1200   -3.9380   -0.9780 hc        1 F22      0.084700
     32 H6C2       -8.4770   -2.9040   -0.3640 hc        1 F22      0.084700
     33 H7         -6.5150   -1.5540    0.9130 ha        1 F22      0.095000
     34 H8         -5.6070   -3.2400    2.4050 ha        1 F22      0.096000
     35 H9C1       -6.1910   -5.2560    0.1620 hc        1 F22      0.091700
     36 H9C2       -7.2420   -5.3680    1.6240 hc        1 F22      0.091700
     37 H10        -4.6650   -5.2660    2.8010 ha        1 F22      0.096000
     38 H11        -4.0540   -7.5580    2.2270 ha        1 F22      0.097000
     39 H121       -6.5550   -8.0350    0.8550 hc        1 F22      0.094700
     40 H122       -5.5520   -7.1890   -0.3740 hc        1 F22      0.094700
     41 H13        -4.0080   -9.4070    0.9680 ha        1 F22      0.095000
     42 H14        -4.5260  -10.7770   -0.9860 ha        1 F22      0.097000
     43 H15        -7.0400   -9.1250   -1.2990 hc        1 F22      0.106200
     44 H16        -6.0580  -11.5940   -2.4380 ha        1 F22      0.093000
     45 H171       -7.3980  -11.3520   -4.4580 ha        1 F22      0.093000
     46 H172       -5.7470   -8.5770   -2.4110 hc        1 F22      0.106200
     47 H181       -6.9660   -8.3580   -4.1520 hc        1 F22      0.099700
     48 H182       -8.6100   -8.8960   -3.6420 hc        1 F22      0.099700
     49 H19        -8.3700  -10.2030   -6.1460 ha        1 F22      0.094000
     50 H20        -8.7230   -8.1990   -7.4950 ha        1 F22      0.094000
     51 H211       -7.1800   -6.6670   -5.4050 hc        1 F22      0.082700
     52 H212       -8.9620   -6.4820   -5.2020 hc        1 F22      0.082700
     53 H221       -9.1770   -5.7090   -7.5930 hc        1 F22      0.019700
     54 H222       -8.0140   -4.6880   -6.6480 hc        1 F22      0.019700
     55 H223       -7.3950   -5.9230   -7.8190 hc        1 F22      0.019700
@<TRIPOS>BOND
     1    1    2 1   
     2    1    3 1   
     3    1    4 1   
     4    4    5 1   
     5    4   25 1   
     6    4   26 1   
     7    5    6 1   
     8    5   27 1   
     9    5   28 1   
    10    6    7 2   
    11    6   29 1   
    12    7    8 1   
    13    7   30 1   
    14    8    9 1   
    15    8   31 1   
    16    8   32 1   
    17    9   10 2   
    18    9   33 1   
    19   10   11 1   
    20   10   34 1   
    21   11   12 1   
    22   11   35 1   
    23   11   36 1   
    24   12   13 2   
    25   12   37 1   
    26   13   14 1   
    27   13   38 1   
    28   14   15 1   
    29   14   39 1   
    30   14   40 1   
    31   15   16 2   
    32   15   41 1   
    33   16   17 1   
    34   16   42 1   
    35   17   18 1   
    36   17   43 1   
    37   17   46 1   
    38   18   19 2   
    39   18   44 1   
    40   19   20 1   
    41   19   45 1   
    42   20   21 1   
    43   20   47 1   
    44   20   48 1   
    45   21   22 2   
    46   21   49 1   
    47   22   23 1   
    48   22   50 1   
    49   23   24 1   
    50   23   51 1   
    51   23   52 1   
    52   24   53 1   
    53   24   54 1   
    54   24   55 1   
@<TRIPOS>SUBSTRUCTURE
     1 F22         1 TEMP              0 ****  ****    0 ROOT
