@<TRIPOS>MOLECULE
F22
   55    54     1     0     0
SMALL
bcc


@<TRIPOS>ATOM
      1 C1         -0.0580    2.9650   -2.9980 c         1 F22      0.908600
      2 O1         -0.6860    3.8940   -3.5840 o         1 F22     -0.855300
      3 O2         -0.5480    1.8140   -2.7970 o         1 F22     -0.855300
      4 C2          1.3740    3.2530   -2.5230 c3        1 F22     -0.188400
      5 C3          1.6570    2.5580   -1.2130 c3        1 F22     -0.051200
      6 C4          3.0640    2.6750   -0.7680 c2        1 F22     -0.132200
      7 C5          3.5330    2.1200    0.3570 c2        1 F22     -0.226200
      8 C6          2.6730    1.3270    1.2660 c3        1 F22     -0.018000
      9 C7          3.3850    0.7390    2.4250 c2        1 F22     -0.151200
     10 C8          2.8160   -0.1320    3.2670 c2        1 F22     -0.194200
     11 C9          1.4200   -0.6080    3.1100 c3        1 F22     -0.022000
     12 C10         0.9340   -1.4390    4.2360 c2        1 F22     -0.167200
     13 C11        -0.2550   -2.0530    4.2370 c2        1 F22     -0.177200
     14 C12        -1.2100   -1.9820    3.1050 c3        1 F22     -0.021000
     15 C13        -2.5260   -2.5980    3.3980 c2        1 F22     -0.178200
     16 C14        -3.5230   -2.6970    2.5110 c2        1 F22     -0.165200
     17 C15        -3.4660   -2.1960    1.1170 c3        1 F22     -0.020000
     18 C16        -4.4220   -2.8860    0.2180 c2        1 F22     -0.198200
     19 C17        -4.7950   -2.4240   -0.9810 c2        1 F22     -0.147200
     20 C18        -4.3230   -1.1500   -1.5730 c3        1 F22     -0.018000
     21 C19        -4.8980   -0.8700   -2.9100 c2        1 F22     -0.226200
     22 C20        -4.5720    0.2010   -3.6430 c2        1 F22     -0.130200
     23 C21        -3.6010    1.2390   -3.2300 c3        1 F22     -0.071200
     24 C22        -3.5740    2.4310   -4.1520 c3        1 F22     -0.105100
     25 H2C1        2.0780    2.8870   -3.3130 hc        1 F22      0.025200
     26 H2C2        1.5160    4.3570   -2.4220 hc        1 F22      0.025200
     27 H3C1        0.9810    2.9790   -0.4170 hc        1 F22      0.059700
     28 H3C2        1.3770    1.4720   -1.3200 hc        1 F22      0.059700
     29 H4          3.7330    3.2560   -1.4240 ha        1 F22      0.111000
     30 H5          4.5880    2.2330    0.6480 ha        1 F22      0.103000
     31 H6C1        1.8350    1.9830    1.6460 hc        1 F22      0.061200
     32 H6C2        2.1730    0.5040    0.6760 hc        1 F22      0.061200
     33 H7          4.4280    1.0590    2.5740 ha        1 F22      0.115000
     34 H8          3.3810   -0.5400    4.1190 ha        1 F22      0.111000
     35 H9C1        0.7350    0.2810    2.9860 hc        1 F22      0.063200
     36 H9C2        1.3380   -1.1960    2.1500 hc        1 F22      0.063200
     37 H10         1.6080   -1.5310    5.1040 ha        1 F22      0.115000
     38 H11        -0.5680   -2.6540    5.1050 ha        1 F22      0.114000
     39 H121       -1.3630   -0.9040    2.8100 hc        1 F22      0.064200
     40 H122       -0.7500   -2.4880    2.2070 hc        1 F22      0.064200
     41 H13        -2.6630   -2.9830    4.4210 ha        1 F22      0.112000
     42 H14        -4.4760   -3.1660    2.8080 ha        1 F22      0.114000
     43 H15        -3.6750   -1.0880    1.1210 hc        1 F22      0.063700
     44 H16        -4.8170   -3.8470    0.5870 ha        1 F22      0.109000
     45 H171       -5.5000   -3.0110   -1.5940 ha        1 F22      0.112000
     46 H172       -2.4240   -2.3160    0.7010 hc        1 F22      0.063700
     47 H181       -4.5720   -0.2990   -0.8750 hc        1 F22      0.065200
     48 H182       -3.1970   -1.1650   -1.6490 hc        1 F22      0.065200
     49 H19        -5.6250   -1.6040   -3.2920 ha        1 F22      0.099000
     50 H20        -5.0340    0.3450   -4.6340 ha        1 F22      0.105000
     51 H211       -3.8350    1.5780   -2.1840 hc        1 F22      0.078700
     52 H212       -2.5580    0.8030   -3.1880 hc        1 F22      0.078700
     53 H221       -2.6600    3.0470   -3.9180 hc        1 F22      0.043367
     54 H222       -3.5140    2.1080   -5.2190 hc        1 F22      0.043367
     55 H223       -4.4900    3.0580   -4.0280 hc        1 F22      0.043367
@<TRIPOS>BOND
     1    1    2 1   
     2    1    3 1   
     3    1    4 1   
     4    4    5 1   
     5    4   25 1   
     6    4   26 1   
     7    5    6 1   
     8    5   27 1   
     9    5   28 1   
    10    6    7 2   
    11    6   29 1   
    12    7    8 1   
    13    7   30 1   
    14    8    9 1   
    15    8   31 1   
    16    8   32 1   
    17    9   10 2   
    18    9   33 1   
    19   10   11 1   
    20   10   34 1   
    21   11   12 1   
    22   11   35 1   
    23   11   36 1   
    24   12   13 2   
    25   12   37 1   
    26   13   14 1   
    27   13   38 1   
    28   14   15 1   
    29   14   39 1   
    30   14   40 1   
    31   15   16 2   
    32   15   41 1   
    33   16   17 1   
    34   16   42 1   
    35   17   18 1   
    36   17   43 1   
    37   17   46 1   
    38   18   19 2   
    39   18   44 1   
    40   19   20 1   
    41   19   45 1   
    42   20   21 1   
    43   20   47 1   
    44   20   48 1   
    45   21   22 2   
    46   21   49 1   
    47   22   23 1   
    48   22   50 1   
    49   23   24 1   
    50   23   51 1   
    51   23   52 1   
    52   24   53 1   
    53   24   54 1   
    54   24   55 1   
@<TRIPOS>SUBSTRUCTURE
     1 F22         1 TEMP              0 ****  ****    0 ROOT
