@<TRIPOS>MOLECULE
F22
   55    47     1     0     0
SMALL
bcc


@<TRIPOS>ATOM
      1 C1          8.9270   -5.3840    2.8400 c1        1 F22      0.328000
      2 O1          9.2870   -4.3830    3.5130 os        1 F22     -0.589000
      3 O2          9.4820   -5.6360    1.7390 o         1 F22     -0.583000
      4 C2          7.8220   -6.2820    3.3530 c3        1 F22     -0.223000
      5 C3          6.4860   -5.7660    2.8640 c3        1 F22     -0.135000
      6 C4          5.3730   -6.5780    3.4890 c2        1 F22     -0.121000
      7 C5          4.0880   -6.3050    3.1870 c1        1 F22     -0.230000
      8 C6          3.7590   -5.1860    2.2240 c2        1 F22     -0.102400
      9 C7          2.2880   -4.8480    2.3260 c2        1 F22     -0.148200
     10 C8          1.7060   -4.0780    1.3860 c1        1 F22     -0.181200
     11 C9          0.2350   -3.7410    1.4880 c2        1 F22     -0.102400
     12 C10        -0.1850   -2.9410    0.2740 c2        1 F22     -0.148200
     13 C11        -1.2180   -2.0800    0.3590 c1        1 F22     -0.181200
     14 C12        -1.6380   -1.2810   -0.8550 c2        1 F22     -0.102400
     15 C13        -2.3340   -0.0140   -0.4090 c2        1 F22     -0.148200
     16 C14        -2.6280    0.9460   -1.3080 c1        1 F22     -0.181200
     17 C15        -3.3240    2.2130   -0.8610 c2        1 F22     -0.102400
     18 C16        -3.2650    3.2380   -1.9720 c2        1 F22     -0.148200
     19 C17        -3.7890    4.4660   -1.7840 c1        1 F22     -0.181200
     20 C18        -3.7310    5.4910   -2.8940 c2        1 F22     -0.102400
     21 C19        -4.3050    6.8010   -2.4020 c2        1 F22     -0.148200
     22 C20        -4.5390    7.8040   -3.2710 c1        1 F22     -0.181200
     23 C21        -5.1130    9.1140   -2.7780 c2        1 F22     -0.131000
     24 C22        -5.7060    9.8750   -3.9440 c3        1 F22     -0.207000
     25 H2C1        7.9610   -7.1920    3.0210 hc        1 F22      0.060500
     26 H2C2        7.8320   -6.2860    4.3310 hc        1 F22      0.060500
     27 H3C1        6.4410   -5.8460    1.8900 hc        1 F22      0.100000
     28 H3C2        6.3860   -4.8270    3.1190 hc        1 F22      0.100000
     29 H4          5.5850   -7.3010    4.1100 ha        1 F22      0.110000
     30 H5          3.3700   -6.8290    3.5900 ha        1 F22      0.102000
     31 H6C1        4.2910   -4.3960    2.4480 ha        1 F22      0.091300
     32 H6C2        3.9660   -5.4700    1.3110 ha        1 F22      0.091300
     33 H7          1.7580   -5.1950    3.0690 ha        1 F22      0.122800
     34 H8          2.2330   -3.7430    0.6350 ha        1 F22      0.120800
     35 H9C1       -0.2870   -4.5670    1.5310 ha        1 F22      0.091300
     36 H9C2        0.0770   -3.2130    2.2970 ha        1 F22      0.091300
     37 H10         0.2880   -3.0540   -0.5720 ha        1 F22      0.122800
     38 H11        -1.7000   -1.9780    1.2010 ha        1 F22      0.120800
     39 H121       -2.2500   -1.8140   -1.4010 ha        1 F22      0.091300
     40 H122       -0.8480   -1.0500   -1.3830 ha        1 F22      0.091300
     41 H13        -2.5770    0.1050    0.5290 ha        1 F22      0.122800
     42 H14        -2.3980    0.8210   -2.2480 ha        1 F22      0.120800
     43 H15        -2.8770    2.5670   -0.0660 ha        1 F22      0.091300
     44 H16        -2.8510    3.0100   -2.8260 ha        1 F22      0.122800
     45 H171       -4.2100    4.6920   -0.9320 ha        1 F22      0.120800
     46 H172       -4.2580    2.0140   -0.6490 ha        1 F22      0.091300
     47 H181       -4.2520    5.1740   -3.6590 ha        1 F22      0.091300
     48 H182       -2.8010    5.6240   -3.1670 ha        1 F22      0.091300
     49 H19        -4.5020    6.9220   -1.4530 ha        1 F22      0.122800
     50 H20        -4.3370    7.6850   -4.2190 ha        1 F22      0.120800
     51 H211       -4.4030    9.6480   -2.3690 ha        1 F22      0.083500
     52 H212       -5.8100    8.9360   -2.1160 ha        1 F22      0.083500
     53 H221       -5.0060   10.0580   -4.6050 hc        1 F22      0.072333
     54 H222       -6.0830   10.7210   -3.6230 hc        1 F22      0.072333
     55 H223       -6.4140    9.3380   -4.3570 hc        1 F22      0.072333
@<TRIPOS>BOND
     1    1    3 1   
     2    1    4 1   
     3    4    5 1   
     4    4   25 1   
     5    4   26 1   
     6    5    6 1   
     7    5   27 1   
     8    5   28 1   
     9    6    7 1   
    10    6   29 1   
    11    7   30 1   
    12    8    9 1   
    13    8   31 1   
    14    8   32 1   
    15    9   10 1   
    16    9   33 1   
    17   10   34 1   
    18   11   12 1   
    19   11   35 1   
    20   11   36 1   
    21   12   13 1   
    22   12   37 1   
    23   13   38 1   
    24   14   15 1   
    25   14   39 1   
    26   14   40 1   
    27   15   16 1   
    28   15   41 1   
    29   16   42 1   
    30   17   18 1   
    31   17   43 1   
    32   17   46 1   
    33   18   19 1   
    34   18   44 1   
    35   19   45 1   
    36   20   21 1   
    37   20   47 1   
    38   20   48 1   
    39   21   22 1   
    40   21   49 1   
    41   22   50 1   
    42   23   24 1   
    43   23   51 1   
    44   23   52 1   
    45   24   53 1   
    46   24   54 1   
    47   24   55 1   
@<TRIPOS>SUBSTRUCTURE
     1 F22         1 TEMP              0 ****  ****    0 ROOT
