@<TRIPOS>MOLECULE
F22
   55    54     1     0     0
SMALL
bcc


@<TRIPOS>ATOM
      1 C1         -7.4640   -3.6520   -5.4510 c         1 F22      0.908600
      2 O1         -8.3770   -3.5240   -6.3190 o         1 F22     -0.855300
      3 O2         -6.9320   -4.7650   -5.1630 o         1 F22     -0.855300
      4 C2         -6.9750   -2.3880   -4.7290 c3        1 F22     -0.188400
      5 C3         -6.6450   -2.6850   -3.2870 c3        1 F22     -0.051200
      6 C4         -6.0320   -1.5450   -2.5690 c2        1 F22     -0.132200
      7 C5         -5.6460   -1.5980   -1.2880 c2        1 F22     -0.226200
      8 C6         -5.7990   -2.8220   -0.4660 c3        1 F22     -0.018000
      9 C7         -5.2560   -2.7080    0.9080 c2        1 F22     -0.151200
     10 C8         -5.1600   -3.7490    1.7440 c2        1 F22     -0.194200
     11 C9         -5.5720   -5.1230    1.3690 c3        1 F22     -0.022000
     12 C10        -5.5360   -6.0930    2.4890 c2        1 F22     -0.167200
     13 C11        -5.7660   -7.4020    2.3350 c2        1 F22     -0.177200
     14 C12        -6.0660   -8.0290    1.0250 c3        1 F22     -0.021000
     15 C13        -6.4500   -9.4570    1.1230 c2        1 F22     -0.178200
     16 C14        -6.7120  -10.2390    0.0690 c2        1 F22     -0.165200
     17 C15        -6.6730   -9.7920   -1.3440 c3        1 F22     -0.020000
     18 C16        -6.4590  -10.9090   -2.2950 c2        1 F22     -0.198200
     19 C17        -6.6980  -10.8340   -3.6090 c2        1 F22     -0.147200
     20 C18        -7.2270   -9.6330   -4.2990 c3        1 F22     -0.018000
     21 C19        -7.4070   -9.8210   -5.7580 c2        1 F22     -0.226200
     22 C20        -7.8290   -8.8510   -6.5790 c2        1 F22     -0.130200
     23 C21        -8.1640   -7.4740   -6.1530 c3        1 F22     -0.071200
     24 C22        -8.8000   -6.6500   -7.2430 c3        1 F22     -0.105100
     25 H2C1       -6.0650   -2.0170   -5.2660 hc        1 F22      0.025200
     26 H2C2       -7.7610   -1.5950   -4.7980 hc        1 F22      0.025200
     27 H3C1       -7.5810   -3.0010   -2.7490 hc        1 F22      0.059700
     28 H3C2       -5.9520   -3.5750   -3.2580 hc        1 F22      0.059700
     29 H4         -5.9000   -0.6190   -3.1520 ha        1 F22      0.111000
     30 H5         -5.1940   -0.7250   -0.7940 ha        1 F22      0.103000
     31 H6C1       -5.3010   -3.6860   -0.9960 hc        1 F22      0.061200
     32 H6C2       -6.8940   -3.0910   -0.4050 hc        1 F22      0.061200
     33 H7         -4.9290   -1.7060    1.2260 ha        1 F22      0.115000
     34 H8         -4.7540   -3.6180    2.7590 ha        1 F22      0.111000
     35 H9C1       -4.9050   -5.4910    0.5350 hc        1 F22      0.063200
     36 H9C2       -6.6150   -5.0960    0.9390 hc        1 F22      0.063200
     37 H10        -5.3120   -5.6810    3.4860 ha        1 F22      0.115000
     38 H11        -5.7330   -8.0770    3.2040 ha        1 F22      0.114000
     39 H121       -6.8940   -7.4570    0.5150 hc        1 F22      0.064200
     40 H122       -5.1620   -7.9270    0.3560 hc        1 F22      0.064200
     41 H13        -6.5200   -9.8710    2.1420 ha        1 F22      0.112000
     42 H14        -6.9960  -11.2930    0.2250 ha        1 F22      0.114000
     43 H15        -7.6410   -9.2640   -1.5850 hc        1 F22      0.063700
     44 H16        -6.0620  -11.8390   -1.8590 ha        1 F22      0.109000
     45 H171       -6.4940  -11.7090   -4.2490 ha        1 F22      0.112000
     46 H172       -5.8560   -9.0280   -1.4900 hc        1 F22      0.063700
     47 H181       -6.5350   -8.7600   -4.1200 hc        1 F22      0.065200
     48 H182       -8.2150   -9.3420   -3.8370 hc        1 F22      0.065200
     49 H19        -7.1690  -10.8200   -6.1550 ha        1 F22      0.099000
     50 H20        -7.9340   -9.0580   -7.6580 ha        1 F22      0.105000
     51 H211       -7.2320   -6.9360   -5.8030 hc        1 F22      0.078700
     52 H212       -8.8490   -7.5120   -5.2620 hc        1 F22      0.078700
     53 H221       -9.8480   -6.9810   -7.4390 hc        1 F22      0.043367
     54 H222       -8.7970   -5.5690   -6.9260 hc        1 F22      0.043367
     55 H223       -8.2230   -6.7360   -8.1950 hc        1 F22      0.043367
@<TRIPOS>BOND
     1    1    2 1   
     2    1    3 1   
     3    1    4 1   
     4    4    5 1   
     5    4   25 1   
     6    4   26 1   
     7    5    6 1   
     8    5   27 1   
     9    5   28 1   
    10    6    7 2   
    11    6   29 1   
    12    7    8 1   
    13    7   30 1   
    14    8    9 1   
    15    8   31 1   
    16    8   32 1   
    17    9   10 2   
    18    9   33 1   
    19   10   11 1   
    20   10   34 1   
    21   11   12 1   
    22   11   35 1   
    23   11   36 1   
    24   12   13 2   
    25   12   37 1   
    26   13   14 1   
    27   13   38 1   
    28   14   15 1   
    29   14   39 1   
    30   14   40 1   
    31   15   16 2   
    32   15   41 1   
    33   16   17 1   
    34   16   42 1   
    35   17   18 1   
    36   17   43 1   
    37   17   46 1   
    38   18   19 2   
    39   18   44 1   
    40   19   20 1   
    41   19   45 1   
    42   20   21 1   
    43   20   47 1   
    44   20   48 1   
    45   21   22 2   
    46   21   49 1   
    47   22   23 1   
    48   22   50 1   
    49   23   24 1   
    50   23   51 1   
    51   23   52 1   
    52   24   53 1   
    53   24   54 1   
    54   24   55 1   
@<TRIPOS>SUBSTRUCTURE
     1 F22         1 TEMP              0 ****  ****    0 ROOT
