@<TRIPOS>MOLECULE
F23
   70    69     1     0     0
SMALL
bcc


@<TRIPOS>ATOM
      1 O1        -12.5630   -1.1330   -1.0510 o         1 F23     -0.853800
      2 O2        -13.5360   -0.0140    0.6170 o         1 F23     -0.853800
      3 C1        -12.5540   -0.2500   -0.1460 c         1 F23      0.907600
      4 C2        -11.2900    0.6090    0.0310 c3        1 F23     -0.193400
      5 C3        -10.0430   -0.2420    0.0290 c3        1 F23     -0.065400
      6 C4         -8.7840    0.6000    0.0160 c3        1 F23     -0.078400
      7 C5         -7.5410   -0.2630    0.0330 c3        1 F23     -0.078400
      8 C6         -6.2810    0.5760    0.0110 c3        1 F23     -0.078400
      9 C7         -5.0390   -0.2890    0.0290 c3        1 F23     -0.079400
     10 C8         -3.7800    0.5510    0.0070 c3        1 F23     -0.078400
     11 C9         -2.5390   -0.3150    0.0250 c3        1 F23     -0.079400
     12 C10        -1.2800    0.5260    0.0020 c3        1 F23     -0.078400
     13 C11        -0.0390   -0.3400    0.0200 c3        1 F23     -0.079400
     14 C12         1.2190    0.5000   -0.0020 c3        1 F23     -0.078400
     15 C13         2.4600   -0.3660    0.0160 c3        1 F23     -0.079400
     16 C14         3.7180    0.4750   -0.0060 c3        1 F23     -0.079400
     17 C15         4.9590   -0.3920    0.0120 c3        1 F23     -0.079400
     18 C16         6.2180    0.4490   -0.0100 c3        1 F23     -0.079400
     19 C17         7.4590   -0.4170    0.0080 c3        1 F23     -0.079400
     20 C18         8.7170    0.4240   -0.0130 c3        1 F23     -0.079400
     21 C19         9.9580   -0.4430    0.0040 c3        1 F23     -0.079400
     22 C20        11.2160    0.3980   -0.0170 c3        1 F23     -0.079400
     23 C21        12.4570   -0.4690    0.0010 c3        1 F23     -0.079400
     24 C22        13.7160    0.3710   -0.0200 c3        1 F23     -0.080400
     25 C23        14.9540   -0.4870   -0.0030 c3        1 F23     -0.092100
     26 H2A       -11.3640    1.1880    0.9850 hc        1 F23      0.018700
     27 H2B       -11.2530    1.3420   -0.8150 hc        1 F23      0.018700
     28 H3A       -10.0690   -0.9130   -0.8710 hc        1 F23      0.043700
     29 H3B       -10.0420   -0.9040    0.9340 hc        1 F23      0.043700
     30 H4A        -8.7790    1.2830    0.9060 hc        1 F23      0.025700
     31 H4B        -8.7770    1.2490   -0.8980 hc        1 F23      0.025700
     32 H5A        -7.5510   -0.9500   -0.8540 hc        1 F23      0.036700
     33 H5B        -7.5450   -0.9100    0.9500 hc        1 F23      0.036700
     34 H6A        -6.2730    1.2640    0.8980 hc        1 F23      0.034200
     35 H6B        -6.2770    1.2220   -0.9060 hc        1 F23      0.034200
     36 H7A        -5.0480   -0.9760   -0.8580 hc        1 F23      0.037200
     37 H7B        -5.0450   -0.9340    0.9470 hc        1 F23      0.037200
     38 H8A        -3.7720    1.2390    0.8930 hc        1 F23      0.036700
     39 H8B        -3.7760    1.1970   -0.9110 hc        1 F23      0.036700
     40 H9A        -2.5480   -1.0020   -0.8620 hc        1 F23      0.038700
     41 H9B        -2.5440   -0.9600    0.9420 hc        1 F23      0.038700
     42 H101       -1.2720    1.2130    0.8890 hc        1 F23      0.038200
     43 H102       -1.2760    1.1710   -0.9150 hc        1 F23      0.038200
     44 H111       -0.0480   -1.0280   -0.8670 hc        1 F23      0.038700
     45 H112       -0.0450   -0.9860    0.9380 hc        1 F23      0.038700
     46 H121        1.2280    1.1880    0.8850 hc        1 F23      0.038700
     47 H122        1.2240    1.1460   -0.9200 hc        1 F23      0.038700
     48 H131        2.4510   -1.0530   -0.8710 hc        1 F23      0.038700
     49 H132        2.4550   -1.0110    0.9340 hc        1 F23      0.038700
     50 H141        3.7270    1.1620    0.8810 hc        1 F23      0.038700
     51 H142        3.7230    1.1200   -0.9240 hc        1 F23      0.038700
     52 H151        4.9510   -1.0790   -0.8750 hc        1 F23      0.039200
     53 H152        4.9540   -1.0370    0.9300 hc        1 F23      0.039200
     54 H161        6.2260    1.1360    0.8770 hc        1 F23      0.038700
     55 H162        6.2230    1.0950   -0.9270 hc        1 F23      0.038700
     56 H171        7.4500   -1.1040   -0.8790 hc        1 F23      0.039700
     57 H172        7.4530   -1.0630    0.9260 hc        1 F23      0.039700
     58 H181        8.7250    1.1110    0.8740 hc        1 F23      0.039200
     59 H182        8.7220    1.0690   -0.9310 hc        1 F23      0.039200
     60 H191        9.9490   -1.1300   -0.8830 hc        1 F23      0.039700
     61 H192        9.9520   -1.0890    0.9220 hc        1 F23      0.039700
     62 H201       11.2240    1.0850    0.8700 hc        1 F23      0.038700
     63 H202       11.2210    1.0440   -0.9340 hc        1 F23      0.038700
     64 H211       12.4490   -1.1550   -0.8860 hc        1 F23      0.039700
     65 H212       12.4520   -1.1140    0.9180 hc        1 F23      0.039700
     66 H221       13.7220    1.0590    0.8670 hc        1 F23      0.037700
     67 H222       13.7190    1.0180   -0.9380 hc        1 F23      0.037700
     68 H231       15.8700    0.1510   -0.0190 hc        1 F23      0.031367
     69 H232       14.9820   -1.1210    0.9170 hc        1 F23      0.031367
     70 H233       14.9790   -1.1620   -0.8930 hc        1 F23      0.031367
@<TRIPOS>BOND
     1    1    3 1   
     2    2    3 1   
     3    3    4 1   
     4    4    5 1   
     5    4   26 1   
     6    4   27 1   
     7    5    6 1   
     8    5   28 1   
     9    5   29 1   
    10    6    7 1   
    11    6   30 1   
    12    6   31 1   
    13    7    8 1   
    14    7   32 1   
    15    7   33 1   
    16    8    9 1   
    17    8   34 1   
    18    8   35 1   
    19    9   10 1   
    20    9   36 1   
    21    9   37 1   
    22   10   11 1   
    23   10   38 1   
    24   10   39 1   
    25   11   12 1   
    26   11   40 1   
    27   11   41 1   
    28   12   13 1   
    29   12   42 1   
    30   12   43 1   
    31   13   14 1   
    32   13   44 1   
    33   13   45 1   
    34   14   15 1   
    35   14   46 1   
    36   14   47 1   
    37   15   16 1   
    38   15   48 1   
    39   15   49 1   
    40   16   17 1   
    41   16   50 1   
    42   16   51 1   
    43   17   18 1   
    44   17   52 1   
    45   17   53 1   
    46   18   19 1   
    47   18   54 1   
    48   18   55 1   
    49   19   20 1   
    50   19   56 1   
    51   19   57 1   
    52   20   21 1   
    53   20   58 1   
    54   20   59 1   
    55   21   22 1   
    56   21   60 1   
    57   21   61 1   
    58   22   23 1   
    59   22   62 1   
    60   22   63 1   
    61   23   24 1   
    62   23   64 1   
    63   23   65 1   
    64   24   25 1   
    65   24   66 1   
    66   24   67 1   
    67   25   68 1   
    68   25   69 1   
    69   25   70 1   
@<TRIPOS>SUBSTRUCTURE
     1 F23         1 TEMP              0 ****  ****    0 ROOT
