@<TRIPOS>MOLECULE
F23
   70    69     1     0     0
SMALL
bcc


@<TRIPOS>ATOM
      1 O1          0.2960    1.0300   -0.1290 o         1 F23     -0.853800
      2 O2          1.5130   -0.6260   -1.0000 o         1 F23     -0.853800
      3 C1          1.1880    0.1360   -0.0440 c         1 F23      0.907600
      4 C2          1.9410   -0.0270    1.2880 c3        1 F23     -0.193400
      5 C3          0.9900   -0.0340    2.4600 c3        1 F23     -0.065400
      6 C4          1.7240   -0.0080    3.7840 c3        1 F23     -0.078400
      7 C5          0.7610   -0.0330    4.9520 c3        1 F23     -0.078400
      8 C6          1.4940    0.0010    6.2770 c3        1 F23     -0.078400
      9 C7          0.5290   -0.0260    7.4430 c3        1 F23     -0.079400
     10 C8          1.2620    0.0090    8.7670 c3        1 F23     -0.078400
     11 C9          0.2970   -0.0180    9.9320 c3        1 F23     -0.079400
     12 C10         1.0300    0.0150   11.2560 c3        1 F23     -0.078400
     13 C11         0.0650   -0.0110   12.4210 c3        1 F23     -0.079400
     14 C12         0.7980    0.0210   13.7450 c3        1 F23     -0.078400
     15 C13        -0.1670   -0.0050   14.9100 c3        1 F23     -0.079400
     16 C14         0.5670    0.0250   16.2340 c3        1 F23     -0.079400
     17 C15        -0.3990   -0.0010   17.3990 c3        1 F23     -0.079400
     18 C16         0.3350    0.0280   18.7220 c3        1 F23     -0.079400
     19 C17        -0.6310    0.0030   19.8870 c3        1 F23     -0.079400
     20 C18         0.1030    0.0310   21.2110 c3        1 F23     -0.079400
     21 C19        -0.8640    0.0070   22.3760 c3        1 F23     -0.079400
     22 C20        -0.1300    0.0340   23.7000 c3        1 F23     -0.079400
     23 C21        -1.0960    0.0100   24.8640 c3        1 F23     -0.079400
     24 C22        -0.3630    0.0360   26.1890 c3        1 F23     -0.080400
     25 C23        -1.3210    0.0130   27.3520 c3        1 F23     -0.092100
     26 H2A         2.6580    0.8280    1.3830 hc        1 F23      0.018700
     27 H2B         2.5370   -0.9740    1.2650 hc        1 F23      0.018700
     28 H3A         0.3420   -0.9480    2.4090 hc        1 F23      0.043700
     29 H3B         0.3110    0.8570    2.3760 hc        1 F23      0.043700
     30 H4A         2.4160   -0.8880    3.8490 hc        1 F23      0.025700
     31 H4B         2.3590    0.9150    3.8430 hc        1 F23      0.025700
     32 H5A         0.0670    0.8450    4.8830 hc        1 F23      0.036700
     33 H5B         0.1290   -0.9580    4.8960 hc        1 F23      0.036700
     34 H6A         2.1250    0.9270    6.3320 hc        1 F23      0.034200
     35 H6B         2.1890   -0.8770    6.3440 hc        1 F23      0.034200
     36 H7A        -0.1660    0.8530    7.3750 hc        1 F23      0.037200
     37 H7B        -0.1020   -0.9510    7.3860 hc        1 F23      0.037200
     38 H8A         1.8940    0.9340    8.8230 hc        1 F23      0.036700
     39 H8B         1.9570   -0.8700    8.8340 hc        1 F23      0.036700
     40 H9A        -0.3360   -0.9430    9.8760 hc        1 F23      0.038700
     41 H9B        -0.3970    0.8610    9.8650 hc        1 F23      0.038700
     42 H101        1.7240   -0.8640   11.3230 hc        1 F23      0.038200
     43 H102        1.6630    0.9400   11.3120 hc        1 F23      0.038200
     44 H111       -0.5690   -0.9350   12.3640 hc        1 F23      0.038700
     45 H112       -0.6290    0.8690   12.3550 hc        1 F23      0.038700
     46 H121        1.4920   -0.8590   13.8120 hc        1 F23      0.038700
     47 H122        1.4310    0.9450   13.8020 hc        1 F23      0.038700
     48 H131       -0.8600    0.8750   14.8440 hc        1 F23      0.038700
     49 H132       -0.8010   -0.9290   14.8530 hc        1 F23      0.038700
     50 H141        1.2000    0.9490   16.2910 hc        1 F23      0.038700
     51 H142        1.2590   -0.8550   16.3000 hc        1 F23      0.038700
     52 H151       -1.0910    0.8800   17.3330 hc        1 F23      0.039200
     53 H152       -1.0340   -0.9240   17.3410 hc        1 F23      0.039200
     54 H161        1.0260   -0.8530   18.7880 hc        1 F23      0.038700
     55 H162        0.9690    0.9520   18.7800 hc        1 F23      0.038700
     56 H171       -1.3230    0.8850   19.8220 hc        1 F23      0.039700
     57 H172       -1.2670   -0.9200   19.8290 hc        1 F23      0.039700
     58 H181        0.7380    0.9540   21.2690 hc        1 F23      0.039200
     59 H182        0.7930   -0.8510   21.2770 hc        1 F23      0.039200
     60 H191       -1.5000   -0.9150   22.3170 hc        1 F23      0.039700
     61 H192       -1.5540    0.8890   22.3110 hc        1 F23      0.039700
     62 H201        0.5600   -0.8490   23.7650 hc        1 F23      0.038700
     63 H202        0.5070    0.9560   23.7580 hc        1 F23      0.038700
     64 H211       -1.7850    0.8930   24.7990 hc        1 F23      0.039700
     65 H212       -1.7330   -0.9120   24.8060 hc        1 F23      0.039700
     66 H221        0.3270   -0.8470   26.2520 hc        1 F23      0.037700
     67 H222        0.2750    0.9580   26.2440 hc        1 F23      0.037700
     68 H231       -0.7600    0.0330   28.3180 hc        1 F23      0.031367
     69 H232       -2.0010    0.8990   27.3200 hc        1 F23      0.031367
     70 H233       -1.9490   -0.9100   27.3270 hc        1 F23      0.031367
@<TRIPOS>BOND
     1    1    3 1   
     2    2    3 1   
     3    3    4 1   
     4    4    5 1   
     5    4   26 1   
     6    4   27 1   
     7    5    6 1   
     8    5   28 1   
     9    5   29 1   
    10    6    7 1   
    11    6   30 1   
    12    6   31 1   
    13    7    8 1   
    14    7   32 1   
    15    7   33 1   
    16    8    9 1   
    17    8   34 1   
    18    8   35 1   
    19    9   10 1   
    20    9   36 1   
    21    9   37 1   
    22   10   11 1   
    23   10   38 1   
    24   10   39 1   
    25   11   12 1   
    26   11   40 1   
    27   11   41 1   
    28   12   13 1   
    29   12   42 1   
    30   12   43 1   
    31   13   14 1   
    32   13   44 1   
    33   13   45 1   
    34   14   15 1   
    35   14   46 1   
    36   14   47 1   
    37   15   16 1   
    38   15   48 1   
    39   15   49 1   
    40   16   17 1   
    41   16   50 1   
    42   16   51 1   
    43   17   18 1   
    44   17   52 1   
    45   17   53 1   
    46   18   19 1   
    47   18   54 1   
    48   18   55 1   
    49   19   20 1   
    50   19   56 1   
    51   19   57 1   
    52   20   21 1   
    53   20   58 1   
    54   20   59 1   
    55   21   22 1   
    56   21   60 1   
    57   21   61 1   
    58   22   23 1   
    59   22   62 1   
    60   22   63 1   
    61   23   24 1   
    62   23   64 1   
    63   23   65 1   
    64   24   25 1   
    65   24   66 1   
    66   24   67 1   
    67   25   68 1   
    68   25   69 1   
    69   25   70 1   
@<TRIPOS>SUBSTRUCTURE
     1 F23         1 TEMP              0 ****  ****    0 ROOT
