@<TRIPOS>MOLECULE
F23
   70    69     1     0     0
SMALL
bcc


@<TRIPOS>ATOM
      1 O1         -7.2570   -7.3440   -9.8920 o         1 F23     -0.853800
      2 O2         -5.3170   -7.9780  -10.6620 o         1 F23     -0.853800
      3 C1         -6.0430   -7.6160   -9.6990 c         1 F23      0.907600
      4 C2         -5.4580   -7.5160   -8.3070 c3        1 F23     -0.193400
      5 C3         -4.9430   -6.1120   -8.0770 c3        1 F23     -0.065400
      6 C4         -4.5600   -5.9480   -6.6220 c3        1 F23     -0.078400
      7 C5         -3.9340   -4.5860   -6.4170 c3        1 F23     -0.078400
      8 C6         -3.7180   -4.3490   -4.9380 c3        1 F23     -0.078400
      9 C7         -2.9030   -3.0890   -4.7430 c3        1 F23     -0.079400
     10 C8         -2.7900   -2.7850   -3.2660 c3        1 F23     -0.078400
     11 C9         -1.9070   -1.5730   -3.0660 c3        1 F23     -0.079400
     12 C10        -1.8080   -1.2580   -1.5900 c3        1 F23     -0.078400
     13 C11        -0.8470   -0.1090   -1.3820 c3        1 F23     -0.079400
     14 C12        -0.7270    0.1880    0.0960 c3        1 F23     -0.078400
     15 C13         0.3730    1.2030    0.3190 c3        1 F23     -0.079400
     16 C14         0.4420    1.5560    1.7890 c3        1 F23     -0.079400
     17 C15         1.6390    2.4470    2.0370 c3        1 F23     -0.079400
     18 C16         1.6600    2.8710    3.4890 c3        1 F23     -0.079400
     19 C17         2.9700    3.5630    3.7940 c3        1 F23     -0.079400
     20 C18         2.9590    4.0570    5.2240 c3        1 F23     -0.079400
     21 C19         4.3590    4.4650    5.6280 c3        1 F23     -0.079400
     22 C20         4.3270    5.0750    7.0120 c3        1 F23     -0.079400
     23 C21         5.7420    5.2970    7.4980 c3        1 F23     -0.079400
     24 C22         5.7120    6.0350    8.8180 c3        1 F23     -0.080400
     25 C23         7.1180    6.1450    9.3670 c3        1 F23     -0.092100
     26 H2A        -6.1490   -7.7220   -7.6470 hc        1 F23      0.018700
     27 H2B        -4.7200   -8.1520   -8.2170 hc        1 F23      0.018700
     28 H3A        -5.6420   -5.4670   -8.3050 hc        1 F23      0.043700
     29 H3B        -4.1590   -5.9560   -8.6400 hc        1 F23      0.043700
     30 H4A        -5.3590   -6.0270   -6.0640 hc        1 F23      0.025700
     31 H4B        -3.9180   -6.6430   -6.3740 hc        1 F23      0.025700
     32 H5A        -3.0740   -4.5490   -6.8820 hc        1 F23      0.036700
     33 H5B        -4.5280   -3.8970   -6.7750 hc        1 F23      0.036700
     34 H6A        -3.2400   -5.1090   -4.5520 hc        1 F23      0.034200
     35 H6B        -4.5840   -4.2490   -4.4940 hc        1 F23      0.034200
     36 H7A        -3.3440   -2.3420   -5.1970 hc        1 F23      0.037200
     37 H7B        -2.0090   -3.2180   -5.1190 hc        1 F23      0.037200
     38 H8A        -3.6790   -2.6040   -2.9010 hc        1 F23      0.036700
     39 H8B        -2.3980   -3.5540   -2.8040 hc        1 F23      0.036700
     40 H9A        -1.0140   -1.7590   -3.4200 hc        1 F23      0.038700
     41 H9B        -2.2920   -0.8080   -3.5380 hc        1 F23      0.038700
     42 H101       -1.4830   -2.0460   -1.1090 hc        1 F23      0.038200
     43 H102       -2.6910   -1.0100   -1.2500 hc        1 F23      0.038200
     44 H111        0.0310   -0.3500   -1.7390 hc        1 F23      0.038700
     45 H112       -1.1820    0.6840   -1.8480 hc        1 F23      0.038700
     46 H121       -0.5120   -0.6360    0.5780 hc        1 F23      0.038700
     47 H122       -1.5740    0.5470    0.4270 hc        1 F23      0.038700
     48 H131        0.1830    2.0090   -0.2010 hc        1 F23      0.038700
     49 H132        1.2280    0.8240    0.0340 hc        1 F23      0.038700
     50 H141       -0.3740    2.0260    2.0500 hc        1 F23      0.038700
     51 H142        0.5300    0.7370    2.3170 hc        1 F23      0.038700
     52 H151        1.5790    3.2400    1.4670 hc        1 F23      0.039200
     53 H152        2.4600    1.9570    1.8290 hc        1 F23      0.039200
     54 H161        1.5670    2.0820    4.0600 hc        1 F23      0.038700
     55 H162        0.9190    3.4860    3.6600 hc        1 F23      0.038700
     56 H171        3.0870    4.3220    3.1880 hc        1 F23      0.039700
     57 H172        3.7080    2.9320    3.6730 hc        1 F23      0.039700
     58 H181        2.6440    3.3430    5.8130 hc        1 F23      0.039200
     59 H182        2.3610    4.8280    5.2980 hc        1 F23      0.039200
     60 H191        4.9390    3.6770    5.6320 hc        1 F23      0.039700
     61 H192        4.7040    5.1200    4.9900 hc        1 F23      0.039700
     62 H201        3.8620    4.4710    7.6240 hc        1 F23      0.038700
     63 H202        3.8550    5.9320    6.9790 hc        1 F23      0.038700
     64 H211        6.1850    4.4330    7.6180 hc        1 F23      0.039700
     65 H212        6.2340    5.8270    6.8390 hc        1 F23      0.039700
     66 H221        5.1520    5.5460    9.4530 hc        1 F23      0.037700
     67 H222        5.3440    6.9320    8.6820 hc        1 F23      0.037700
     68 H231        7.1040    6.6640   10.1980 hc        1 F23      0.031367
     69 H232        7.4690    5.2480    9.5470 hc        1 F23      0.031367
     70 H233        7.6910    6.5940    8.7100 hc        1 F23      0.031367
@<TRIPOS>BOND
     1    1    3 1   
     2    2    3 1   
     3    3    4 1   
     4    4    5 1   
     5    4   26 1   
     6    4   27 1   
     7    5    6 1   
     8    5   28 1   
     9    5   29 1   
    10    6    7 1   
    11    6   30 1   
    12    6   31 1   
    13    7    8 1   
    14    7   32 1   
    15    7   33 1   
    16    8    9 1   
    17    8   34 1   
    18    8   35 1   
    19    9   10 1   
    20    9   36 1   
    21    9   37 1   
    22   10   11 1   
    23   10   38 1   
    24   10   39 1   
    25   11   12 1   
    26   11   40 1   
    27   11   41 1   
    28   12   13 1   
    29   12   42 1   
    30   12   43 1   
    31   13   14 1   
    32   13   44 1   
    33   13   45 1   
    34   14   15 1   
    35   14   46 1   
    36   14   47 1   
    37   15   16 1   
    38   15   48 1   
    39   15   49 1   
    40   16   17 1   
    41   16   50 1   
    42   16   51 1   
    43   17   18 1   
    44   17   52 1   
    45   17   53 1   
    46   18   19 1   
    47   18   54 1   
    48   18   55 1   
    49   19   20 1   
    50   19   56 1   
    51   19   57 1   
    52   20   21 1   
    53   20   58 1   
    54   20   59 1   
    55   21   22 1   
    56   21   60 1   
    57   21   61 1   
    58   22   23 1   
    59   22   62 1   
    60   22   63 1   
    61   23   24 1   
    62   23   64 1   
    63   23   65 1   
    64   24   25 1   
    65   24   66 1   
    66   24   67 1   
    67   25   68 1   
    68   25   69 1   
    69   25   70 1   
@<TRIPOS>SUBSTRUCTURE
     1 F23         1 TEMP              0 ****  ****    0 ROOT
