@<TRIPOS>MOLECULE
F24
   52    51     1     0     0
SMALL
bcc


@<TRIPOS>ATOM
      1 C1          6.4870   -0.0240    0.5990 c3        1 F24     -0.221700
      2 O1         -8.6610    0.5260    0.3920 o         1 F24     -0.836300
      3 C2          5.3220   -0.7150   -0.1250 c3        1 F24      0.155100
      4 O2          6.3350    1.8210   -0.9620 o         1 F24     -0.544100
      5 C3         -7.7780   -0.0020    1.1270 c         1 F24      0.894800
      6 C4          7.7000   -0.9520    0.6000 c3        1 F24      0.139400
      7 O4         -7.9540   -0.2770    2.3500 o         1 F24     -0.836300
      8 C5          4.0120    0.0210    0.1340 c3        1 F24     -0.115400
      9 O5          8.7230   -0.3220    1.3570 oh        1 F24     -0.613800
     10 C6         -6.4310   -0.3690    0.5440 ce        1 F24     -0.152200
     11 O6          5.5950   -0.8570   -1.5070 oh        1 F24     -0.605800
     12 C7         -3.5420   -1.1460    1.3590 c3        1 F24     -0.049900
     13 C8          6.8800    1.3060    0.0150 c         1 F24      0.582900
     14 C9         -5.6510    0.4070   -0.2270 cf        1 F24     -0.149200
     15 C10         2.8340   -0.7490   -0.4220 c3        1 F24     -0.077400
     16 C11         1.5350   -0.0070   -0.1880 c3        1 F24     -0.079400
     17 C12        -4.3490   -0.0200   -0.7180 cf        1 F24     -0.085000
     18 C13        -1.1490    1.1840   -1.0830 c3        1 F24     -0.090100
     19 C16        -2.1230   -1.0880   -0.7130 c3        1 F24     -0.028200
     20 C18        -0.9760   -0.1400   -0.3680 c3        1 F24     -0.063700
     21 C20         0.3540   -0.7900   -0.7210 c3        1 F24     -0.075400
     22 C21        -6.0650    1.7600   -0.6850 c3        1 F24     -0.047900
     23 H1          6.1810    0.1660    1.6680 hc        1 F24      0.089700
     24 H2          5.2420   -1.7780    0.2450 h1        1 F24      0.070700
     25 H4          7.4270   -1.9340    1.0710 h1        1 F24      0.039700
     26 H4A         8.0460   -1.1330   -0.4530 h1        1 F24      0.039700
     27 H5          3.8820    0.1630    1.2380 hc        1 F24      0.053200
     28 H5A         4.0610    1.0380   -0.3380 hc        1 F24      0.053200
     29 HO5         9.4790   -0.9200    1.3470 ho        1 F24      0.405000
     30 H6         -6.0950   -1.3790    0.8340 ha        1 F24      0.101000
     31 HO6         5.4900    0.0140   -1.9170 ho        1 F24      0.421000
     32 H7         -3.9060   -2.2040    1.3970 hc        1 F24      0.038367
     33 H7A        -2.5570   -1.0990    1.8870 hc        1 F24      0.038367
     34 H7B        -4.2760   -0.5060    1.9110 hc        1 F24      0.038367
     35 H8          7.7250    1.8010    0.5450 h4        1 F24      0.017200
     36 H10         2.9870   -0.9160   -1.5220 hc        1 F24      0.044700
     37 H10A        2.7840   -1.7600    0.0610 hc        1 F24      0.044700
     38 H11         1.4000    0.1750    0.9110 hc        1 F24      0.040700
     39 H11A        1.5800    0.9960   -0.6870 hc        1 F24      0.040700
     40 H12        -4.1400    0.2890   -1.7610 ha        1 F24      0.099000
     41 H13        -2.1870    1.5680   -0.9190 hc        1 F24      0.033700
     42 H13A       -0.4230    1.9380   -0.6950 hc        1 F24      0.033700
     43 H13B       -0.9850    1.0650   -2.1810 hc        1 F24      0.033700
     44 H16        -1.8490   -2.1280   -0.3900 hc        1 F24      0.032200
     45 H16A       -2.2520   -1.1100   -1.8280 hc        1 F24      0.032200
     46 H18        -0.9970    0.0490    0.7430 hc        1 F24      0.052700
     47 H20         0.4390   -0.8880   -1.8350 hc        1 F24      0.036200
     48 H20A        0.3800   -1.8280   -0.2930 hc        1 F24      0.036200
     49 H21        -7.1220    1.9680   -0.3770 hc        1 F24      0.035033
     50 H21A       -5.3950    2.5390   -0.2440 hc        1 F24      0.035033
     51 H21B       -5.9970    1.8320   -1.7990 hc        1 F24      0.035033
     52 C14        -3.4040   -0.7050   -0.0480 c2        1 F24     -0.171400
@<TRIPOS>BOND
     1    1    3 1   
     2    1    6 1   
     3    1   13 1   
     4    1   23 1   
     5    2    5 1   
     6    3    8 1   
     7    3   11 1   
     8    3   24 1   
     9    4   13 2   
    10    5    7 1   
    11    5   10 1   
    12    6    9 1   
    13    6   25 1   
    14    6   26 1   
    15    8   15 1   
    16    8   27 1   
    17    8   28 1   
    18    9   29 1   
    19   10   14 2   
    20   10   30 1   
    21   11   31 1   
    22   12   32 1   
    23   12   33 1   
    24   12   34 1   
    25   12   52 1   
    26   13   35 1   
    27   14   17 1   
    28   14   22 1   
    29   15   16 1   
    30   15   36 1   
    31   15   37 1   
    32   16   21 1   
    33   16   38 1   
    34   16   39 1   
    35   17   40 1   
    36   17   52 2   
    37   18   20 1   
    38   18   41 1   
    39   18   42 1   
    40   18   43 1   
    41   19   20 1   
    42   19   44 1   
    43   19   45 1   
    44   19   52 1   
    45   20   21 1   
    46   20   46 1   
    47   21   47 1   
    48   21   48 1   
    49   22   49 1   
    50   22   50 1   
    51   22   51 1   
@<TRIPOS>SUBSTRUCTURE
     1 F24         1 TEMP              0 ****  ****    0 ROOT
