@<TRIPOS>MOLECULE
F24
   52    49     1     0     0
SMALL
bcc


@<TRIPOS>ATOM
      1 C1         -0.7930   -0.1540   -1.1530 c3        1 F24     -0.260700
      2 O1         -3.2940    0.3460   -3.6850 o         1 F24     -0.855300
      3 C2         -1.9680    0.8240   -1.1050 c3        1 F24      0.152900
      4 O2         -0.2730   -2.1270   -2.4150 o         1 F24     -0.595100
      5 C3         -4.1490    0.6050   -4.5920 c         1 F24      0.905800
      6 C4         -0.7070   -0.9470    0.1450 c3        1 F24      0.152900
      7 O4         -3.8090    0.7310   -5.8030 o         1 F24     -0.855300
      8 C5          0.2810    1.4370   -5.7220 c2        1 F24     -0.268000
      9 O5          0.5350   -1.6070    0.2950 oh        1 F24     -0.635300
     10 C6         -5.5930    0.8080   -4.2370 ce        1 F24     -0.173200
     11 O6         -3.1880    0.1640   -0.8500 oh        1 F24     -0.635300
     12 C7         -7.6510    2.7610   -2.9820 c3        1 F24     -0.050900
     13 C8         -0.8850   -1.0530   -2.3600 c         1 F24      0.567900
     14 C9         -6.3220    0.0400   -3.4120 cf        1 F24     -0.116200
     15 C10        -0.5100    0.3680   -5.6590 c2        1 F24     -0.149200
     16 C11        -0.0220   -1.0170   -5.8920 c3        1 F24     -0.018000
     17 C12        -7.7400    0.2720   -3.1680 cf        1 F24     -0.103000
     18 C13        -2.6340   -2.2520   -8.4690 c3        1 F24     -0.054900
     19 C16        -9.8140    1.5340   -2.7450 c3        1 F24     -0.050900
     20 C18        -1.9770   -1.5070   -7.3770 c2        1 F24     -0.172200
     21 C20        -0.7150   -1.7240   -6.9980 c2        1 F24     -0.188200
     22 C21        -5.7630   -1.1390   -2.6980 c3        1 F24     -0.054900
     23 H1         -2.0190    1.3990   -2.0690 h1        1 F24      0.047700
     24 H2          0.1540    0.4470   -1.2710 hc        1 F24      0.075700
     25 H4         -0.7720   -0.2560    1.0280 h1        1 F24      0.047700
     26 H4A        -1.5500   -1.6870    0.1920 h1        1 F24      0.047700
     27 H5         -1.8220    1.5300   -0.2420 h1        1 F24      0.047700
     28 H5A        -0.0980    2.4490   -5.5320 ha        1 F24      0.092000
     29 HO5         0.6430   -2.1900   -0.4690 ho        1 F24      0.437000
     30 H6         -6.0570    1.6560   -4.7670 ha        1 F24      0.113000
     31 HO6        -3.5930   -0.0320   -1.7140 ho        1 F24      0.437000
     32 H7         -8.1240    3.4620   -2.2500 hc        1 F24      0.033200
     33 H7A        -6.5710    2.6390   -2.7140 hc        1 F24      0.033200
     34 H7B        -7.7070    3.2280   -3.9980 hc        1 F24      0.033200
     35 H8         -1.5220   -0.6820   -3.2010 h4        1 F24      0.091200
     36 H10         1.3490    1.3810   -5.9680 ha        1 F24      0.092000
     37 H10A       -1.5930    0.4590   -5.4090 ha        1 F24      0.203000
     38 H11        -0.1730   -1.6070   -4.9400 hc        1 F24      0.042700
     39 H11A        1.0830   -1.0120   -6.1010 hc        1 F24      0.042700
     40 H12        -8.3440   -0.6540   -3.1230 ha        1 F24      0.105000
     41 H13        -3.5360   -2.7860   -8.0740 hc        1 F24      0.027033
     42 H13A       -1.9560   -3.0070   -8.9380 hc        1 F24      0.027033
     43 H13B       -2.9750   -1.5420   -9.2630 hc        1 F24      0.027033
     44 H16       -10.0180    1.9260   -1.7170 hc        1 F24      0.033200
     45 H16A      -10.3050    0.5350   -2.8430 hc        1 F24      0.033200
     46 H18       -10.2850    2.2320   -3.4820 hc        1 F24      0.033200
     47 H20        -2.6110   -0.7420   -6.8780 ha        1 F24      0.195000
     48 H20A       -0.1000   -2.4940   -7.4950 ha        1 F24      0.091000
     49 H21        -5.6980   -0.9240   -1.6020 hc        1 F24      0.040033
     50 H21A       -4.7340   -1.3750   -3.0710 hc        1 F24      0.040033
     51 H21B       -6.4150   -2.0350   -2.8440 hc        1 F24      0.040033
     52 C14        -8.3500    1.4560   -2.9820 c2        1 F24     -0.151400
@<TRIPOS>BOND
     1    1    3 1   
     2    1    6 1   
     3    1   13 1   
     4    1   24 1   
     5    2    5 1   
     6    3   11 1   
     7    3   23 1   
     8    3   27 1   
     9    4   13 2   
    10    5    7 1   
    11    5   10 1   
    12    6    9 1   
    13    6   25 1   
    14    6   26 1   
    15    8   15 2   
    16    8   28 1   
    17    8   36 1   
    18    9   29 1   
    19   10   14 2   
    20   10   30 1   
    21   11   31 1   
    22   12   32 1   
    23   12   33 1   
    24   12   34 1   
    25   12   52 1   
    26   13   35 1   
    27   14   17 1   
    28   14   22 1   
    29   15   16 1   
    30   15   37 1   
    31   16   21 1   
    32   16   38 1   
    33   16   39 1   
    34   17   40 1   
    35   17   52 2   
    36   18   20 1   
    37   18   41 1   
    38   18   42 1   
    39   18   43 1   
    40   19   44 1   
    41   19   45 1   
    42   19   46 1   
    43   19   52 1   
    44   20   21 2   
    45   20   47 1   
    46   21   48 1   
    47   22   49 1   
    48   22   50 1   
    49   22   51 1   
@<TRIPOS>SUBSTRUCTURE
     1 F24         1 TEMP              0 ****  ****    0 ROOT
