@<TRIPOS>MOLECULE
F24
   52    49     1     0     0
SMALL
bcc


@<TRIPOS>ATOM
      1 C1          4.9760   -2.0330    2.6170 c3        1 F24     -0.261000
      2 O1         -4.0060    2.1720   -6.4820 o         1 F24     -0.572000
      3 C2          3.4830   -2.0580    2.8540 c3        1 F24      0.037000
      4 O2          5.6570   -4.2480    3.1100 o         1 F24     -0.312000
      5 C3         -4.8760    1.8550   -5.6290 c1        1 F24      0.345000
      6 C4          5.6790   -1.5830    3.8790 c3        1 F24     -0.005000
      7 O4         -6.0980    1.8940   -5.9320 os        1 F24     -0.568000
      8 C5          2.7650   -1.6380    1.5920 c3        1 F24     -0.156000
      9 O5          7.0690   -1.7760    3.7360 oh        1 F24     -0.329000
     10 C6         -4.4540    1.4310   -4.2400 c2        1 F24     -0.133000
     11 O6          3.0860   -3.3610    3.2080 oh        1 F24     -0.323000
     12 C7         -1.5980    2.3560   -2.5340 c3        1 F24     -0.171000
     13 C8          5.4500   -3.4200    2.2420 c2        1 F24      0.202000
     14 C9         -4.3670    2.3460   -3.2540 c1        1 F24     -0.146000
     15 C10         1.4310   -1.0210    1.9510 c3        1 F24     -0.158000
     16 C11         0.6350   -0.7700    0.6900 c3        1 F24     -0.158000
     17 C12        -3.9450    1.9220   -1.8640 c2        1 F24     -0.084000
     18 C13        -2.4150   -0.9530   -0.3150 c3        1 F24     -0.208000
     19 C14        -2.6410    1.9270   -1.5250 c2        1 F24     -0.165000
     20 C16        -2.2190    1.5040   -0.1360 c3        1 F24     -0.110000
     21 C18        -1.4460    0.2050   -0.2170 c3        1 F24     -0.103000
     22 C20        -0.5940    0.0470    1.0230 c3        1 F24     -0.153000
     23 C21        -4.6910    3.7970   -3.5370 c2        1 F24     -0.170000
     24 H1          5.1800   -1.4120    1.8920 hc        1 F24      0.143000
     25 H2          3.2570   -1.4410    3.5780 h1        1 F24      0.083000
     26 H4          5.4960   -0.6340    4.0340 h1        1 F24      0.083500
     27 H4A         5.3530   -2.1080    4.6390 h1        1 F24      0.083500
     28 H5          3.3080   -0.9820    1.1110 hc        1 F24      0.091000
     29 H5A         2.6190   -2.4210    1.0230 hc        1 F24      0.091000
     30 HO5         7.4940   -1.3750    4.4070 ho        1 F24      0.223000
     31 H6         -4.2490    0.4950   -4.0560 ha        1 F24      0.101000
     32 HO6         2.8600   -3.3790    4.0680 ho        1 F24      0.198000
     33 H7         -1.8680    3.2070   -2.9400 hc        1 F24      0.077667
     34 H7A        -0.7350    2.4680   -2.0850 hc        1 F24      0.077667
     35 H7B        -1.5180    1.6720   -3.2320 hc        1 F24      0.077667
     36 H8          5.5920   -3.6510    1.3030 h4        1 F24      0.116000
     37 H10         1.5790   -0.1740    2.4180 hc        1 F24      0.084500
     38 H10A        0.9360   -1.6310    2.5330 hc        1 F24      0.084500
     39 H11         1.1870   -0.2810    0.0470 hc        1 F24      0.081000
     40 H11A        0.3620   -1.6250    0.3010 hc        1 F24      0.081000
     41 H12        -4.6170    1.6450   -1.2130 ha        1 F24      0.099000
     42 H13        -2.7620   -1.0120   -1.2290 hc        1 F24      0.074000
     43 H13A       -1.9520   -1.7860   -0.0860 hc        1 F24      0.074000
     44 H13B       -3.1580   -0.8100    0.3080 hc        1 F24      0.074000
     45 H16        -1.6520    2.1960    0.2580 hc        1 F24      0.070000
     46 H16A       -3.0130    1.3760    0.4220 hc        1 F24      0.070000
     47 H18        -0.8720    0.2170   -1.0070 hc        1 F24      0.092000
     48 H20        -1.1100   -0.4090    1.7170 hc        1 F24      0.074000
     49 H20A       -0.3210    0.9290    1.3460 hc        1 F24      0.074000
     50 H21        -5.6260    3.8730   -3.8190 ha        1 F24      0.074667
     51 H21A       -4.5500    4.3270   -2.7250 ha        1 F24      0.074667
     52 H21B       -4.1060    4.1290   -4.2500 ha        1 F24      0.074667
@<TRIPOS>BOND
     1    1    3 1   
     2    1    6 1   
     3    1   13 1   
     4    1   24 1   
     5    2    5 1   
     6    3    8 1   
     7    3   11 1   
     8    3   25 1   
     9    4   13 1   
    10    5   10 1   
    11    6    9 1   
    12    6   26 1   
    13    6   27 1   
    14    8   15 1   
    15    8   28 1   
    16    8   29 1   
    17    9   30 1   
    18   10   14 1   
    19   10   31 1   
    20   11   32 1   
    21   12   19 1   
    22   12   33 1   
    23   12   34 1   
    24   12   35 1   
    25   13   36 1   
    26   14   17 1   
    27   15   16 1   
    28   15   37 1   
    29   15   38 1   
    30   16   22 1   
    31   16   39 1   
    32   16   40 1   
    33   17   19 1   
    34   17   41 1   
    35   18   21 1   
    36   18   42 1   
    37   18   43 1   
    38   18   44 1   
    39   19   20 1   
    40   20   21 1   
    41   20   45 1   
    42   20   46 1   
    43   21   22 1   
    44   21   47 1   
    45   22   48 1   
    46   22   49 1   
    47   23   50 1   
    48   23   51 1   
    49   23   52 1   
@<TRIPOS>SUBSTRUCTURE
     1 F24         1 TEMP              0 ****  ****    0 ROOT
