@<TRIPOS>MOLECULE
F25
   59    58     1     0     0
SMALL
bcc


@<TRIPOS>ATOM
      1 O21        -1.1340    0.4190    0.2430 o         1 F25     -0.330000
      2 C20         0.0210    0.4100    0.2290 c1        1 F25      0.328000
      3 N19         0.9670    0.3840    1.5150 n2        1 F25     -0.333000
      4 C23         0.6210   -0.1640    2.8220 c3        1 F25      0.036000
      5 C24         0.3760    0.9850    3.8170 c2        1 F25     -0.119000
      6 C32        -0.7740    1.7350    3.7350 c2        1 F25     -0.081000
      7 C31        -0.9850    2.7640    4.6150 c1        1 F25     -0.172000
      8 C30        -0.0310    3.0490    5.5950 c1        1 F25      0.094000
      9 F29        -0.2100    4.0740    6.4140 f         1 F25     -0.110000
     10 C26         1.1230    2.2950    5.6750 c1        1 F25     -0.174000
     11 C25         1.3310    1.2700    4.7970 c1        1 F25     -0.088000
     12 C17         2.4380    0.6280    0.9690 c3        1 F25     -0.007000
     13 C16         2.3400    0.5090   -0.4280 c3        1 F25     -0.130000
     14 C15         2.5100   -0.8270   -0.8290 c3        1 F25     -0.031000
     15 N11         1.5720   -1.0370   -1.9360 n3        1 F25     -0.228000
     16 C12         2.3070   -2.0560   -2.9390 c3        1 F25     -0.081000
     17 C13         3.6740   -1.7310   -2.9000 c3        1 F25     -0.177000
     18 C14         3.9240   -1.0690   -1.4300 c3        1 F25     -0.171000
     19 C10         0.5850    0.2870   -1.9410 c3        1 F25      0.034000
     20 C7         -0.8400   -0.1230   -2.0010 c2        1 F25     -0.076000
     21 C8         -1.1780   -1.4600   -1.9090 c2        1 F25     -0.097000
     22 C9         -2.5160   -1.8510   -2.0090 c1        1 F25     -0.137000
     23 C4         -3.5160   -0.8870   -2.2020 c1        1 F25     -0.050000
     24 C5         -3.1750    0.4570   -2.2930 c1        1 F25     -0.103000
     25 C6         -1.8380    0.8430   -2.1940 c1        1 F25     -0.106000
     26 C3         -5.0350   -1.3340   -2.3450 c3        1 F25      0.077000
     27 N1         -5.5270   -1.8220   -1.0430 n3        1 F25     -0.378000
     28 N2         -5.1410   -2.4120   -3.3480 n3        1 F25     -0.378000
     29 C22         0.8390    0.9030   -0.8110 c3        1 F25     -0.141000
     30 C18         2.9110    1.9710    1.3440 c3        1 F25      0.208000
     31 F33         1.8830    2.7760    1.4870 f         1 F25     -0.166500
     32 F32         3.6050    1.8950    2.5350 f         1 F25     -0.166500
     33 H231        1.3670   -0.7290    3.1500 h1        1 F25      0.101500
     34 H232       -0.1660   -0.6910    2.7470 h1        1 F25      0.101500
     35 H25        -1.4640    1.5270    3.0270 ha        1 F25      0.168000
     36 H26        -1.7910    3.2890    4.5560 ha        1 F25      0.149000
     37 H28         1.7690    2.4860    6.3360 ha        1 F25      0.146000
     38 H29         2.1270    0.7510    4.8530 ha        1 F25      0.142000
     39 H17         3.0390   -0.0470    1.3210 h1        1 F25      0.108000
     40 H16         2.9840    1.0990   -0.8800 hc        1 F25      0.121000
     41 H15         2.3390   -1.4070   -0.1310 h1        1 F25      0.109000
     42 H121        1.9860   -1.9460   -3.7900 h1        1 F25      0.092000
     43 H122        2.1630   -3.0350   -2.6260 h1        1 F25      0.092000
     44 H131        4.2230   -2.5490   -3.0040 hc        1 F25      0.091000
     45 H132        3.8730   -1.1340   -3.5500 hc        1 F25      0.091000
     46 H142        4.4290   -0.1750   -1.5260 hc        1 F25      0.090000
     47 H141        4.4310   -1.6850   -0.8620 hc        1 F25      0.090000
     48 H10         0.8010    0.8630   -2.6900 h1        1 F25      0.097000
     49 H8         -0.4960   -2.1170   -1.7800 ha        1 F25      0.136000
     50 H9         -2.7550   -2.8000   -1.9450 ha        1 F25      0.120000
     51 H5         -3.8810    1.1440   -2.4310 ha        1 F25      0.139000
     52 H6         -1.6030    1.7670   -2.2590 ha        1 F25      0.134000
     53 H33        -5.5670   -0.5790   -2.6270 h2        1 F25      0.119000
     54 H12        -5.9080   -2.5860   -1.1470 hn        1 F25      0.145750
     55 HN1        -6.1250   -1.2300   -0.7030 hn        1 F25      0.145750
     56 H23        -5.7520   -2.1560   -4.0210 hn        1 F25      0.145750
     57 HN2        -5.4250   -3.1570   -2.9560 hn        1 F25      0.145750
     58 H22         0.7410    1.8810   -0.9040 hc        1 F25      0.134000
     59 H18         3.5320    2.3350    0.6090 h2        1 F25      0.104000
@<TRIPOS>BOND
     1    1    2 1   
     2    2   29 1   
     3    3    4 1   
     4    3   12 1   
     5    4    5 1   
     6    4   33 1   
     7    4   34 1   
     8    5    6 1   
     9    5   11 1   
    10    6    7 1   
    11    6   35 1   
    12    7   36 1   
    13    8    9 1   
    14    8   10 1   
    15   10   37 1   
    16   11   38 1   
    17   12   13 1   
    18   12   30 1   
    19   12   39 1   
    20   13   14 1   
    21   13   29 1   
    22   13   40 1   
    23   14   15 1   
    24   14   18 1   
    25   14   41 1   
    26   15   16 1   
    27   15   19 1   
    28   16   17 1   
    29   16   42 1   
    30   16   43 1   
    31   17   18 1   
    32   17   44 1   
    33   17   45 1   
    34   18   46 1   
    35   18   47 1   
    36   19   20 1   
    37   19   29 1   
    38   19   48 1   
    39   20   21 1   
    40   20   25 1   
    41   21   22 1   
    42   21   49 1   
    43   22   50 1   
    44   23   24 1   
    45   23   26 1   
    46   24   51 1   
    47   25   52 1   
    48   26   27 1   
    49   26   28 1   
    50   26   53 1   
    51   27   54 1   
    52   27   55 1   
    53   28   56 1   
    54   28   57 1   
    55   29   58 1   
    56   30   31 1   
    57   30   32 1   
    58   30   59 1   
@<TRIPOS>SUBSTRUCTURE
     1 F25         1 TEMP              0 ****  ****    0 ROOT
