@<TRIPOS>MOLECULE
F25
   61    65     1     0     0
SMALL
bcc


@<TRIPOS>ATOM
      1 O21         0.1040   -0.4690    0.3970 o         1 F25     -0.757500
      2 C20         1.3430   -0.4730    0.1990 c         1 F25      0.737500
      3 N19         2.2830   -0.6940    1.1890 n         1 F25     -0.451800
      4 C23         2.0410   -0.8470    2.6030 c3        1 F25      0.134300
      5 C24         0.8150   -1.6440    2.9420 ca        1 F25     -0.089300
      6 C32        -0.2780   -1.0110    3.5480 ca        1 F25     -0.078500
      7 C31        -1.4530   -1.7160    3.7950 ca        1 F25     -0.206500
      8 C30        -1.5290   -3.0740    3.4260 ca        1 F25      0.063900
      9 F29        -2.7130   -3.7290    3.5410 f         1 F25     -0.151900
     10 C26        -0.4020   -3.7410    2.9140 ca        1 F25     -0.206500
     11 C25         0.7660   -3.0180    2.6810 ca        1 F25     -0.078500
     12 C17         3.6510   -0.5750    0.6940 c3        1 F25      0.038700
     13 C16         3.5500   -0.3760   -0.8370 c3        1 F25     -0.082700
     14 C15         4.0140   -1.6080   -1.6370 c3        1 F25      0.164500
     15 N11         2.8790   -2.1160   -2.4450 n3        1 F25     -0.712600
     16 C12         3.3570   -2.3350   -3.8140 c3        1 F25      0.144800
     17 C13         4.7820   -1.7780   -3.9580 c3        1 F25     -0.100400
     18 C14         5.2070   -1.3180   -2.5690 c3        1 F25     -0.094400
     19 C10         1.7500   -1.1870   -2.3210 c3        1 F25      0.213800
     20 C7          0.4320   -1.8750   -2.0860 ca        1 F25      0.034700
     21 C8         -0.7450   -1.1510   -2.3680 ca        1 F25     -0.094500
     22 C9         -1.9290   -1.5030   -1.7410 ca        1 F25     -0.079500
     23 C4         -1.9370   -2.6080   -0.8680 ca        1 F25     -0.283300
     24 C5         -0.8510   -3.4970   -0.8420 ca        1 F25     -0.079500
     25 C6          0.3370   -3.1300   -1.4680 ca        1 F25     -0.094500
     26 C3         -2.9070   -2.6500    0.2630 c3        1 F25      0.424000
     27 N1         -4.3400   -2.7320   -0.2310 nz        1 F25     -0.877600
     28 N2         -2.6100   -1.4340    1.1290 nz        1 F25     -0.877600
     29 C22         2.0420   -0.2100   -1.1420 c3        1 F25     -0.145700
     30 C18         4.4380    0.6370    1.3290 c3        1 F25      0.391900
     31 F33         4.5560    0.5040    2.6920 f         1 F25     -0.221800
     32 F32         5.7400    0.6350    0.8960 f         1 F25     -0.221800
     33 H231        1.9650    0.1800    3.0730 h1        1 F25      0.091700
     34 H232        2.9450   -1.3560    3.0570 h1        1 F25      0.091700
     35 H25        -0.2060    0.0500    3.8450 ha        1 F25      0.171500
     36 H26        -2.2870   -1.2470    4.3420 ha        1 F25      0.172500
     37 H28        -0.4400   -4.8270    2.7330 ha        1 F25      0.172500
     38 H29         1.6590   -3.5360    2.2910 ha        1 F25      0.171500
     39 H17         4.2220   -1.5120    0.9570 h1        1 F25      0.106700
     40 H16         4.1290    0.5330   -1.1420 hc        1 F25      0.107700
     41 H15         4.2930   -2.4460   -0.9360 h1        1 F25      0.083700
     42 H121        2.6750   -1.8810   -4.5830 h1        1 F25      0.064200
     43 H122        3.3590   -3.4500   -3.9700 h1        1 F25      0.064200
     44 H131        5.4690   -2.5710   -4.3470 hc        1 F25      0.071700
     45 H132        4.8010   -0.9290   -4.6840 hc        1 F25      0.071700
     46 H142        6.1060   -1.8820   -2.2170 hc        1 F25      0.071200
     47 H141        5.4720   -0.2320   -2.5740 hc        1 F25      0.071200
     48 H10         1.6380   -0.5500   -3.2550 h1        1 F25      0.079700
     49 H8         -0.7070   -0.2690   -3.0310 ha        1 F25      0.190000
     50 H9         -2.8280   -0.8880   -1.8980 ha        1 F25      0.143000
     51 H5         -0.9070   -4.4440   -0.2810 ha        1 F25      0.143000
     52 H6          1.2140   -3.8020   -1.4210 ha        1 F25      0.190000
     53 H33        -2.7470   -3.5630    0.9390 hx        1 F25      0.171700
     54 H12        -4.5670   -1.9530   -0.8630 hn        1 F25      0.490800
     55 HN1        -4.4090   -3.6090   -0.7770 hn        1 F25      0.490800
     56 H23        -1.5700   -1.4410    1.3150 hn        1 F25      0.490800
     57 HN2        -3.0950   -1.4650    2.0350 hn        1 F25      0.490800
     58 H22         1.7840    0.8350   -1.4540 hc        1 F25      0.110700
     59 H18         3.9370    1.6170    1.0710 h2        1 F25      0.082700
     60 H13        -5.0220   -2.7650    0.5360 hn        1 F25      0.490800
     61 H233       -2.8020   -0.5540    0.6360 hn        1 F25      0.490800
@<TRIPOS>BOND
     1    1    2 2   
     2    2    3 1   
     3    2   29 1   
     4    3    4 1   
     5    3   12 1   
     6    4    5 1   
     7    4   33 1   
     8    4   34 1   
     9    5    6 ar  
    10    5   11 ar  
    11    6    7 ar  
    12    6   35 1   
    13    7    8 ar  
    14    7   36 1   
    15    8    9 1   
    16    8   10 ar  
    17   10   11 ar  
    18   10   37 1   
    19   11   38 1   
    20   12   13 1   
    21   12   30 1   
    22   12   39 1   
    23   13   14 1   
    24   13   29 1   
    25   13   40 1   
    26   14   15 1   
    27   14   18 1   
    28   14   41 1   
    29   15   16 1   
    30   15   19 1   
    31   16   17 1   
    32   16   42 1   
    33   16   43 1   
    34   17   18 1   
    35   17   44 1   
    36   17   45 1   
    37   18   46 1   
    38   18   47 1   
    39   19   20 1   
    40   19   29 1   
    41   19   48 1   
    42   20   21 ar  
    43   20   25 ar  
    44   21   22 ar  
    45   21   49 1   
    46   22   23 ar  
    47   22   50 1   
    48   23   24 ar  
    49   23   26 1   
    50   24   25 ar  
    51   24   51 1   
    52   25   52 1   
    53   26   27 1   
    54   26   28 1   
    55   26   53 1   
    56   27   54 1   
    57   27   55 1   
    58   27   60 1   
    59   28   56 1   
    60   28   57 1   
    61   28   61 1   
    62   29   58 1   
    63   30   31 1   
    64   30   32 1   
    65   30   59 1   
@<TRIPOS>SUBSTRUCTURE
     1 F25         1 TEMP              0 ****  ****    0 ROOT
