@<TRIPOS>MOLECULE
F25
   61    65     1     0     0
SMALL
bcc


@<TRIPOS>ATOM
      1 O21         0.0890   -0.4730    0.3810 o         1 F25     -0.757500
      2 C20         1.3290   -0.4660    0.1900 c         1 F25      0.737500
      3 N19         2.2660   -0.6670    1.1870 n         1 F25     -0.451800
      4 C23         2.0170   -0.8080    2.6020 c3        1 F25      0.134300
      5 C24         0.7980   -1.6150    2.9410 ca        1 F25     -0.089300
      6 C32        -0.3050   -0.9880    3.5350 ca        1 F25     -0.078500
      7 C31        -1.4740   -1.7020    3.7830 ca        1 F25     -0.206500
      8 C30        -1.5330   -3.0650    3.4280 ca        1 F25      0.063900
      9 F29        -2.7110   -3.7320    3.5420 f         1 F25     -0.151900
     10 C26        -0.3960   -3.7250    2.9280 ca        1 F25     -0.206500
     11 C25         0.7650   -2.9920    2.6940 ca        1 F25     -0.078500
     12 C17         3.6350   -0.5380    0.6990 c3        1 F25      0.038700
     13 C16         3.5410   -0.3560   -0.8360 c3        1 F25     -0.082700
     14 C15         4.0220   -1.5910   -1.6200 c3        1 F25      0.164500
     15 N11         2.8970   -2.1190   -2.4290 n3        1 F25     -0.712600
     16 C12         3.3860   -2.3460   -3.7930 c3        1 F25      0.144800
     17 C13         4.8060   -1.7760   -3.9340 c3        1 F25     -0.100400
     18 C14         5.2180   -1.2980   -2.5480 c3        1 F25     -0.094400
     19 C10         1.7580   -1.2010   -2.3200 c3        1 F25      0.213800
     20 C7          0.4460   -1.9010   -2.0860 ca        1 F25      0.034700
     21 C8         -0.7370   -1.1920   -2.3820 ca        1 F25     -0.094500
     22 C9         -1.9200   -1.5500   -1.7580 ca        1 F25     -0.079500
     23 C4         -1.9220   -2.6460   -0.8740 ca        1 F25     -0.283300
     24 C5         -0.8270   -3.5230   -0.8330 ca        1 F25     -0.079500
     25 C6          0.3610   -3.1500   -1.4560 ca        1 F25     -0.094500
     26 C3         -2.8980   -2.6880    0.2520 c3        1 F25      0.424000
     27 N1         -4.3270   -2.7890   -0.2480 n4        1 F25     -0.877600
     28 N2         -2.6190   -1.4590    1.1080 n4        1 F25     -0.877600
     29 C22         2.0330   -0.2090   -1.1500 c3        1 F25     -0.145700
     30 C18         4.4050    0.6890    1.3250 c3        1 F25      0.391900
     31 F33         4.5170    0.5710    2.6900 f         1 F25     -0.221800
     32 F32         5.7100    0.6960    0.9000 f         1 F25     -0.221800
     33 H231        1.9280    0.2230    3.0600 h1        1 F25      0.091700
     34 H232        2.9240   -1.3030    3.0650 h1        1 F25      0.091700
     35 H25        -0.2460    0.0770    3.8210 ha        1 F25      0.171500
     36 H26        -2.3160   -1.2370    4.3200 ha        1 F25      0.172500
     37 H28        -0.4210   -4.8130    2.7580 ha        1 F25      0.172500
     38 H29         1.6660   -3.5040    2.3150 ha        1 F25      0.171500
     39 H17         4.2150   -1.4660    0.9750 h1        1 F25      0.106700
     40 H16         4.1120    0.5560   -1.1460 hc        1 F25      0.107700
     41 H15         4.3050   -2.4190   -0.9080 h1        1 F25      0.083700
     42 H121        2.7040   -1.9070   -4.5710 h1        1 F25      0.064200
     43 H122        3.4000   -3.4620   -3.9380 h1        1 F25      0.064200
     44 H131        4.8200   -0.9340   -4.6690 hc        1 F25      0.071700
     45 H132        5.5030   -2.5650   -4.3110 hc        1 F25      0.071700
     46 H142        5.4720   -0.2100   -2.5610 hc        1 F25      0.071200
     47 H141        6.1210   -1.8490   -2.1850 hc        1 F25      0.071200
     48 H10         1.6440   -0.5750   -3.2610 h1        1 F25      0.079700
     49 H8         -0.7040   -0.3170   -3.0540 ha        1 F25      0.190000
     50 H9         -2.8250   -0.9470   -1.9270 ha        1 F25      0.143000
     51 H5         -0.8750   -4.4650   -0.2620 ha        1 F25      0.143000
     52 H6          1.2450   -3.8120   -1.3970 ha        1 F25      0.190000
     53 H33        -2.7320   -3.5910    0.9390 hx        1 F25      0.171700
     54 H12        -4.5590   -2.0200   -0.8900 hn        1 F25      0.490800
     55 HN1        -5.0130   -2.8220    0.5150 hn        1 F25      0.490800
     56 H23        -2.8170   -0.5870    0.6040 hn        1 F25      0.490800
     57 HN2        -3.1080   -1.4860    2.0110 hn        1 F25      0.490800
     58 H22         1.7660    0.8300   -1.4740 hc        1 F25      0.110700
     59 H18         3.8960    1.6610    1.0550 h2        1 F25      0.082700
     60 H13        -4.3830   -3.6720   -0.7860 hn        1 F25      0.490800
     61 H233       -1.5790   -1.4530    1.2990 hn        1 F25      0.490800
@<TRIPOS>BOND
     1    1    2 2   
     2    2    3 1   
     3    2   29 1   
     4    3    4 1   
     5    3   12 1   
     6    4    5 1   
     7    4   33 1   
     8    4   34 1   
     9    5    6 ar  
    10    5   11 ar  
    11    6    7 ar  
    12    6   35 1   
    13    7    8 ar  
    14    7   36 1   
    15    8    9 1   
    16    8   10 ar  
    17   10   11 ar  
    18   10   37 1   
    19   11   38 1   
    20   12   13 1   
    21   12   30 1   
    22   12   39 1   
    23   13   14 1   
    24   13   29 1   
    25   13   40 1   
    26   14   15 1   
    27   14   18 1   
    28   14   41 1   
    29   15   16 1   
    30   15   19 1   
    31   16   17 1   
    32   16   42 1   
    33   16   43 1   
    34   17   18 1   
    35   17   44 1   
    36   17   45 1   
    37   18   46 1   
    38   18   47 1   
    39   19   20 1   
    40   19   29 1   
    41   19   48 1   
    42   20   21 ar  
    43   20   25 ar  
    44   21   22 ar  
    45   21   49 1   
    46   22   23 ar  
    47   22   50 1   
    48   23   24 ar  
    49   23   26 1   
    50   24   25 ar  
    51   24   51 1   
    52   25   52 1   
    53   26   27 1   
    54   26   28 1   
    55   26   53 1   
    56   27   54 1   
    57   27   55 1   
    58   27   60 1   
    59   28   56 1   
    60   28   57 1   
    61   28   61 1   
    62   29   58 1   
    63   30   31 1   
    64   30   32 1   
    65   30   59 1   
@<TRIPOS>SUBSTRUCTURE
     1 F25         1 TEMP              0 ****  ****    0 ROOT
