@<TRIPOS>MOLECULE
F25
   61    65     1     0     0
SMALL
bcc


@<TRIPOS>ATOM
      1 O21         0.0900   -0.4730    0.3830 o         1 F25     -0.757500
      2 C20         1.3310   -0.4690    0.2010 c         1 F25      0.737500
      3 N19         2.2600   -0.6790    1.2030 n         1 F25     -0.451800
      4 C23         2.0000   -0.8290    2.6150 c3        1 F25      0.134300
      5 C24         0.7760   -1.6350    2.9400 ca        1 F25     -0.089300
      6 C32        -0.3290   -1.0080    3.5300 ca        1 F25     -0.078500
      7 C31        -1.5020   -1.7210    3.7640 ca        1 F25     -0.206500
      8 C30        -1.5630   -3.0810    3.3990 ca        1 F25      0.063900
      9 F29        -2.7440   -3.7440    3.5010 f         1 F25     -0.151900
     10 C26        -0.4250   -3.7410    2.9040 ca        1 F25     -0.206500
     11 C25         0.7400   -3.0100    2.6830 ca        1 F25     -0.078500
     12 C17         3.6330   -0.5520    0.7260 c3        1 F25      0.038700
     13 C16         3.5510   -0.3590   -0.8080 c3        1 F25     -0.082700
     14 C15         4.0340   -1.5910   -1.5970 c3        1 F25      0.164500
     15 N11         2.9130   -2.1100   -2.4180 n3        1 F25     -0.712600
     16 C12         3.4100   -2.3300   -3.7800 c3        1 F25      0.144800
     17 C13         4.8330   -1.7640   -3.9070 c3        1 F25     -0.100400
     18 C14         5.2360   -1.2950   -2.5150 c3        1 F25     -0.094400
     19 C10         1.7760   -1.1890   -2.3110 c3        1 F25      0.213800
     20 C7          0.4600   -1.8850   -2.0910 ca        1 F25      0.034700
     21 C8         -0.7180   -1.1710   -2.3910 ca        1 F25     -0.094500
     22 C9         -1.9080   -1.5290   -1.7790 ca        1 F25     -0.079500
     23 C4         -1.9190   -2.6310   -0.9010 ca        1 F25     -0.283300
     24 C5         -0.8280   -3.5120   -0.8580 ca        1 F25     -0.079500
     25 C6          0.3660   -3.1390   -1.4700 ca        1 F25     -0.094500
     26 C3         -2.9040   -2.6770    0.2170 c3        1 F25      0.424000
     27 N1         -4.3300   -2.7700   -0.2950 n4        1 F25     -0.877600
     28 N2         -2.6270   -1.4560    1.0830 n4        1 F25     -0.877600
     29 C22         2.0460   -0.2050   -1.1320 c3        1 F25     -0.145700
     30 C18         4.4020    0.6680    1.3670 c3        1 F25      0.391900
     31 F33         4.5040    0.5400    2.7310 f         1 F25     -0.221800
     32 F32         5.7110    0.6740    0.9510 f         1 F25     -0.221800
     33 H231        2.9020   -1.3300    3.0820 h1        1 F25      0.091700
     34 H232        1.9110    0.1990    3.0790 h1        1 F25      0.091700
     35 H25        -0.2690    0.0540    3.8250 ha        1 F25      0.171500
     36 H26        -2.3460   -1.2560    4.2990 ha        1 F25      0.172500
     37 H28        -0.4530   -4.8280    2.7260 ha        1 F25      0.172500
     38 H29         1.6420   -3.5230    2.3070 ha        1 F25      0.171500
     39 H17         4.2070   -1.4840    1.0000 h1        1 F25      0.106700
     40 H16         4.1270    0.5530   -1.1080 hc        1 F25      0.107700
     41 H15         4.3090   -2.4240   -0.8890 h1        1 F25      0.083700
     42 H121        3.4220   -3.4450   -3.9320 h1        1 F25      0.064200
     43 H122        2.7360   -1.8840   -4.5590 h1        1 F25      0.064200
     44 H131        4.8560   -0.9160   -4.6360 hc        1 F25      0.071700
     45 H132        5.5300   -2.5520   -4.2840 hc        1 F25      0.071700
     46 H142        6.1360   -1.8510   -2.1490 hc        1 F25      0.071200
     47 H141        5.4940   -0.2080   -2.5190 hc        1 F25      0.071200
     48 H10         1.6710   -0.5560   -3.2490 h1        1 F25      0.079700
     49 H8         -0.6780   -0.2910   -3.0560 ha        1 F25      0.190000
     50 H9         -2.8090   -0.9220   -1.9490 ha        1 F25      0.143000
     51 H5         -0.8840   -4.4570   -0.2940 ha        1 F25      0.143000
     52 H6          1.2470   -3.8040   -1.4100 ha        1 F25      0.190000
     53 H33        -2.7460   -3.5860    0.8980 hx        1 F25      0.171700
     54 H12        -5.0210   -2.8060    0.4630 hn        1 F25      0.490800
     55 HN1        -4.3850   -3.6490   -0.8390 hn        1 F25      0.490800
     56 H23        -2.8180   -0.5790    0.5840 hn        1 F25      0.490800
     57 HN2        -3.1230   -1.4870    1.9830 hn        1 F25      0.490800
     58 H22         1.7840    0.8370   -1.4510 hc        1 F25      0.110700
     59 H18         3.8980    1.6430    1.0990 h2        1 F25      0.082700
     60 H13        -4.5540   -1.9960   -0.9320 hn        1 F25      0.490800
     61 H233       -1.5890   -1.4540    1.2820 hn        1 F25      0.490800
@<TRIPOS>BOND
     1    1    2 2   
     2    2    3 1   
     3    2   29 1   
     4    3    4 1   
     5    3   12 1   
     6    4    5 1   
     7    4   33 1   
     8    4   34 1   
     9    5    6 ar  
    10    5   11 ar  
    11    6    7 ar  
    12    6   35 1   
    13    7    8 ar  
    14    7   36 1   
    15    8    9 1   
    16    8   10 ar  
    17   10   11 ar  
    18   10   37 1   
    19   11   38 1   
    20   12   13 1   
    21   12   30 1   
    22   12   39 1   
    23   13   14 1   
    24   13   29 1   
    25   13   40 1   
    26   14   15 1   
    27   14   18 1   
    28   14   41 1   
    29   15   16 1   
    30   15   19 1   
    31   16   17 1   
    32   16   42 1   
    33   16   43 1   
    34   17   18 1   
    35   17   44 1   
    36   17   45 1   
    37   18   46 1   
    38   18   47 1   
    39   19   20 1   
    40   19   29 1   
    41   19   48 1   
    42   20   21 ar  
    43   20   25 ar  
    44   21   22 ar  
    45   21   49 1   
    46   22   23 ar  
    47   22   50 1   
    48   23   24 ar  
    49   23   26 1   
    50   24   25 ar  
    51   24   51 1   
    52   25   52 1   
    53   26   27 1   
    54   26   28 1   
    55   26   53 1   
    56   27   54 1   
    57   27   55 1   
    58   27   60 1   
    59   28   56 1   
    60   28   57 1   
    61   28   61 1   
    62   29   58 1   
    63   30   31 1   
    64   30   32 1   
    65   30   59 1   
@<TRIPOS>SUBSTRUCTURE
     1 F25         1 TEMP              0 ****  ****    0 ROOT
