@<TRIPOS>MOLECULE
F25
   59    63     1     0     0
SMALL
bcc


@<TRIPOS>ATOM
      1 O21         0.6270   -0.6740    2.2070 o         1 F25     -0.594500
      2 C20        -0.4030   -0.8630    1.5490 c         1 F25      0.706500
      3 N19        -1.5540   -0.0640    1.6820 n         1 F25     -0.467800
      4 C23        -1.5160    1.2780    2.1970 c3        1 F25      0.138300
      5 C24        -1.2520    2.3620    1.1900 ca        1 F25     -0.141300
      6 C32        -2.2290    3.3240    0.9200 ca        1 F25     -0.091500
      7 C31        -1.9760    4.3580    0.0240 ca        1 F25     -0.169500
      8 C30        -0.7260    4.4260   -0.6180 ca        1 F25      0.131900
      9 F29        -0.4700    5.4280   -1.4930 f         1 F25     -0.139900
     10 C26         0.2610    3.4570   -0.3540 ca        1 F25     -0.169500
     11 C25        -0.0110    2.4340    0.5480 ca        1 F25     -0.091500
     12 C17        -2.6140   -0.4880    0.7850 c3        1 F25      0.052700
     13 C16        -2.0870   -1.7230    0.0120 c3        1 F25     -0.082700
     14 C15        -1.8660   -1.4400   -1.4840 c3        1 F25      0.161500
     15 N11        -0.4240   -1.5770   -1.7930 n3        1 F25     -0.695600
     16 C12        -0.3040   -2.3540   -3.0280 c3        1 F25      0.149800
     17 C13        -1.6720   -2.9470   -3.4040 c3        1 F25     -0.102400
     18 C14        -2.6740   -2.3710   -2.4110 c3        1 F25     -0.094400
     19 C10         0.2550   -2.1730   -0.6250 c3        1 F25      0.233800
     20 C7          1.6420   -1.6320   -0.4120 ca        1 F25     -0.074300
     21 C8          2.6110   -2.4910    0.1250 ca        1 F25     -0.105500
     22 C9          3.9170   -2.0470    0.3250 ca        1 F25     -0.121500
     23 C4          4.2720   -0.7400   -0.0130 ca        1 F25     -0.105300
     24 C5          3.3130    0.1140   -0.5610 ca        1 F25     -0.121500
     25 C6          2.0040   -0.3260   -0.7570 ca        1 F25     -0.105500
     26 C3          5.6960   -0.2540    0.2290 c3        1 F25      0.433000
     27 N1          5.7480    0.8520    1.1970 n3        1 F25     -0.919300
     28 N2          6.3590    0.0070   -1.0480 n3        1 F25     -0.919300
     29 C22        -0.6850   -2.0210    0.5970 c3        1 F25     -0.143700
     30 C18        -3.9110   -0.8880    1.5840 c3        1 F25      0.386900
     31 F33        -4.4980    0.1980    2.1900 f         1 F25     -0.244300
     32 F32        -4.9010   -1.3250    0.7320 f         1 F25     -0.244300
     33 H231       -2.5070    1.4720    2.7040 h1        1 F25      0.078700
     34 H232       -0.6990    1.3090    2.9790 h1        1 F25      0.078700
     35 H25        -3.2080    3.2700    1.4210 ha        1 F25      0.148500
     36 H26        -2.7400    5.1200   -0.1890 ha        1 F25      0.149500
     37 H28         1.2340    3.5180   -0.8610 ha        1 F25      0.149500
     38 H29         0.7560    1.6690    0.7600 ha        1 F25      0.148500
     39 H17        -2.9040    0.3490    0.0870 h1        1 F25      0.086700
     40 H16        -2.7800   -2.5880    0.1560 hc        1 F25      0.080700
     41 H15        -2.1320   -0.3710   -1.7230 h1        1 F25      0.078700
     42 H121        0.4720   -3.1620   -2.9480 h1        1 F25      0.056700
     43 H122        0.0340   -1.6330   -3.8230 h1        1 F25      0.056700
     44 H131       -1.6460   -4.0630   -3.3420 hc        1 F25      0.050700
     45 H132       -1.9400   -2.6710   -4.4520 hc        1 F25      0.050700
     46 H142       -3.4700   -1.7880   -2.9340 hc        1 F25      0.053700
     47 H141       -3.1760   -3.1860   -1.8350 hc        1 F25      0.053700
     48 H10         0.3700   -3.2950   -0.7760 h1        1 F25      0.042700
     49 H8          2.3430   -3.5230    0.3960 ha        1 F25      0.137500
     50 H9          4.6680   -2.7330    0.7460 ha        1 F25      0.130000
     51 H5          3.5850    1.1420   -0.8450 ha        1 F25      0.130000
     52 H6          1.2610    0.3620   -1.1900 ha        1 F25      0.137500
     53 H33         6.2860   -1.1050    0.7020 h2        1 F25      0.072700
     54 H12         5.1170    1.5870    0.9460 hn        1 F25      0.353050
     55 HN1         5.5080    0.5170    2.1080 hn        1 F25      0.353050
     56 H23         5.8460    0.6730   -1.5920 hn        1 F25      0.353050
     57 HN2         7.2870    0.3560   -0.8960 hn        1 F25      0.353050
     58 H22        -0.6680   -2.9660    1.1970 hc        1 F25      0.091700
     59 H18        -3.6790   -1.6850    2.3510 h2        1 F25      0.076700
@<TRIPOS>BOND
     1    1    2 2   
     2    2    3 1   
     3    2   29 1   
     4    3    4 1   
     5    3   12 1   
     6    4    5 1   
     7    4   33 1   
     8    4   34 1   
     9    5    6 ar  
    10    5   11 ar  
    11    6    7 ar  
    12    6   35 1   
    13    7    8 ar  
    14    7   36 1   
    15    8    9 1   
    16    8   10 ar  
    17   10   11 ar  
    18   10   37 1   
    19   11   38 1   
    20   12   13 1   
    21   12   30 1   
    22   12   39 1   
    23   13   14 1   
    24   13   29 1   
    25   13   40 1   
    26   14   15 1   
    27   14   18 1   
    28   14   41 1   
    29   15   16 1   
    30   15   19 1   
    31   16   17 1   
    32   16   42 1   
    33   16   43 1   
    34   17   18 1   
    35   17   44 1   
    36   17   45 1   
    37   18   46 1   
    38   18   47 1   
    39   19   20 1   
    40   19   29 1   
    41   19   48 1   
    42   20   21 ar  
    43   20   25 ar  
    44   21   22 ar  
    45   21   49 1   
    46   22   23 ar  
    47   22   50 1   
    48   23   24 ar  
    49   23   26 1   
    50   24   25 ar  
    51   24   51 1   
    52   25   52 1   
    53   26   27 1   
    54   26   28 1   
    55   26   53 1   
    56   27   54 1   
    57   27   55 1   
    58   28   56 1   
    59   28   57 1   
    60   29   58 1   
    61   30   31 1   
    62   30   32 1   
    63   30   59 1   
@<TRIPOS>SUBSTRUCTURE
     1 F25         1 TEMP              0 ****  ****    0 ROOT
