@<TRIPOS>MOLECULE
F27
   47    50     1     0     0
SMALL
bcc


@<TRIPOS>ATOM
      1 C12         0.0240    0.0730   -0.0770 c3        1 F27     -0.166400
      2 C13         1.5250    0.0530   -0.1170 c         1 F27      0.514600
      3 O14         2.2380    0.0470    0.8900 o         1 F27     -0.518100
      4 C15         2.0930    0.0400   -1.4740 cc        1 F27      0.353900
      5 N16         1.4960    0.0350   -2.6760 nd        1 F27     -0.633000
      6 C17         2.5190    0.0210   -3.6140 cd        1 F27      0.230900
      7 C18         3.7550    0.0180   -2.9510 cc        1 F27      0.183400
      8 O19         3.4980    0.0290   -1.5810 os        1 F27     -0.341800
      9 C20         5.1330    0.0050   -3.4040 ca        1 F27      0.318300
     10 N21         5.3350   -0.0080   -4.7570 nb        1 F27     -0.638000
     11 C22         6.6040   -0.0200   -5.1920 ca        1 F27      0.384800
     12 C23         7.7170   -0.0180   -4.3050 ca        1 F27     -0.208300
     13 C24         7.4950   -0.0040   -2.9370 ca        1 F27     -0.126000
     14 C25         6.1770    0.0080   -2.4620 ca        1 F27     -0.238300
     15 C26         6.9140   -0.0360   -6.7130 c         1 F27      0.827100
     16 O27         7.0430   -1.1660   -7.2430 o         1 F27     -0.800300
     17 O28         7.0580    1.0830   -7.2640 o         1 F27     -0.800300
     18 C29        -0.5030    0.0620    1.3450 c3        1 F27     -0.037100
     19 C30        -1.9900    0.0430    1.3790 ca        1 F27     -0.068300
     20 C31        -2.7080    1.1660    1.8040 ca        1 F27     -0.127000
     21 C32        -4.0990    1.1410    1.8470 ca        1 F27     -0.116000
     22 C33        -4.8020   -0.0110    1.4690 cp        1 F27     -0.047000
     23 C34        -4.0810   -1.1370    1.0450 ca        1 F27     -0.116000
     24 C35        -2.6910   -1.1080    0.9990 ca        1 F27     -0.127000
     25 C36        -6.2620   -0.0390    1.5160 cp        1 F27     -0.029000
     26 C37        -7.0080    1.0750    1.1060 ca        1 F27     -0.119500
     27 C38        -8.4000    1.0460    1.1510 ca        1 F27     -0.132000
     28 C39        -9.0640   -0.0930    1.6060 ca        1 F27     -0.132000
     29 C40        -8.3290   -1.2050    2.0160 ca        1 F27     -0.132000
     30 C41        -6.9370   -1.1810    1.9720 ca        1 F27     -0.119500
     31 H12        -0.3640   -0.8180   -0.6410 hc        1 F27      0.085700
     32 H12A       -0.3340    0.9900   -0.6190 hc        1 F27      0.085700
     33 H17         2.3330    0.0150   -4.6900 h4        1 F27      0.075100
     34 H23         8.7290   -0.0280   -4.7290 ha        1 F27      0.148000
     35 H24         8.3320   -0.0020   -2.2250 ha        1 F27      0.118000
     36 H25         5.9570    0.0190   -1.3870 ha        1 F27      0.137000
     37 H29        -0.1090    0.9620    1.8900 hc        1 F27      0.061200
     38 H29A       -0.1020   -0.8420    1.8790 hc        1 F27      0.061200
     39 H31        -2.1690    2.0770    2.1060 ha        1 F27      0.135000
     40 H32        -4.6520    2.0300    2.1880 ha        1 F27      0.132500
     41 H34        -4.6210   -2.0450    0.7360 ha        1 F27      0.132500
     42 H35        -2.1350   -1.9960    0.6600 ha        1 F27      0.135000
     43 H37        -6.4880    1.9730    0.7390 ha        1 F27      0.135500
     44 H38        -8.9760    1.9240    0.8230 ha        1 F27      0.129000
     45 H39       -10.1630   -0.1140    1.6400 ha        1 F27      0.128000
     46 H40        -8.8490   -2.1050    2.3770 ha        1 F27      0.129000
     47 H41        -6.3610   -2.0590    2.3000 ha        1 F27      0.135500
@<TRIPOS>BOND
     1    1    2 1   
     2    1   18 1   
     3    1   31 1   
     4    1   32 1   
     5    2    3 2   
     6    2    4 1   
     7    4    5 2   
     8    4    8 1   
     9    5    6 1   
    10    6    7 2   
    11    6   33 1   
    12    7    8 1   
    13    7    9 1   
    14    9   10 ar  
    15    9   14 ar  
    16   10   11 ar  
    17   11   12 ar  
    18   11   15 1   
    19   12   13 ar  
    20   12   34 1   
    21   13   14 ar  
    22   13   35 1   
    23   14   36 1   
    24   15   16 1   
    25   15   17 1   
    26   18   19 1   
    27   18   37 1   
    28   18   38 1   
    29   19   20 ar  
    30   19   24 ar  
    31   20   21 ar  
    32   20   39 1   
    33   21   22 ar  
    34   21   40 1   
    35   22   23 ar  
    36   22   25 1   
    37   23   24 ar  
    38   23   41 1   
    39   24   42 1   
    40   25   26 ar  
    41   25   30 ar  
    42   26   27 ar  
    43   26   43 1   
    44   27   28 ar  
    45   27   44 1   
    46   28   29 ar  
    47   28   45 1   
    48   29   30 ar  
    49   29   46 1   
    50   30   47 1   
@<TRIPOS>SUBSTRUCTURE
     1 F27         1 TEMP              0 ****  ****    0 ROOT
