@<TRIPOS>MOLECULE
F27
   47    50     1     0     0
SMALL
bcc


@<TRIPOS>ATOM
      1 C12         0.0240    0.0820   -0.0780 c3        1 F27     -0.166400
      2 C13         1.5240    0.0620   -0.1160 c         1 F27      0.514600
      3 O14         2.2370    0.0600    0.8910 o         1 F27     -0.518100
      4 C15         2.0930    0.0450   -1.4730 cc        1 F27      0.353900
      5 N16         1.4970    0.0390   -2.6750 nd        1 F27     -0.633000
      6 C17         2.5200    0.0220   -3.6130 cd        1 F27      0.230900
      7 C18         3.7560    0.0180   -2.9490 cc        1 F27      0.183400
      8 O19         3.4980    0.0330   -1.5790 os        1 F27     -0.341800
      9 C20         5.1340    0.0020   -3.4020 ca        1 F27      0.318300
     10 N21         5.3370   -0.0150   -4.7550 nb        1 F27     -0.638000
     11 C22         6.6060   -0.0290   -5.1880 ca        1 F27      0.384800
     12 C23         7.7180   -0.0280   -4.3010 ca        1 F27     -0.208300
     13 C24         7.4950   -0.0110   -2.9330 ca        1 F27     -0.126000
     14 C25         6.1780    0.0040   -2.4590 ca        1 F27     -0.238300
     15 C26         6.9170   -0.0490   -6.7090 c         1 F27      0.827100
     16 O27         7.0430   -1.1810   -7.2380 o         1 F27     -0.800300
     17 O28         7.0640    1.0680   -7.2630 o         1 F27     -0.800300
     18 C29        -0.5040    0.0750    1.3440 c3        1 F27     -0.037100
     19 C30        -1.9910    0.0520    1.3780 ca        1 F27     -0.068300
     20 C31        -2.7120    1.1760    1.7980 ca        1 F27     -0.127000
     21 C32        -4.1030    1.1470    1.8410 ca        1 F27     -0.116000
     22 C33        -4.8030   -0.0090    1.4680 cp        1 F27     -0.047000
     23 C34        -4.0790   -1.1340    1.0480 ca        1 F27     -0.116000
     24 C35        -2.6890   -1.1020    1.0030 ca        1 F27     -0.127000
     25 C36        -6.2630   -0.0410    1.5140 cp        1 F27     -0.029000
     26 C37        -7.0120    1.0710    1.0990 ca        1 F27     -0.119500
     27 C38        -8.4040    1.0380    1.1430 ca        1 F27     -0.132000
     28 C39        -9.0650   -0.1010    1.6030 ca        1 F27     -0.132000
     29 C40        -8.3280   -1.2100    2.0180 ca        1 F27     -0.132000
     30 C41        -6.9350   -1.1830    1.9740 ca        1 F27     -0.119500
     31 H12        -0.3630   -0.8110   -0.6390 hc        1 F27      0.085700
     32 H12A       -0.3350    0.9960   -0.6230 hc        1 F27      0.085700
     33 H17         2.3340    0.0130   -4.6890 h4        1 F27      0.075100
     34 H23         8.7310   -0.0410   -4.7250 ha        1 F27      0.148000
     35 H24         8.3330   -0.0100   -2.2210 ha        1 F27      0.118000
     36 H25         5.9580    0.0180   -1.3840 ha        1 F27      0.137000
     37 H29        -0.1130    0.9780    1.8860 hc        1 F27      0.061200
     38 H29A       -0.1010   -0.8260    1.8820 hc        1 F27      0.061200
     39 H31        -2.1760    2.0890    2.0970 ha        1 F27      0.135000
     40 H32        -4.6580    2.0360    2.1770 ha        1 F27      0.132500
     41 H34        -4.6160   -2.0450    0.7430 ha        1 F27      0.132500
     42 H35        -2.1300   -1.9890    0.6670 ha        1 F27      0.135000
     43 H37        -6.4940    1.9680    0.7290 ha        1 F27      0.135500
     44 H38        -8.9820    1.9130    0.8110 ha        1 F27      0.129000
     45 H39       -10.1630   -0.1250    1.6370 ha        1 F27      0.128000
     46 H40        -8.8450   -2.1090    2.3820 ha        1 F27      0.129000
     47 H41        -6.3570   -2.0580    2.3060 ha        1 F27      0.135500
@<TRIPOS>BOND
     1    1    2 1   
     2    1   18 1   
     3    1   31 1   
     4    1   32 1   
     5    2    3 2   
     6    2    4 1   
     7    4    5 2   
     8    4    8 1   
     9    5    6 1   
    10    6    7 2   
    11    6   33 1   
    12    7    8 1   
    13    7    9 1   
    14    9   10 ar  
    15    9   14 ar  
    16   10   11 ar  
    17   11   12 ar  
    18   11   15 1   
    19   12   13 ar  
    20   12   34 1   
    21   13   14 ar  
    22   13   35 1   
    23   14   36 1   
    24   15   16 1   
    25   15   17 1   
    26   18   19 1   
    27   18   37 1   
    28   18   38 1   
    29   19   20 ar  
    30   19   24 ar  
    31   20   21 ar  
    32   20   39 1   
    33   21   22 ar  
    34   21   40 1   
    35   22   23 ar  
    36   22   25 1   
    37   23   24 ar  
    38   23   41 1   
    39   24   42 1   
    40   25   26 ar  
    41   25   30 ar  
    42   26   27 ar  
    43   26   43 1   
    44   27   28 ar  
    45   27   44 1   
    46   28   29 ar  
    47   28   45 1   
    48   29   30 ar  
    49   29   46 1   
    50   30   47 1   
@<TRIPOS>SUBSTRUCTURE
     1 F27         1 TEMP              0 ****  ****    0 ROOT
