@<TRIPOS>MOLECULE
F27
   47    50     1     0     0
SMALL
bcc


@<TRIPOS>ATOM
      1 C12        -0.9260    0.8880   -0.0840 c3        1 F27     -0.166400
      2 C13         0.4270    1.5380   -0.0630 c         1 F27      0.514600
      3 O14         0.6010    2.7600   -0.0600 o         1 F27     -0.518100
      4 C15         1.5520    0.5910   -0.0460 cc        1 F27      0.353900
      5 N16         1.5710   -0.7510   -0.0410 nd        1 F27     -0.633000
      6 C17         2.9090   -1.1180   -0.0230 cd        1 F27      0.230900
      7 C18         3.7060    0.0360   -0.0180 cc        1 F27      0.183400
      8 O19         2.8510    1.1380   -0.0330 os        1 F27     -0.341800
      9 C20         5.1380    0.2630   -0.0010 ca        1 F27      0.318300
     10 N21         5.9360   -0.8480    0.0150 nb        1 F27     -0.638000
     11 C22         7.2630   -0.6550    0.0310 ca        1 F27      0.384800
     12 C23         7.8480    0.6420    0.0310 ca        1 F27     -0.208300
     13 C24         7.0250    1.7580    0.0140 ca        1 F27     -0.126000
     14 C25         5.6370    1.5780   -0.0020 ca        1 F27     -0.238300
     15 C26         8.2350   -1.8660    0.0500 c         1 F27      0.827100
     16 O27         8.5880   -2.2790    1.1810 o         1 F27     -0.800300
     17 O28         8.6180   -2.2900   -1.0670 o         1 F27     -0.800300
     18 C29        -2.0440    1.9120   -0.0770 c3        1 F27     -0.037100
     19 C30        -3.3830    1.2630   -0.0550 ca        1 F27     -0.068300
     20 C31        -4.2150    1.3080   -1.1780 ca        1 F27     -0.127000
     21 C32        -5.4730    0.7120   -1.1500 ca        1 F27     -0.116000
     22 C33        -5.9250    0.0590    0.0050 cp        1 F27     -0.047000
     23 C34        -5.0900    0.0150    1.1310 ca        1 F27     -0.116000
     24 C35        -3.8330    0.6100    1.0990 ca        1 F27     -0.127000
     25 C36        -7.2460   -0.5660    0.0360 cp        1 F27     -0.029000
     26 C37        -7.7220   -1.2760   -1.0760 ca        1 F27     -0.119500
     27 C38        -8.9810   -1.8730   -1.0440 ca        1 F27     -0.132000
     28 C39        -9.7790   -1.7660    0.0950 ca        1 F27     -0.132000
     29 C40        -9.3130   -1.0610    1.2040 ca        1 F27     -0.132000
     30 C41        -8.0540   -0.4650    1.1780 ca        1 F27     -0.119500
     31 H12        -0.9960    0.2400   -0.9990 hc        1 F27      0.085700
     32 H12A       -1.0140    0.2110    0.8090 hc        1 F27      0.085700
     33 H17         3.2350   -2.1600   -0.0150 h4        1 F27      0.075100
     34 H23         8.9430    0.7280    0.0440 ha        1 F27      0.148000
     35 H24         7.4460    2.7730    0.0140 ha        1 F27      0.118000
     36 H25         4.9500    2.4340   -0.0160 ha        1 F27      0.137000
     37 H29        -1.9320    2.5740    0.8250 hc        1 F27      0.061200
     38 H29A       -1.9430    2.5740   -0.9790 hc        1 F27      0.061200
     39 H31        -3.8750    1.8200   -2.0910 ha        1 F27      0.135000
     40 H32        -6.1200    0.7580   -2.0390 ha        1 F27      0.132500
     41 H34        -5.4290   -0.5020    2.0410 ha        1 F27      0.132500
     42 H35        -3.1830    0.5660    1.9870 ha        1 F27      0.135000
     43 H37        -7.0920   -1.3690   -1.9730 ha        1 F27      0.135500
     44 H38        -9.3440   -2.4310   -1.9190 ha        1 F27      0.129000
     45 H39       -10.7720   -2.2370    0.1180 ha        1 F27      0.128000
     46 H40        -9.9400   -0.9740    2.1040 ha        1 F27      0.129000
     47 H41        -7.6910    0.0940    2.0530 ha        1 F27      0.135500
@<TRIPOS>BOND
     1    1    2 1   
     2    1   18 1   
     3    1   31 1   
     4    1   32 1   
     5    2    3 2   
     6    2    4 1   
     7    4    5 2   
     8    4    8 1   
     9    5    6 1   
    10    6    7 2   
    11    6   33 1   
    12    7    8 1   
    13    7    9 1   
    14    9   10 ar  
    15    9   14 ar  
    16   10   11 ar  
    17   11   12 ar  
    18   11   15 1   
    19   12   13 ar  
    20   12   34 1   
    21   13   14 ar  
    22   13   35 1   
    23   14   36 1   
    24   15   16 1   
    25   15   17 1   
    26   18   19 1   
    27   18   37 1   
    28   18   38 1   
    29   19   20 ar  
    30   19   24 ar  
    31   20   21 ar  
    32   20   39 1   
    33   21   22 ar  
    34   21   40 1   
    35   22   23 ar  
    36   22   25 1   
    37   23   24 ar  
    38   23   41 1   
    39   24   42 1   
    40   25   26 ar  
    41   25   30 ar  
    42   26   27 ar  
    43   26   43 1   
    44   27   28 ar  
    45   27   44 1   
    46   28   29 ar  
    47   28   45 1   
    48   29   30 ar  
    49   29   46 1   
    50   30   47 1   
@<TRIPOS>SUBSTRUCTURE
     1 F27         1 TEMP              0 ****  ****    0 ROOT
