@<TRIPOS>MOLECULE
F27
   47    40     1     0     0
SMALL
bcc


@<TRIPOS>ATOM
      1 C12         0.4870    0.8500    0.1490 c3        1 F27     -0.195000
      2 C13         1.9940    0.7420    0.2610 c2        1 F27      0.315000
      3 O14         2.5900    1.4010    1.0900 o         1 F27     -0.279000
      4 C15         2.7610   -0.1570   -0.6840 c2        1 F27     -0.128000
      5 N16         2.3590   -0.5380   -1.9240 n2        1 F27     -0.107000
      6 C17         3.3150   -1.3240   -2.4470 c1        1 F27     -0.169000
      7 C18         4.3240   -1.4360   -1.5250 c2        1 F27      0.054000
      8 O19         3.9780   -0.7170   -0.4440 os        1 F27     -0.083000
      9 C20         5.5000   -2.1570   -1.6840 c1        1 F27     -0.010000
     10 N21         5.5200   -3.4930   -1.4180 n1        1 F27     -0.112000
     11 C22         6.6590   -4.2130   -1.6270 c1        1 F27     -0.033000
     12 C23         7.7970   -3.5860   -2.1090 c1        1 F27     -0.143000
     13 C24         7.7780   -2.2480   -2.3760 c2        1 F27     -0.126000
     14 C25         6.6370   -1.5280   -2.1660 c1        1 F27     -0.173000
     15 C26         6.6930   -5.6870   -1.2890 c2        1 F27      0.386000
     16 O27         6.3820   -6.5400   -2.1600 o         1 F27     -0.535000
     17 O28         7.0800   -6.0630   -0.1520 o         1 F27     -0.535000
     18 C29        -0.0430    1.7060    1.2810 c3        1 F27     -0.123000
     19 C30        -1.5560    1.7180    1.2380 c2        1 F27     -0.061000
     20 C31        -2.2750    0.7310    1.8940 c2        1 F27     -0.127000
     21 C32        -3.6600    0.7860    1.9240 c1        1 F27     -0.115000
     22 C33        -4.3260    1.8280    1.2990 c1        1 F27     -0.048000
     23 C34        -3.6070    2.8160    0.6430 c1        1 F27     -0.117000
     24 C35        -2.2220    2.7610    0.6120 c2        1 F27     -0.128000
     25 C36        -5.7110    1.8560    1.2860 c1        1 F27     -0.030000
     26 C37        -6.4070    1.2150    0.2730 c1        1 F27     -0.125000
     27 C38        -7.7930    1.2040    0.2840 c1        1 F27     -0.125000
     28 C39        -8.4830    1.8330    1.3090 c1        1 F27     -0.133000
     29 C40        -7.7870    2.4740    2.3220 c1        1 F27     -0.133000
     30 C41        -6.4010    2.4860    2.3100 c2        1 F27     -0.121000
     31 H12         0.0920   -0.0430    0.2030 hc        1 F27      0.124500
     32 H12A        0.2520    1.2600   -0.7070 hc        1 F27      0.124500
     33 H17         3.2950   -1.7430   -3.3300 DU        1 F27      0.155000
     34 H23         8.6180   -4.0980   -2.2390 DU        1 F27      0.155000
     35 H24         8.5920   -1.7970   -2.6740 ha        1 F27      0.118000
     36 H25         6.6260   -0.5680   -2.3430 ha        1 F27      0.137000
     37 H29         0.2560    1.3370    2.1370 hc        1 F27      0.101000
     38 H29A        0.2930    2.6190    1.1840 hc        1 F27      0.101000
     39 H31        -1.8060   -0.0020    2.3340 ha        1 F27      0.136000
     40 H32        -4.1650    0.0910    2.3860 ha        1 F27      0.133000
     41 H34        -4.0760    3.5420    0.1920 DU        1 F27      0.155000
     42 H35        -1.7150    3.4740    0.1810 ha        1 F27      0.134000
     43 H37        -5.9210    0.7890   -0.4600 ha        1 F27      0.134000
     44 H38        -8.2830    0.7530   -0.4290 ha        1 F27      0.134000
     45 H39        -9.4600    1.8110    1.3260 ha        1 F27      0.128000
     46 H40        -8.2730    2.9180    3.0440 DU        1 F27      0.155000
     47 H41        -5.9100    2.9370    3.0240 ha        1 F27      0.134000
@<TRIPOS>BOND
     1    1    2 1   
     2    1   18 1   
     3    1   31 1   
     4    1   32 1   
     5    2    3 1   
     6    2    4 1   
     7    4    5 1   
     8    4    8 1   
     9    5    6 1   
    10    6    7 1   
    11    7    8 1   
    12    7    9 1   
    13    9   10 1   
    14   11   12 1   
    15   11   15 1   
    16   12   13 1   
    17   13   14 1   
    18   13   35 1   
    19   14   36 1   
    20   15   16 1   
    21   15   17 1   
    22   18   19 1   
    23   18   37 1   
    24   18   38 1   
    25   19   20 1   
    26   19   24 1   
    27   20   21 1   
    28   20   39 1   
    29   21   40 1   
    30   22   23 1   
    31   23   24 1   
    32   24   42 1   
    33   25   30 1   
    34   26   27 1   
    35   26   43 1   
    36   27   44 1   
    37   28   29 1   
    38   28   45 1   
    39   29   30 1   
    40   30   47 1   
@<TRIPOS>SUBSTRUCTURE
     1 F27         1 TEMP              0 ****  ****    0 ROOT
