@<TRIPOS>MOLECULE
F29
   45    49     1     0     0
SMALL
bcc


@<TRIPOS>ATOM
      1 C1          0.0850   -0.1170   -0.0660 cc        1 F29     -0.179000
      2 C2          1.4600   -0.0670   -0.0330 cd        1 F29     -0.039300
      3 N3          2.1220   -0.0370    1.1880 na        1 F29      0.204000
      4 C4          1.3710   -0.0660    2.4050 cd        1 F29     -0.033300
      5 C5         -0.0500   -0.1110    2.3530 cd        1 F29     -0.119000
      6 C6         -0.6770   -0.1360    1.1360 cc        1 F29     -0.106000
      7 N7          3.4440    0.0170    1.4090 nd        1 F29     -0.566100
      8 C8          3.6140    0.0280    2.7730 cc        1 F29      0.463200
      9 C9          2.3340   -0.0260    3.4460 cc        1 F29     -0.341400
     10 C10         2.0570   -0.0040    4.8630 ca        1 F29      0.392100
     11 C11         4.9300    0.0650    3.3960 ca        1 F29     -0.095900
     12 C12         5.2230   -0.7860    4.4710 ca        1 F29     -0.096000
     13 C13         6.4850   -0.7570    5.0610 ca        1 F29     -0.135500
     14 C14         7.4610    0.1190    4.5860 ca        1 F29     -0.120000
     15 C15         7.1740    0.9660    3.5160 ca        1 F29     -0.135500
     16 C16         5.9150    0.9410    2.9180 ca        1 F29     -0.096000
     17 C22         1.0900   -0.8730    5.4030 ca        1 F29     -0.126300
     18 C23         0.8680   -0.7830    6.7740 ca        1 F29     -0.308200
     19 C24         1.6360    0.2000    7.5170 ca        1 F29      0.350800
     20 N25         2.5760    1.0190    6.8970 nb        1 F29     -0.288000
     21 N26         2.7560    0.9050    5.6620 nb        1 F29     -0.262000
     22 C27         0.0160   -1.4070    7.7910 cc        1 F29      0.534800
     23 N28         0.2770   -0.8390    9.0120 nd        1 F29     -0.557100
     24 N29         1.1770    0.1560    8.8470 na        1 F29      0.025200
     25 N30        -0.9740   -2.3490    7.5110 nh        1 F29     -0.843800
     26 C3          1.8760    0.7740    9.9640 c3        1 F29      0.089500
     27 C7          2.8610   -0.1170   10.6550 c2        1 F29     -0.204200
     28 C17         4.1450    0.1990   10.7900 c2        1 F29     -0.189000
     29 H1         -0.4300   -0.1400   -1.0360 ha        1 F29      0.154000
     30 H2          2.0920   -0.0460   -0.9390 h4        1 F29      0.180000
     31 H5         -0.6010   -0.1140    3.3050 ha        1 F29      0.157000
     32 H6         -1.7750   -0.1670    1.0660 ha        1 F29      0.145000
     33 H12         4.4520   -1.4750    4.8470 ha        1 F29      0.138500
     34 H13         6.7090   -1.4260    5.9040 ha        1 F29      0.131000
     35 H14         8.4550    0.1420    5.0560 ha        1 F29      0.130000
     36 H15         7.9410    1.6590    3.1410 ha        1 F29      0.131000
     37 H16         5.6920    1.6100    2.0740 ha        1 F29      0.138500
     38 H22         0.5430   -1.5820    4.7670 ha        1 F29      0.152000
     39 H301       -1.3600   -2.7910    8.3200 hn        1 F29      0.395300
     40 H302       -0.6740   -3.0060    6.8220 hn        1 F29      0.395300
     41 H31         2.3840    1.6950    9.5570 h1        1 F29      0.081200
     42 H32         1.0960    1.0950   10.7160 h1        1 F29      0.081200
     43 H7          2.4430   -1.0480   11.0720 ha        1 F29      0.136000
     44 H171        4.5840    1.1150   10.3710 ha        1 F29      0.118500
     45 H172        4.8490   -0.4440   11.3360 ha        1 F29      0.118500
@<TRIPOS>BOND
     1    1    2 2   
     2    1    6 1   
     3    1   29 1   
     4    2    3 1   
     5    2   30 1   
     6    3    4 1   
     7    3    7 1   
     8    4    5 1   
     9    4    9 2   
    10    5    6 2   
    11    5   31 1   
    12    6   32 1   
    13    7    8 2   
    14    8    9 1   
    15    8   11 1   
    16    9   10 1   
    17   10   17 ar  
    18   10   21 ar  
    19   11   12 ar  
    20   11   16 ar  
    21   12   13 ar  
    22   12   33 1   
    23   13   14 ar  
    24   13   34 1   
    25   14   15 ar  
    26   14   35 1   
    27   15   16 ar  
    28   15   36 1   
    29   16   37 1   
    30   17   18 ar  
    31   17   38 1   
    32   18   19 ar  
    33   18   22 1   
    34   19   20 ar  
    35   19   24 1   
    36   20   21 ar  
    37   22   23 2   
    38   22   25 1   
    39   23   24 1   
    40   24   26 1   
    41   25   39 1   
    42   25   40 1   
    43   26   27 1   
    44   26   41 1   
    45   26   42 1   
    46   27   28 2   
    47   27   43 1   
    48   28   44 1   
    49   28   45 1   
@<TRIPOS>SUBSTRUCTURE
     1 F29         1 TEMP              0 ****  ****    0 ROOT
