@<TRIPOS>MOLECULE
F29
   45    33     1     0     0
SMALL
bcc


@<TRIPOS>ATOM
      1 C1         -2.4300    0.1150   -5.3290 c1        1 F29     -0.131167
      2 C2         -1.0420    0.1300   -5.2700 c1        1 F29     -0.025000
      3 N3         -0.4000    0.1470   -4.0460 n1        1 F29     -0.025000
      4 C4         -1.1260    0.1470   -2.9030 c1        1 F29     -0.071000
      5 C5         -2.5370    0.1320   -2.9650 c1        1 F29     -0.075500
      6 C6         -3.1660    0.1160   -4.1740 c1        1 F29     -0.131167
      7 N7          0.9540    0.1660   -3.6990 n1        1 F29     -0.095000
      8 C8          1.0390    0.1790   -2.3390 c2        1 F29     -0.021000
      9 C9         -0.2420    0.1680   -1.8320 c1        1 F29     -0.145000
     10 C10        -0.5580    0.1650   -0.4470 c1        1 F29     -0.039000
     11 C11         2.4000    0.2170   -2.0480 c1        1 F29     -0.028000
     12 C12         3.0920   -0.9640   -1.8210 c1        1 F29     -0.131167
     13 C13         4.4420   -0.9320   -1.5580 c1        1 F29     -0.131167
     14 C14         5.1050    0.2630   -1.5190 c1        1 F29     -0.131167
     15 C15         4.4080    1.4590   -1.7470 c1        1 F29     -0.131167
     16 C16         3.0660    1.4270   -2.0090 c1        1 F29     -0.103000
     17 C22        -0.7360    1.1390    0.5240 c1        1 F29     -0.075500
     18 C23        -1.0350    0.7720    1.8240 c1        1 F29     -0.071000
     19 C24        -1.1530   -0.5470    2.1470 c1        1 F29     -0.043000
     20 N25        -0.9740   -1.5180    1.1740 n1        1 F29     -0.029000
     21 N26        -0.6770   -1.1530   -0.1200 n1        1 F29     -0.030000
     22 C27        -1.2570    1.5120    2.9710 c1        1 F29      0.022000
     23 N28        -1.5060    0.6570    3.9760 n2        1 F29     -0.098000
     24 N29        -1.4430   -0.6290    3.4700 n1        1 F29     -0.110000
     25 N30        -1.2920    2.8820    3.3190 n2        1 F29     -0.285000
     26 C3         -1.7300   -1.7060    4.3300 c2        1 F29      0.021000
     27 C7         -1.0460   -1.4930    5.6480 c2        1 F29     -0.199000
     28 C17        -0.8800   -2.5430    6.5050 c1        1 F29     -0.192000
     29 H1         -2.8690    0.1060   -6.1700 ha        1 F29      0.141000
     30 H2         -0.5090    0.1290   -6.1140 ha        1 F29      0.178000
     31 H5         -3.0570    0.1330   -2.1510 ha        1 F29      0.168500
     32 H6         -4.1360    0.1040   -4.2170 ha        1 F29      0.141000
     33 H12         2.6200   -1.8200   -1.8480 ha        1 F29      0.141000
     34 H13         4.9160   -1.7440   -1.4030 ha        1 F29      0.141000
     35 H14         6.0660    0.2830   -1.3310 ha        1 F29      0.141000
     36 H15         4.8860    2.3240   -1.7190 ha        1 F29      0.141000
     37 H16         2.6000    2.2230   -2.1620 ha        1 F29      0.144000
     38 H22        -0.6950    2.1070    0.2730 ha        1 F29      0.168500
     39 H301       -1.1040    3.4920    2.7140 hn        1 F29      0.194500
     40 H302       -1.5880    3.1400    4.1630 hn        1 F29      0.194500
     41 H31        -2.6520   -1.7590    4.4640 ha        1 F29      0.118500
     42 H32        -1.3940   -2.5790    3.9080 ha        1 F29      0.118500
     43 H7         -0.7120   -0.5800    5.9000 ha        1 F29      0.138000
     44 H171       -1.2180   -3.4620    6.2500 DU        1 F29      0.118000
     45 H172       -0.4270   -2.4050    7.3800 ha        1 F29      0.117000
@<TRIPOS>BOND
     1    1    6 1   
     2    1   29 1   
     3    2    3 1   
     4    2   30 1   
     5    4    5 1   
     6    5   31 1   
     7    6   32 1   
     8    7    8 1   
     9    8    9 1   
    10    8   11 1   
    11    9   10 1   
    12   10   21 1   
    13   11   16 1   
    14   12   13 1   
    15   12   33 1   
    16   13   34 1   
    17   14   15 1   
    18   14   35 1   
    19   15   36 1   
    20   16   37 1   
    21   17   18 1   
    22   17   38 1   
    23   19   20 1   
    24   22   23 1   
    25   23   24 1   
    26   25   39 1   
    27   25   40 1   
    28   26   27 1   
    29   26   41 1   
    30   26   42 1   
    31   27   28 1   
    32   27   43 1   
    33   28   45 1   
@<TRIPOS>SUBSTRUCTURE
     1 F29         1 TEMP              0 ****  ****    0 ROOT
