@<TRIPOS>MOLECULE
F29
   45    49     1     0     0
SMALL
bcc


@<TRIPOS>ATOM
      1 C1          0.0880   -0.1240   -0.0670 cc        1 F29     -0.179000
      2 C2          1.4630   -0.0720   -0.0340 cd        1 F29     -0.039300
      3 N3          2.1240   -0.0410    1.1880 na        1 F29      0.204000
      4 C4          1.3720   -0.0700    2.4050 cd        1 F29     -0.033300
      5 C5         -0.0480   -0.1160    2.3520 cd        1 F29     -0.119000
      6 C6         -0.6750   -0.1420    1.1350 cc        1 F29     -0.106000
      7 N7          3.4460    0.0150    1.4100 nd        1 F29     -0.566100
      8 C8          3.6150    0.0280    2.7740 cc        1 F29      0.463200
      9 C9          2.3350   -0.0280    3.4460 cc        1 F29     -0.341400
     10 C10         2.0570   -0.0050    4.8620 ca        1 F29      0.392100
     11 C11         4.9310    0.0670    3.3980 ca        1 F29     -0.095900
     12 C12         5.2240   -0.7830    4.4730 ca        1 F29     -0.096000
     13 C13         6.4860   -0.7510    5.0640 ca        1 F29     -0.135500
     14 C14         7.4610    0.1260    4.5880 ca        1 F29     -0.120000
     15 C15         7.1730    0.9710    3.5180 ca        1 F29     -0.135500
     16 C16         5.9150    0.9430    2.9190 ca        1 F29     -0.096000
     17 C22         1.0910   -0.8750    5.4020 ca        1 F29     -0.126300
     18 C23         0.8680   -0.7840    6.7740 ca        1 F29     -0.308200
     19 C24         1.6340    0.2000    7.5160 ca        1 F29      0.350800
     20 N25         2.5740    1.0200    6.8960 nb        1 F29     -0.288000
     21 N26         2.7550    0.9060    5.6620 nb        1 F29     -0.262000
     22 C27         0.0160   -1.4080    7.7910 cc        1 F29      0.534800
     23 N28         0.2750   -0.8400    9.0110 nd        1 F29     -0.558100
     24 N29         1.1740    0.1560    8.8460 na        1 F29      0.025200
     25 N30        -0.9730   -2.3520    7.5110 nv        1 F29     -0.843800
     26 C3          1.8730    0.7750    9.9640 c3        1 F29      0.089500
     27 C7          2.8570   -0.1140   10.6550 c2        1 F29     -0.204200
     28 C17         4.1420    0.2030   10.7910 c2        1 F29     -0.189000
     29 H1         -0.4270   -0.1480   -1.0380 ha        1 F29      0.154000
     30 H2          2.0950   -0.0510   -0.9390 h4        1 F29      0.180000
     31 H5         -0.6000   -0.1200    3.3030 ha        1 F29      0.157000
     32 H6         -1.7720   -0.1750    1.0630 ha        1 F29      0.145000
     33 H12         4.4540   -1.4720    4.8500 ha        1 F29      0.138500
     34 H13         6.7100   -1.4190    5.9080 ha        1 F29      0.131000
     35 H14         8.4550    0.1510    5.0590 ha        1 F29      0.130000
     36 H15         7.9400    1.6650    3.1430 ha        1 F29      0.131000
     37 H16         5.6920    1.6120    2.0740 ha        1 F29      0.138500
     38 H22         0.5450   -1.5850    4.7670 ha        1 F29      0.152000
     39 H301       -0.6720   -3.0090    6.8220 hn        1 F29      0.395300
     40 H302       -1.3590   -2.7940    8.3190 hn        1 F29      0.395300
     41 H31         2.3800    1.6970    9.5560 h1        1 F29      0.081200
     42 H32         1.0920    1.0960   10.7150 h1        1 F29      0.081200
     43 H7          2.4410   -1.0460   11.0720 ha        1 F29      0.136000
     44 H171        4.5800    1.1200   10.3720 ha        1 F29      0.118500
     45 H172        4.8460   -0.4390   11.3370 ha        1 F29      0.118500
@<TRIPOS>BOND
     1    1    2 2   
     2    1    6 1   
     3    1   29 1   
     4    2    3 1   
     5    2   30 1   
     6    3    4 1   
     7    3    7 1   
     8    4    5 1   
     9    4    9 2   
    10    5    6 2   
    11    5   31 1   
    12    6   32 1   
    13    7    8 2   
    14    8    9 1   
    15    8   11 1   
    16    9   10 1   
    17   10   17 ar  
    18   10   21 ar  
    19   11   12 ar  
    20   11   16 ar  
    21   12   13 ar  
    22   12   33 1   
    23   13   14 ar  
    24   13   34 1   
    25   14   15 ar  
    26   14   35 1   
    27   15   16 ar  
    28   15   36 1   
    29   16   37 1   
    30   17   18 ar  
    31   17   38 1   
    32   18   19 ar  
    33   18   22 1   
    34   19   20 ar  
    35   19   24 1   
    36   20   21 ar  
    37   22   23 2   
    38   22   25 1   
    39   23   24 1   
    40   24   26 1   
    41   25   39 1   
    42   25   40 1   
    43   26   27 1   
    44   26   41 1   
    45   26   42 1   
    46   27   28 2   
    47   27   43 1   
    48   28   44 1   
    49   28   45 1   
@<TRIPOS>SUBSTRUCTURE
     1 F29         1 TEMP              0 ****  ****    0 ROOT
