@<TRIPOS>MOLECULE
F29
   46    50     1     0     0
SMALL
bcc


@<TRIPOS>ATOM
      1 C1          0.1340   -0.2940   -0.1270 cc        1 F29     -0.179000
      2 C2          1.5080   -0.1850   -0.0640 cd        1 F29     -0.015300
      3 N3          2.1380   -0.1280    1.1690 na        1 F29      0.210000
      4 C4          1.3700   -0.1910    2.3710 cd        1 F29      0.003700
      5 C5         -0.0440   -0.2860    2.2900 cd        1 F29     -0.154000
      6 C6         -0.6470   -0.3360    1.0570 cc        1 F29     -0.070000
      7 N7          3.4590   -0.0060    1.4130 nd        1 F29     -0.545100
      8 C8          3.6090    0.0230    2.7700 cc        1 F29      0.505200
      9 C9          2.3180   -0.0970    3.4300 cc        1 F29     -0.418400
     10 C10         2.0530   -0.0730    4.8370 ca        1 F29      0.518100
     11 C11         4.9130    0.1290    3.4140 ca        1 F29     -0.118900
     12 C12         5.3290   -0.8500    4.3260 ca        1 F29     -0.096000
     13 C13         6.5820   -0.7510    4.9280 ca        1 F29     -0.130000
     14 C14         7.4220    0.3220    4.6260 ca        1 F29     -0.108000
     15 C15         7.0110    1.2950    3.7150 ca        1 F29     -0.130000
     16 C16         5.7610    1.2000    3.1040 ca        1 F29     -0.096000
     17 C22         1.0090   -0.8330    5.3940 ca        1 F29     -0.225300
     18 C23         0.8330   -0.7400    6.7790 ca        1 F29     -0.216200
     19 C24         1.7320    0.1290    7.5130 ca        1 F29      0.292800
     20 N25         2.7490    0.8460    6.8800 nb        1 F29     -0.222000
     21 N26         2.8810    0.7370    5.6480 nb        1 F29     -0.252000
     22 C27        -0.0160   -1.2760    7.8180 cc        1 F29      0.255800
     23 N28         0.3480   -0.7650    9.0560 nd        1 F29     -0.432100
     24 N29         1.3510    0.0630    8.8770 na        1 F29      0.107200
     25 N30        -1.0980   -2.2120    7.6280 n4        1 F29     -0.717600
     26 C3          2.0580    0.7530    9.9720 c3        1 F29      0.083500
     27 C7          2.9220   -0.1580   10.7790 c2        1 F29     -0.236200
     28 C17         4.2500   -0.0740   10.7750 c2        1 F29     -0.138000
     29 H1         -0.3580   -0.3390   -1.1100 ha        1 F29      0.171000
     30 H2          2.1590   -0.1360   -0.9580 h4        1 F29      0.198000
     31 H5         -0.6220   -0.2910    3.2230 ha        1 F29      0.140000
     32 H6         -1.7430   -0.4040    0.9680 ha        1 F29      0.153000
     33 H12         4.6730   -1.7010    4.5560 ha        1 F29      0.136500
     34 H13         6.9120   -1.5250    5.6360 ha        1 F29      0.139500
     35 H14         8.4120    0.3960    5.1010 ha        1 F29      0.140000
     36 H15         7.6750    2.1390    3.4730 ha        1 F29      0.139500
     37 H16         5.4420    1.9640    2.3780 ha        1 F29      0.136500
     38 H22         0.3830   -1.4760    4.7630 ha        1 F29      0.153000
     39 H301       -1.9980   -1.7520    7.8140 hn        1 F29      0.468133
     40 H302       -1.0690   -2.5370    6.6550 hn        1 F29      0.468133
     41 H31         1.2770    1.2210   10.6410 h1        1 F29      0.102200
     42 H32         2.6630    1.5730    9.4860 h1        1 F29      0.102200
     43 H7          2.3850   -0.8820   11.4120 ha        1 F29      0.143000
     44 H171        4.8080    0.6400   10.1500 ha        1 F29      0.134500
     45 H172        4.8740   -0.7150   11.4160 ha        1 F29      0.134500
     46 H303       -0.9920   -3.0140    8.2630 hn        1 F29      0.468133
@<TRIPOS>BOND
     1    1    2 2   
     2    1    6 1   
     3    1   29 1   
     4    2    3 1   
     5    2   30 1   
     6    3    4 1   
     7    3    7 1   
     8    4    5 1   
     9    4    9 2   
    10    5    6 2   
    11    5   31 1   
    12    6   32 1   
    13    7    8 2   
    14    8    9 1   
    15    8   11 1   
    16    9   10 1   
    17   10   17 ar  
    18   10   21 ar  
    19   11   12 ar  
    20   11   16 ar  
    21   12   13 ar  
    22   12   33 1   
    23   13   14 ar  
    24   13   34 1   
    25   14   15 ar  
    26   14   35 1   
    27   15   16 ar  
    28   15   36 1   
    29   16   37 1   
    30   17   18 ar  
    31   17   38 1   
    32   18   19 ar  
    33   18   22 1   
    34   19   20 ar  
    35   19   24 1   
    36   20   21 ar  
    37   22   23 2   
    38   22   25 1   
    39   23   24 1   
    40   24   26 1   
    41   25   39 1   
    42   25   40 1   
    43   25   46 1   
    44   26   27 1   
    45   26   41 1   
    46   26   42 1   
    47   27   28 2   
    48   27   43 1   
    49   28   44 1   
    50   28   45 1   
@<TRIPOS>SUBSTRUCTURE
     1 F29         1 TEMP              0 ****  ****    0 ROOT
