@<TRIPOS>MOLECULE
F29
   45    49     1     0     0
SMALL
bcc


@<TRIPOS>ATOM
      1 C1         -4.9850   -2.7360    0.2510 cc        1 F29     -0.179000
      2 C2         -5.0330   -1.3710    0.0810 cd        1 F29     -0.039300
      3 N3         -3.8550   -0.6370    0.0450 na        1 F29      0.204000
      4 C4         -2.5960   -1.3040    0.1780 cd        1 F29     -0.033300
      5 C5         -2.5640   -2.7140    0.3600 cd        1 F29     -0.119000
      6 C6         -3.7410   -3.4140    0.3950 cc        1 F29     -0.106000
      7 N7         -3.7120    0.6890   -0.1060 nd        1 F29     -0.566100
      8 C8         -2.3620    0.9450   -0.0770 cc        1 F29      0.463200
      9 C9         -1.6150   -0.2830    0.0980 cc        1 F29     -0.341400
     10 C10        -0.1870   -0.4620    0.2110 ca        1 F29      0.392100
     11 C11        -1.8170    2.2870   -0.2300 ca        1 F29     -0.095900
     12 C12        -0.7260    2.5100   -1.0800 ca        1 F29     -0.096000
     13 C13        -0.2110    3.7950   -1.2340 ca        1 F29     -0.135500
     14 C14        -0.7780    4.8650   -0.5420 ca        1 F29     -0.120000
     15 C15        -1.8660    4.6480    0.3040 ca        1 F29     -0.135500
     16 C16        -2.3890    3.3650    0.4600 ca        1 F29     -0.096000
     17 C22         0.4450   -1.5180   -0.4720 ca        1 F29     -0.126300
     18 C23         1.8210   -1.6350   -0.3020 ca        1 F29     -0.308200
     19 C24         2.4760   -0.6760    0.5690 ca        1 F29      0.350800
     20 N25         1.7680    0.3410    1.2060 nb        1 F29     -0.288000
     21 N26         0.5310    0.4220    1.0230 nb        1 F29     -0.262000
     22 C27         2.9120   -2.5090   -0.7470 cc        1 F29      0.534800
     23 N28         4.0900   -2.0850   -0.1880 nd        1 F29     -0.557100
     24 N29         3.8300   -1.0510    0.6440 na        1 F29      0.025200
     25 N30         2.7300   -3.6510   -1.5260 nh        1 F29     -0.843800
     26 C3          4.8790   -0.1930    1.1780 c3        1 F29      0.089500
     27 C7          5.5490    0.6800    0.1640 c2        1 F29     -0.204200
     28 C17         5.5970    2.0050    0.2740 c2        1 F29     -0.189000
     29 H1         -5.9220   -3.3090    0.2780 ha        1 F29      0.154000
     30 H2         -5.9730   -0.8030   -0.0300 h4        1 F29      0.180000
     31 H5         -1.5830   -3.1970    0.4760 ha        1 F29      0.157000
     32 H6         -3.7470   -4.5050    0.5380 ha        1 F29      0.145000
     33 H12        -0.2760    1.6650   -1.6230 ha        1 F29      0.138500
     34 H13         0.6470    3.9640   -1.9010 ha        1 F29      0.131000
     35 H14        -0.3680    5.8780   -0.6620 ha        1 F29      0.130000
     36 H15        -2.3140    5.4900    0.8520 ha        1 F29      0.131000
     37 H16        -3.2470    3.1980    1.1280 ha        1 F29      0.138500
     38 H22        -0.1270   -2.2090   -1.1050 ha        1 F29      0.152000
     39 H301        3.5780   -4.0500   -1.8730 hn        1 F29      0.395300
     40 H302        2.0530   -3.5040   -2.2460 hn        1 F29      0.395300
     41 H31         4.4040    0.4280    1.9920 h1        1 F29      0.081200
     42 H32         5.6600   -0.8620    1.6460 h1        1 F29      0.081200
     43 H7          6.0290    0.1480   -0.6730 ha        1 F29      0.136000
     44 H171        5.1140    2.5560    1.0930 ha        1 F29      0.118500
     45 H172        6.1280    2.6310   -0.4550 ha        1 F29      0.118500
@<TRIPOS>BOND
     1    1    2 2   
     2    1    6 1   
     3    1   29 1   
     4    2    3 1   
     5    2   30 1   
     6    3    4 1   
     7    3    7 1   
     8    4    5 1   
     9    4    9 2   
    10    5    6 2   
    11    5   31 1   
    12    6   32 1   
    13    7    8 2   
    14    8    9 1   
    15    8   11 1   
    16    9   10 1   
    17   10   17 ar  
    18   10   21 ar  
    19   11   12 ar  
    20   11   16 ar  
    21   12   13 ar  
    22   12   33 1   
    23   13   14 ar  
    24   13   34 1   
    25   14   15 ar  
    26   14   35 1   
    27   15   16 ar  
    28   15   36 1   
    29   16   37 1   
    30   17   18 ar  
    31   17   38 1   
    32   18   19 ar  
    33   18   22 1   
    34   19   20 ar  
    35   19   24 1   
    36   20   21 ar  
    37   22   23 2   
    38   22   25 1   
    39   23   24 1   
    40   24   26 1   
    41   25   39 1   
    42   25   40 1   
    43   26   27 1   
    44   26   41 1   
    45   26   42 1   
    46   27   28 2   
    47   27   43 1   
    48   28   44 1   
    49   28   45 1   
@<TRIPOS>SUBSTRUCTURE
     1 F29         1 TEMP              0 ****  ****    0 ROOT
