@<TRIPOS>MOLECULE
F2A
   44    46     1     0     0
SMALL
bcc


@<TRIPOS>ATOM
      1 PA          0.0000    0.0000    0.0000 p5        1 F2A      0.608600
      2 O1A         1.6090    0.0000    0.0000 o         1 F2A     -0.650500
      3 O2A        -0.4940    0.0000    1.3940 o         1 F2A     -0.650500
      4 C3A        -0.6070    1.4890   -0.8590 c3        1 F2A      0.007200
      5 O5'        -0.5370   -1.3140   -0.7600 os        1 F2A     -0.500200
      6 PB          0.0010    2.9770    0.0000 p5        1 F2A      0.724600
      7 O1B         1.4810    2.9770    0.0010 o         1 F2A     -0.596000
      8 O2B        -0.5360    2.9770    1.5180 o         1 F2A     -0.596000
      9 O3B        -0.5350    4.2920   -0.7580 os        1 F2A     -0.493800
     10 PG         -0.3620    5.8740   -0.5130 p5        1 F2A      0.825900
     11 O1G        -0.4350    6.1590    0.9370 o         1 F2A     -0.638167
     12 O2G         1.0660    6.3520   -1.0830 o         1 F2A     -0.638167
     13 O3G        -1.5370    6.6670   -1.2760 o         1 F2A     -0.638167
     14 C5'        -0.3190   -2.6390   -0.2710 c3        1 F2A      0.301400
     15 C4'        -0.9580   -3.6470   -1.2270 c3        1 F2A      0.153100
     16 O4'        -0.2470   -3.6750   -2.4850 os        1 F2A     -0.358600
     17 C1'        -0.5480   -4.9350   -3.1080 c3        1 F2A      0.163800
     18 N9          0.6180   -5.4090   -3.8610 na        1 F2A      0.192000
     19 C4          0.6000   -6.2810   -4.9200 ca        1 F2A      0.265800
     20 N3         -0.3480   -6.9410   -5.5760 nb        1 F2A     -0.783000
     21 C2         -0.0400   -7.7300   -6.5840 ca        1 F2A      0.492900
     22 N1          1.2030   -7.9090   -6.9910 nb        1 F2A     -0.661000
     23 C6          2.2170   -7.2910   -6.3940 ca        1 F2A      0.308200
     24 N6          3.5170   -7.4850   -6.8290 nv        1 F2A     -0.606500
     25 C5          1.9400   -6.4370   -5.3140 ca        1 F2A     -0.175200
     26 N7          2.6910   -5.6660   -4.4920 nc        1 F2A     -0.548100
     27 C8          1.9170   -5.0580   -3.6410 cd        1 F2A      0.142700
     28 C2'        -0.8860   -5.9340   -1.9840 c3        1 F2A     -0.115400
     29 C3'        -0.7990   -5.0910   -0.6860 c3        1 F2A      0.144100
     30 O3'        -1.8610   -5.4250    0.2110 oh        1 F2A     -0.581800
     31 H3A        -0.2460    1.4890   -1.8810 hc        1 F2A      0.007200
     32 H3AA       -1.6900    1.4900   -0.8590 hc        1 F2A      0.007200
     33 H5'         0.7450   -2.8290   -0.2040 h1        1 F2A     -0.017300
     34 H5'A       -0.7660   -2.7390    0.7110 h1        1 F2A     -0.017300
     35 H4'        -2.0040   -3.4170   -1.3900 h1        1 F2A      0.022700
     36 H1'        -1.3990   -4.8240   -3.7680 h2        1 F2A      0.028700
     37 H2         -0.8370   -8.2530   -7.0990 h5        1 F2A     -0.050900
     38 HN6         3.8980   -6.8980   -7.5450 hn        1 F2A      0.222300
     39 HN6A        4.0660   -8.2300   -6.4480 hn        1 F2A      0.222300
     40 H8          2.2540   -4.3740   -2.8720 h5        1 F2A      0.044800
     41 H2'        -0.1590   -6.7370   -1.9620 hc        1 F2A      0.023200
     42 H2'A       -1.8880   -6.3230   -2.1140 hc        1 F2A      0.023200
     43 H3'         0.1670   -5.2180   -0.2120 h1        1 F2A      0.016700
     44 HO3'       -1.5420   -6.0210    0.8680 ho        1 F2A      0.366000
@<TRIPOS>BOND
     1    1    2 1   
     2    1    3 1   
     3    1    4 1   
     4    1    5 1   
     5    4    6 1   
     6    4   31 1   
     7    4   32 1   
     8    5   14 1   
     9    6    7 1   
    10    6    8 1   
    11    6    9 1   
    12    9   10 1   
    13   10   11 1   
    14   10   12 1   
    15   10   13 1   
    16   14   15 1   
    17   14   33 1   
    18   14   34 1   
    19   15   16 1   
    20   15   29 1   
    21   15   35 1   
    22   16   17 1   
    23   17   18 1   
    24   17   28 1   
    25   17   36 1   
    26   18   19 1   
    27   18   27 1   
    28   19   20 ar  
    29   19   25 ar  
    30   20   21 ar  
    31   21   22 ar  
    32   21   37 1   
    33   22   23 ar  
    34   23   24 1   
    35   23   25 ar  
    36   24   38 1   
    37   24   39 1   
    38   25   26 1   
    39   26   27 2   
    40   27   40 1   
    41   28   29 1   
    42   28   41 1   
    43   28   42 1   
    44   29   30 1   
    45   29   43 1   
    46   30   44 1   
@<TRIPOS>SUBSTRUCTURE
     1 F2A         1 TEMP              0 ****  ****    0 ROOT
