@<TRIPOS>MOLECULE
F2B
   36    37     1     0     0
SMALL
bcc


@<TRIPOS>ATOM
      1 C01        -0.2450    0.5610    0.3830 ca        1 F2B     -0.095500
      2 C02         1.0020   -0.0330    0.1970 ca        1 F2B      0.013000
      3 C03         1.9270   -0.1280    1.2520 ca        1 F2B     -0.459500
      4 C04         1.5620    0.3950    2.5070 ca        1 F2B      0.013000
      5 C05         0.3150    0.9840    2.7090 ca        1 F2B     -0.095500
      6 C06        -0.5910    1.0620    1.6450 ca        1 F2B     -0.078600
      7 C07        -1.9110    1.7240    1.7870 c         1 F2B      0.541700
      8 O08        -2.3940    2.5380    1.0160 o         1 F2B     -0.361100
      9 N09        -2.7390    1.3470    2.9830 n4        1 F2B     -0.680800
     10 C10        -3.8400    0.3810    2.6090 c3        1 F2B      0.189100
     11 S11         3.3380   -0.9490    1.0630 sy        1 F2B      1.462200
     12 NP2         4.4380    0.4650    0.4740 n4        1 F2B     -0.801500
     13 O13         3.3430   -1.7560   -0.0490 o         1 F2B     -0.533800
     14 O14         3.9390   -1.2590    2.2600 o         1 F2B     -0.533800
     15 C15        -4.6070   -0.0530    3.8080 ca        1 F2B     -0.204300
     16 C16        -5.9790    0.1840    3.8980 ca        1 F2B     -0.072000
     17 C17        -6.7080   -0.3140    4.9810 ca        1 F2B     -0.093000
     18 C18        -6.0850   -1.0420    5.9880 ca        1 F2B     -0.087000
     19 C19        -4.6960   -1.2840    5.9260 ca        1 F2B      0.139900
     20 C20        -3.9540   -0.7830    4.8290 ca        1 F2B      0.068900
     21 F21        -4.0730   -1.9800    6.8960 f         1 F2B     -0.088900
     22 F22        -2.6160   -0.9940    4.7510 f         1 F2B     -0.149900
     23 H01C       -0.9500    0.6380   -0.4660 ha        1 F2B      0.186500
     24 H02C        1.2510   -0.4550   -0.7990 ha        1 F2B      0.195500
     25 H04C        2.2640    0.3180    3.3630 ha        1 F2B      0.195500
     26 H05C        0.0770    1.3950    3.7050 ha        1 F2B      0.186500
     27 H09N       -3.1730    2.1950    3.3780 hn        1 F2B      0.473800
     28 H101       -3.3480   -0.5120    2.1230 hx        1 F2B      0.119200
     29 H102       -4.5070    0.8990    1.8590 hx        1 F2B      0.119200
     30 HNP1        4.8290    0.2530   -0.4490 hn        1 F2B      0.471800
     31 HNP2        5.2290    0.5930    1.1110 hn        1 F2B      0.471800
     32 H16C       -6.4990    0.7510    3.1080 ha        1 F2B      0.163000
     33 H17C       -7.7960   -0.1290    5.0360 ha        1 F2B      0.184000
     34 H18C       -6.6600   -1.4400    6.8430 ha        1 F2B      0.195000
     35 H092       -2.1520    0.9110    3.7080 hn        1 F2B      0.473800
     36 HP23        3.9610    1.3610    0.4000 hn        1 F2B      0.471800
@<TRIPOS>BOND
     1    1    2 ar  
     2    1    6 ar  
     3    1   23 1   
     4    2    3 ar  
     5    2   24 1   
     6    3    4 ar  
     7    3   11 1   
     8    4    5 ar  
     9    4   25 1   
    10    5    6 ar  
    11    5   26 1   
    12    6    7 1   
    13    7    8 2   
    14    7    9 1   
    15    9   10 1   
    16    9   27 1   
    17    9   35 1   
    18   10   15 1   
    19   10   28 1   
    20   10   29 1   
    21   11   12 1   
    22   11   13 2   
    23   11   14 2   
    24   12   30 1   
    25   12   31 1   
    26   12   36 1   
    27   15   16 ar  
    28   15   20 ar  
    29   16   17 ar  
    30   16   32 1   
    31   17   18 ar  
    32   17   33 1   
    33   18   19 ar  
    34   18   34 1   
    35   19   20 ar  
    36   19   21 1   
    37   20   22 1   
@<TRIPOS>SUBSTRUCTURE
     1 F2B         1 TEMP              0 ****  ****    0 ROOT
