@<TRIPOS>MOLECULE
F2B
   36    37     1     0     0
SMALL
bcc


@<TRIPOS>ATOM
      1 C01        -0.2470    0.5240    0.3750 ca        1 F2B     -0.095500
      2 C02         1.0090   -0.0570    0.2060 ca        1 F2B      0.013000
      3 C03         1.9320   -0.1140    1.2660 ca        1 F2B     -0.459500
      4 C04         1.5560    0.4330    2.5070 ca        1 F2B      0.013000
      5 C05         0.3000    1.0100    2.6920 ca        1 F2B     -0.095500
      6 C06        -0.6040    1.0500    1.6240 ca        1 F2B     -0.078600
      7 C07        -1.9320    1.6960    1.7470 c         1 F2B      0.541700
      8 O08        -2.4250    2.4850    0.9560 o         1 F2B     -0.361100
      9 N09        -2.7580    1.3380    2.9500 n4        1 F2B     -0.680800
     10 C10        -3.8410    0.3430    2.5980 c3        1 F2B      0.189100
     11 S11         3.3540   -0.9200    1.1000 sy        1 F2B      1.462200
     12 NP2         4.4360    0.4960    0.4800 n4        1 F2B     -0.801500
     13 O13         3.3740   -1.7520    0.0060 o         1 F2B     -0.533800
     14 O14         3.9560   -1.1940    2.3050 o         1 F2B     -0.533800
     15 C15        -4.6040   -0.0730    3.8060 ca        1 F2B     -0.204300
     16 C16        -5.9800    0.1420    3.8870 ca        1 F2B     -0.072000
     17 C17        -6.7040   -0.3400    4.9810 ca        1 F2B     -0.093000
     18 C18        -6.0710   -1.0300    6.0080 ca        1 F2B     -0.087000
     19 C19        -4.6780   -1.2490    5.9560 ca        1 F2B      0.139900
     20 C20        -3.9420   -0.7650    4.8480 ca        1 F2B      0.068900
     21 F21        -4.0460   -1.9080    6.9460 f         1 F2B     -0.088900
     22 F22        -2.5990   -0.9540    4.7790 f         1 F2B     -0.149900
     23 H01C       -0.9510    0.5720   -0.4770 ha        1 F2B      0.186500
     24 H02C        1.2660   -0.4980   -0.7790 ha        1 F2B      0.195500
     25 H04C        2.2570    0.3860    3.3660 ha        1 F2B      0.195500
     26 H05C        0.0540    1.4410    3.6770 ha        1 F2B      0.186500
     27 H09N       -3.2090    2.1880    3.3210 hn        1 F2B      0.473300
     28 H101       -3.3320   -0.5540    2.1380 hx        1 F2B      0.119200
     29 H102       -4.5150    0.8290    1.8330 hx        1 F2B      0.119200
     30 HNP1        5.2250    0.6480    1.1170 hn        1 F2B      0.471800
     31 HNP2        3.9480    1.3830    0.3860 hn        1 F2B      0.471800
     32 H16C       -6.5070    0.6780    3.0810 ha        1 F2B      0.163000
     33 H17C       -7.7950   -0.1730    5.0280 ha        1 F2B      0.184000
     34 H18C       -6.6420   -1.4160    6.8710 ha        1 F2B      0.195000
     35 H092       -2.1670    0.9310    3.6880 hn        1 F2B      0.473300
     36 HP23        4.8330    0.2680   -0.4360 hn        1 F2B      0.471800
@<TRIPOS>BOND
     1    1    2 ar  
     2    1    6 ar  
     3    1   23 1   
     4    2    3 ar  
     5    2   24 1   
     6    3    4 ar  
     7    3   11 1   
     8    4    5 ar  
     9    4   25 1   
    10    5    6 ar  
    11    5   26 1   
    12    6    7 1   
    13    7    8 2   
    14    7    9 1   
    15    9   10 1   
    16    9   27 1   
    17    9   35 1   
    18   10   15 1   
    19   10   28 1   
    20   10   29 1   
    21   11   12 1   
    22   11   13 2   
    23   11   14 2   
    24   12   30 1   
    25   12   31 1   
    26   12   36 1   
    27   15   16 ar  
    28   15   20 ar  
    29   16   17 ar  
    30   16   32 1   
    31   17   18 ar  
    32   17   33 1   
    33   18   19 ar  
    34   18   34 1   
    35   19   20 ar  
    36   19   21 1   
    37   20   22 1   
@<TRIPOS>SUBSTRUCTURE
     1 F2B         1 TEMP              0 ****  ****    0 ROOT
