@<TRIPOS>MOLECULE
F2B
   36    37     1     0     0
SMALL
bcc


@<TRIPOS>ATOM
      1 C01        -0.2440    0.5420    0.3790 ca        1 F2B     -0.095500
      2 C02         1.0060   -0.0500    0.2020 ca        1 F2B      0.013000
      3 C03         1.9290   -0.1310    1.2600 ca        1 F2B     -0.459500
      4 C04         1.5590    0.4030    2.5090 ca        1 F2B      0.013000
      5 C05         0.3100    0.9910    2.7020 ca        1 F2B     -0.095500
      6 C06        -0.5940    1.0550    1.6360 ca        1 F2B     -0.078600
      7 C07        -1.9160    1.7140    1.7680 c         1 F2B      0.541700
      8 O08        -2.4010    2.5180    0.9880 o         1 F2B     -0.361100
      9 N09        -2.7450    1.3480    2.9670 ny        1 F2B     -0.680800
     10 C10        -3.8400    0.3710    2.6020 c3        1 F2B      0.189100
     11 S11         3.3420   -0.9490    1.0820 sy        1 F2B      1.462200
     12 NP2         4.4390    0.4630    0.4810 nz        1 F2B     -0.801500
     13 O13         3.3530   -1.7670   -0.0220 o         1 F2B     -0.533800
     14 O14         3.9420   -1.2460    2.2830 o         1 F2B     -0.533800
     15 C15        -4.6060   -0.0530    3.8050 ca        1 F2B     -0.204300
     16 C16        -5.9790    0.1770    3.8900 ca        1 F2B     -0.072000
     17 C17        -6.7090   -0.3120    4.9780 ca        1 F2B     -0.093000
     18 C18        -6.0830   -1.0240    5.9940 ca        1 F2B     -0.087000
     19 C19        -4.6930   -1.2580    5.9380 ca        1 F2B      0.139900
     20 C20        -3.9520   -0.7670    4.8360 ca        1 F2B      0.068900
     21 F21        -4.0670   -1.9390    6.9180 f         1 F2B     -0.088900
     22 F22        -2.6110   -0.9710    4.7630 f         1 F2B     -0.149900
     23 H01C       -0.9480    0.6090   -0.4720 ha        1 F2B      0.186500
     24 H02C        1.2580   -0.4810   -0.7890 ha        1 F2B      0.195500
     25 H04C        2.2600    0.3380    3.3660 ha        1 F2B      0.195500
     26 H05C        0.0690    1.4120    3.6930 ha        1 F2B      0.186500
     27 H09N       -3.1860    2.1980    3.3500 hn        1 F2B      0.473300
     28 H101       -3.3420   -0.5250    2.1280 hx        1 F2B      0.119200
     29 H102       -4.5080    0.8750    1.8440 hx        1 F2B      0.119200
     30 HNP1        5.2290    0.5990    1.1190 hn        1 F2B      0.471800
     31 HNP2        3.9600    1.3560    0.3980 hn        1 F2B      0.471800
     32 H16C       -6.5020    0.7310    3.0920 ha        1 F2B      0.163000
     33 H17C       -7.7980   -0.1330    5.0290 ha        1 F2B      0.184000
     34 H18C       -6.6570   -1.4150    6.8530 ha        1 F2B      0.195000
     35 H092       -2.1570    0.9240    3.6980 hn        1 F2B      0.473300
     36 HP23        4.8330    0.2430   -0.4380 hn        1 F2B      0.471800
@<TRIPOS>BOND
     1    1    2 ar  
     2    1    6 ar  
     3    1   23 1   
     4    2    3 ar  
     5    2   24 1   
     6    3    4 ar  
     7    3   11 1   
     8    4    5 ar  
     9    4   25 1   
    10    5    6 ar  
    11    5   26 1   
    12    6    7 1   
    13    7    8 2   
    14    7    9 1   
    15    9   10 1   
    16    9   27 1   
    17    9   35 1   
    18   10   15 1   
    19   10   28 1   
    20   10   29 1   
    21   11   12 1   
    22   11   13 2   
    23   11   14 2   
    24   12   30 1   
    25   12   31 1   
    26   12   36 1   
    27   15   16 ar  
    28   15   20 ar  
    29   16   17 ar  
    30   16   32 1   
    31   17   18 ar  
    32   17   33 1   
    33   18   19 ar  
    34   18   34 1   
    35   19   20 ar  
    36   19   21 1   
    37   20   22 1   
@<TRIPOS>SUBSTRUCTURE
     1 F2B         1 TEMP              0 ****  ****    0 ROOT
