@<TRIPOS>MOLECULE
F2B
   34    35     1     0     0
SMALL
bcc


@<TRIPOS>ATOM
      1 C01        -1.9310   -0.0700    1.9840 ca        1 F2B     -0.120500
      2 C02        -1.3890   -0.0480    3.2670 ca        1 F2B     -0.026500
      3 C03        -0.0040   -0.0550    3.4620 ca        1 F2B     -0.360500
      4 C04         0.8330   -0.0750    2.3410 ca        1 F2B     -0.026500
      5 C05         0.3050   -0.0910    1.0520 ca        1 F2B     -0.120500
      6 C06        -1.0820   -0.0890    0.8730 ca        1 F2B     -0.079600
      7 C07        -1.6960   -0.1350   -0.4890 c         1 F2B      0.663700
      8 O08        -2.6820   -0.8590   -0.7310 o         1 F2B     -0.594100
      9 N09        -1.1630    0.7090   -1.4460 n         1 F2B     -0.557900
     10 C10        -1.5940    0.6780   -2.8160 c3        1 F2B      0.134300
     11 S11         0.6490   -0.0090    5.0280 sy        1 F2B      1.525200
     12 NP2         0.7600   -1.5570    5.4180 n3        1 F2B     -1.026700
     13 O13        -0.2860    0.6190    5.8750 o         1 F2B     -0.654300
     14 O14         1.9440    0.5450    4.9460 o         1 F2B     -0.654300
     15 C15        -0.6510   -0.0250   -3.7540 ca        1 F2B     -0.125300
     16 C16        -1.0900   -1.1170   -4.5050 ca        1 F2B     -0.103000
     17 C17        -0.2370   -1.7500   -5.4090 ca        1 F2B     -0.117000
     18 C18         1.0710   -1.3100   -5.5770 ca        1 F2B     -0.139000
     19 C19         1.5410   -0.2170   -4.8290 ca        1 F2B      0.095900
     20 C20         0.6740    0.4300   -3.9080 ca        1 F2B      0.088900
     21 F21         2.8120    0.2200   -4.9790 f         1 F2B     -0.124900
     22 F22         1.1310    1.4820   -3.1880 f         1 F2B     -0.132900
     23 H01C       -3.0230   -0.0810    1.8340 ha        1 F2B      0.153500
     24 H02C       -2.0600   -0.0080    4.1440 ha        1 F2B      0.158000
     25 H04C        1.9280   -0.0570    2.4830 ha        1 F2B      0.158000
     26 H05C        0.9850   -0.1180    0.1870 ha        1 F2B      0.153500
     27 H09N       -0.3140    1.1870   -1.2510 hn        1 F2B      0.320500
     28 H101       -2.6100    0.1890   -2.8660 h1        1 F2B      0.079700
     29 H102       -1.6930    1.7480   -3.1680 h1        1 F2B      0.079700
     30 HNP1        1.5630   -2.1080    5.2490 hn        1 F2B      0.449800
     31 HNP2        0.0420   -2.0600    5.8760 hn        1 F2B      0.449800
     32 H16C       -2.1210   -1.4820   -4.3760 ha        1 F2B      0.153000
     33 H17C       -0.6010   -2.6080   -5.9940 ha        1 F2B      0.147000
     34 H18C        1.7490   -1.8050   -6.2880 ha        1 F2B      0.157000
@<TRIPOS>BOND
     1    1    2 ar  
     2    1    6 ar  
     3    1   23 1   
     4    2    3 ar  
     5    2   24 1   
     6    3    4 ar  
     7    3   11 1   
     8    4    5 ar  
     9    4   25 1   
    10    5    6 ar  
    11    5   26 1   
    12    6    7 1   
    13    7    8 2   
    14    7    9 1   
    15    9   10 1   
    16    9   27 1   
    17   10   15 1   
    18   10   28 1   
    19   10   29 1   
    20   11   12 1   
    21   11   13 2   
    22   11   14 2   
    23   12   30 1   
    24   12   31 1   
    25   15   16 ar  
    26   15   20 ar  
    27   16   17 ar  
    28   16   32 1   
    29   17   18 ar  
    30   17   33 1   
    31   18   19 ar  
    32   18   34 1   
    33   19   20 ar  
    34   19   21 1   
    35   20   22 1   
@<TRIPOS>SUBSTRUCTURE
     1 F2B         1 TEMP              0 ****  ****    0 ROOT
