@<TRIPOS>MOLECULE
F2B
   34    29     1     0     0
SMALL
bcc


@<TRIPOS>ATOM
      1 C01         0.8540   -1.0150    0.2030 c1        1 F2B     -0.134000
      2 C02         2.2360   -1.0820    0.2760 c1        1 F2B     -0.026000
      3 C03         2.8650   -1.1130    1.5110 c1        1 F2B     -0.805000
      4 C04         2.1110   -1.0780    2.6730 c1        1 F2B     -0.067000
      5 C05         0.7280   -1.0110    2.6010 c1        1 F2B     -0.067000
      6 C06         0.0990   -0.9790    1.3660 c1        1 F2B     -0.059000
      7 C07        -1.4030   -0.8260    1.2870 c2        1 F2B      0.335000
      8 O08        -2.0640   -0.7950    2.3050 o         1 F2B     -0.352000
      9 N09        -2.0320   -0.6470    0.0280 n         1 F2B     -0.367000
     10 C10        -3.0730    0.3100   -0.1170 c3        1 F2B      0.010000
     11 S11         4.6350   -1.1530    1.6030 s4        1 F2B      2.079800
     12 NP2         5.1520   -2.6710    1.9570 n2        1 F2B     -0.954000
     13 O13         5.2320   -0.6680    0.3900 o         1 F2B     -0.541900
     14 O14         5.1290   -0.1980    2.5570 o         1 F2B     -0.541900
     15 C15        -2.7990    1.1740   -1.3280 c2        1 F2B     -0.119000
     16 C16        -1.4930    1.4190   -1.7230 c2        1 F2B     -0.102000
     17 C17        -1.2380    2.2660   -2.7900 c1        1 F2B     -0.116000
     18 C18        -2.2900    2.8680   -3.4630 c1        1 F2B     -0.139000
     19 C19        -3.5950    2.6240   -3.0680 c1        1 F2B      0.062000
     20 C20        -3.8500    1.7770   -2.0010 c1        1 F2B      0.052000
     21 F21        -4.6120    3.1910   -3.7300 f         1 F2B     -0.090000
     22 F22        -5.1130    1.5200   -1.6360 f         1 F2B     -0.100000
     23 H01C        0.4110   -0.9920   -0.6670 ha        1 F2B      0.145000
     24 H02C        2.7670   -1.1060   -0.5430 ha        1 F2B      0.158000
     25 H04C        2.5540   -1.1000    3.5430 ha        1 F2B      0.161000
     26 H05C        0.1970   -0.9860    3.4200 ha        1 F2B      0.161000
     27 H09N       -1.7810   -1.1590   -0.6840 hn        1 F2B      0.231000
     28 H101       -3.9280   -0.1530   -0.2330 h1        1 F2B      0.118500
     29 H102       -3.1130    0.8730    0.6840 h1        1 F2B      0.118500
     30 HNP1        5.4910   -3.2040    1.2960 hn        1 F2B      0.244500
     31 HNP2        5.1030   -2.9820    2.8150 hn        1 F2B      0.244500
     32 H16C       -0.7520    0.9940   -1.2490 ha        1 F2B      0.153000
     33 H17C       -0.3180    2.4380   -3.0680 ha        1 F2B      0.147000
     34 H18C       -2.1100    3.4650   -4.2150 ha        1 F2B      0.157000
@<TRIPOS>BOND
     1    1    6 1   
     2    1   23 1   
     3    2    3 1   
     4    2   24 1   
     5    3   11 1   
     6    4    5 1   
     7    4   25 1   
     8    5   26 1   
     9    6    7 1   
    10    7    8 1   
    11    7    9 1   
    12    9   10 1   
    13    9   27 1   
    14   10   15 1   
    15   10   28 1   
    16   10   29 1   
    17   11   13 1   
    18   11   14 1   
    19   12   30 1   
    20   12   31 1   
    21   15   16 1   
    22   15   20 1   
    23   16   17 1   
    24   16   32 1   
    25   17   33 1   
    26   18   19 1   
    27   18   34 1   
    28   19   21 1   
    29   20   22 1   
@<TRIPOS>SUBSTRUCTURE
     1 F2B         1 TEMP              0 ****  ****    0 ROOT
