@<TRIPOS>MOLECULE
F2C
   49    44     1     0     0
SMALL
bcc


@<TRIPOS>ATOM
      1 C1         -7.8560   -2.4390    2.3590 c1        1 F2C     -0.130000
      2 C2         -7.0110   -1.7310    1.5180 c2        1 F2C     -0.128000
      3 C3         -6.3500   -0.6060    1.9860 c1        1 F2C     -0.065000
      4 C4         -6.5340   -0.1890    3.2950 c1        1 F2C     -0.128000
      5 C5         -7.3790   -0.8970    4.1360 c1        1 F2C     -0.129000
      6 C6         -8.0400   -2.0220    3.6680 c2        1 F2C     -0.137000
      7 C7         -5.5190    0.2320    1.0340 c3        1 F2C     -0.125000
      8 C8         -4.0530   -0.0960    1.2220 c3        1 F2C     -0.154000
      9 C9         -3.2650    0.4150    0.0310 c3        1 F2C     -0.159000
     10 C10        -1.8620    0.7760    0.4710 c3        1 F2C     -0.156000
     11 C11        -0.8790    0.4070   -0.6200 c3        1 F2C     -0.156000
     12 C12         0.4560    1.0720   -0.3450 c3        1 F2C     -0.198000
     13 C13         1.5740    0.0770   -0.5790 c2        1 F2C      0.314000
     14 O14         1.4430   -1.0770   -0.2240 o         1 F2C     -0.257000
     15 C15         2.8500    0.5180   -1.2680 c2        1 F2C     -0.119000
     16 N16         2.9270    1.2330   -2.4210 n2        1 F2C     -0.117000
     17 C17         4.2250    1.3520   -2.7500 c1        1 F2C     -0.217000
     18 C18         4.9660    0.7050   -1.7940 c2        1 F2C      0.060000
     19 O19         4.1170    0.1960   -0.8860 os        1 F2C     -0.033000
     20 C20         6.3460    0.5730   -1.7830 c1        1 F2C     -0.004000
     21 N21         6.9380   -0.4470   -2.4670 n1        1 F2C     -0.091000
     22 C22         8.2940   -0.5760   -2.4610 c1        1 F2C     -0.032000
     23 C23         9.0730    0.3300   -1.7600 c1        1 F2C     -0.146000
     24 C24         8.4820    1.3510   -1.0740 c1        1 F2C     -0.124000
     25 C25         7.1240    1.4790   -1.0810 c2        1 F2C     -0.189000
     26 C26         8.9510   -1.6780   -3.2600 c2        1 F2C      0.388000
     27 O27         9.2380   -1.4910   -4.4710 o         1 F2C     -0.534000
     28 O28         9.2680   -2.7580   -2.6970 o         1 F2C     -0.534000
     29 H1         -8.3220   -3.2320    2.0300 DU        1 F2C      0.139250
     30 H2         -6.8890   -2.0210    0.5940 ha        1 F2C      0.131000
     31 H4         -6.0690    0.6020    3.6250 ha        1 F2C      0.133000
     32 H5         -7.5350   -0.5840    5.0480 DU        1 F2C      0.139250
     33 H6         -8.6350   -2.5210    4.2610 ha        1 F2C      0.127000
     34 H7         -5.6680    1.1810    1.2210 hc        1 F2C      0.088000
     35 H7A        -5.7820    0.0360    0.1130 hc        1 F2C      0.088000
     36 H8         -3.7240    0.3330    2.0380 hc        1 F2C      0.082500
     37 H8A        -3.9420   -1.0640    1.2950 hc        1 F2C      0.082500
     38 H9         -3.2220   -0.2810   -0.6550 hc        1 F2C      0.081000
     39 H9A        -3.7060    1.2080   -0.3370 hc        1 F2C      0.081000
     40 H10        -1.8120    1.7380    0.6430 hc        1 F2C      0.078500
     41 H10A       -1.6410    0.2870    1.2880 hc        1 F2C      0.078500
     42 H11        -0.7620   -0.5640   -0.6380 hc        1 F2C      0.093500
     43 H11A       -1.2230    0.7090   -1.4850 hc        1 F2C      0.093500
     44 H12         0.5690    1.8360   -0.9450 hc        1 F2C      0.118000
     45 H12A        0.4820    1.3800    0.5840 hc        1 F2C      0.118000
     46 H17         4.5790    1.8160   -3.5320 DU        1 F2C      0.139250
     47 H23        10.0450    0.2370   -1.7560 ha        1 F2C      0.149000
     48 H24         9.0300    1.9890   -0.5800 DU        1 F2C      0.139250
     49 H25         6.7000    2.2090   -0.5910 ha        1 F2C      0.121000
@<TRIPOS>BOND
     1    1    2 1   
     2    1    6 1   
     3    2    3 1   
     4    2   30 1   
     5    3    7 1   
     6    4    5 1   
     7    4   31 1   
     8    5    6 1   
     9    6   33 1   
    10    7    8 1   
    11    7   34 1   
    12    7   35 1   
    13    8    9 1   
    14    8   36 1   
    15    8   37 1   
    16    9   10 1   
    17    9   38 1   
    18    9   39 1   
    19   10   11 1   
    20   10   40 1   
    21   10   41 1   
    22   11   12 1   
    23   11   42 1   
    24   11   43 1   
    25   12   13 1   
    26   12   44 1   
    27   12   45 1   
    28   13   14 1   
    29   13   15 1   
    30   15   16 1   
    31   15   19 1   
    32   16   17 1   
    33   17   18 1   
    34   18   19 1   
    35   18   20 1   
    36   20   25 1   
    37   21   22 1   
    38   22   26 1   
    39   23   24 1   
    40   23   47 1   
    41   24   25 1   
    42   25   49 1   
    43   26   27 1   
    44   26   28 1   
@<TRIPOS>SUBSTRUCTURE
     1 F2C         1 TEMP              0 ****  ****    0 ROOT
