@<TRIPOS>MOLECULE
F2C
   49    51     1     0     0
SMALL
bcc


@<TRIPOS>ATOM
      1 C1         -0.0100   -0.4280    0.0720 ca        1 F2C     -0.129500
      2 C2          1.3830   -0.3800    0.0270 ca        1 F2C     -0.128000
      3 C3          2.1140   -0.0170    1.1630 ca        1 F2C     -0.073300
      4 C4          1.4300    0.2970    2.3450 ca        1 F2C     -0.128000
      5 C5          0.0390    0.2490    2.3870 ca        1 F2C     -0.129500
      6 C6         -0.6840   -0.1140    1.2510 ca        1 F2C     -0.136000
      7 C7          3.6010    0.0280    1.1250 c3        1 F2C     -0.039100
      8 C8          4.1230    1.4530    1.1420 c3        1 F2C     -0.076400
      9 C9          5.6370    1.4770    1.1400 c3        1 F2C     -0.079400
     10 C10         6.1630    2.8960    1.1570 c3        1 F2C     -0.078400
     11 C11         7.6760    2.9170    1.1570 c3        1 F2C     -0.076400
     12 C12         8.1990    4.3360    1.1770 c3        1 F2C     -0.169400
     13 C13         9.6990    4.3880    1.1780 c         1 F2C      0.515600
     14 O14        10.4230    3.3890    1.1620 o         1 F2C     -0.517100
     15 C15        10.2550    5.7500    1.2010 cc        1 F2C      0.355900
     16 N16         9.6460    6.9460    1.2200 nd        1 F2C     -0.636000
     17 C17        10.6590    7.8950    1.2360 cd        1 F2C      0.230900
     18 C18        11.9020    7.2450    1.2260 cc        1 F2C      0.181400
     19 O19        11.6580    5.8720    1.2040 os        1 F2C     -0.342800
     20 C20        13.2750    7.7120    1.2360 ca        1 F2C      0.319300
     21 N21        13.4640    9.0660    1.2590 nb        1 F2C     -0.638000
     22 C22        14.7290    9.5140    1.2680 ca        1 F2C      0.384800
     23 C23        15.8500    8.6380    1.2530 ca        1 F2C     -0.209300
     24 C24        15.6420    7.2680    1.2300 ca        1 F2C     -0.126000
     25 C25        14.3290    6.7800    1.2200 ca        1 F2C     -0.238300
     26 C26        15.0230   11.0370    1.2940 c         1 F2C      0.827100
     27 O27        15.1550   11.5990    0.1790 o         1 F2C     -0.800300
     28 O28        15.1530   11.5600    2.4280 o         1 F2C     -0.800300
     29 H1         -0.5770   -0.7140   -0.8270 ha        1 F2C      0.128000
     30 H2          1.9100   -0.6280   -0.9060 ha        1 F2C      0.131500
     31 H4          2.0000    0.5850    3.2410 ha        1 F2C      0.131500
     32 H5         -0.4900    0.4980    3.3190 ha        1 F2C      0.128000
     33 H6         -1.7820   -0.1510    1.2850 ha        1 F2C      0.127000
     34 H7          4.0110   -0.5260    2.0130 hc        1 F2C      0.047700
     35 H7A         3.9790   -0.4940    0.2060 hc        1 F2C      0.047700
     36 H8          3.7360    2.0060    0.2460 hc        1 F2C      0.044200
     37 H8A         3.7370    1.9820    2.0520 hc        1 F2C      0.044200
     38 H9          6.0210    0.9440    0.2300 hc        1 F2C      0.040700
     39 H9A         6.0240    0.9220    2.0350 hc        1 F2C      0.040700
     40 H10         5.7780    3.4510    0.2610 hc        1 F2C      0.040700
     41 H10A        5.7780    3.4290    2.0660 hc        1 F2C      0.040700
     42 H11         8.0670    2.3610    2.0500 hc        1 F2C      0.051700
     43 H11A        8.0670    2.3870    0.2480 hc        1 F2C      0.051700
     44 H12         7.8250    4.9010    0.2810 hc        1 F2C      0.080700
     45 H12A        7.8240    4.8750    2.0880 hc        1 F2C      0.080700
     46 H17        10.4630    8.9690    1.2530 h4        1 F2C      0.075100
     47 H23        16.8590    9.0720    1.2620 ha        1 F2C      0.147000
     48 H24        16.4870    6.5650    1.2180 ha        1 F2C      0.118000
     49 H25        14.1200    5.7030    1.2020 ha        1 F2C      0.137000
@<TRIPOS>BOND
     1    1    2 ar  
     2    1    6 ar  
     3    1   29 1   
     4    2    3 ar  
     5    2   30 1   
     6    3    4 ar  
     7    3    7 1   
     8    4    5 ar  
     9    4   31 1   
    10    5    6 ar  
    11    5   32 1   
    12    6   33 1   
    13    7    8 1   
    14    7   34 1   
    15    7   35 1   
    16    8    9 1   
    17    8   36 1   
    18    8   37 1   
    19    9   10 1   
    20    9   38 1   
    21    9   39 1   
    22   10   11 1   
    23   10   40 1   
    24   10   41 1   
    25   11   12 1   
    26   11   42 1   
    27   11   43 1   
    28   12   13 1   
    29   12   44 1   
    30   12   45 1   
    31   13   14 2   
    32   13   15 1   
    33   15   16 2   
    34   15   19 1   
    35   16   17 1   
    36   17   18 2   
    37   17   46 1   
    38   18   19 1   
    39   18   20 1   
    40   20   21 ar  
    41   20   25 ar  
    42   21   22 ar  
    43   22   23 ar  
    44   22   26 1   
    45   23   24 ar  
    46   23   47 1   
    47   24   25 ar  
    48   24   48 1   
    49   25   49 1   
    50   26   27 1   
    51   26   28 1   
@<TRIPOS>SUBSTRUCTURE
     1 F2C         1 TEMP              0 ****  ****    0 ROOT
