@<TRIPOS>MOLECULE
F2C
   49    51     1     0     0
SMALL
bcc


@<TRIPOS>ATOM
      1 C1          9.9180   -1.2180   -1.2870 ca        1 F2C     -0.129500
      2 C2          8.7570   -0.4530   -1.1940 ca        1 F2C     -0.128000
      3 C3          8.3850    0.1240    0.0270 ca        1 F2C     -0.073300
      4 C4          9.1930   -0.0760    1.1520 ca        1 F2C     -0.128000
      5 C5         10.3550   -0.8420    1.0570 ca        1 F2C     -0.129500
      6 C6         10.7190   -1.4140   -0.1620 ca        1 F2C     -0.136000
      7 C7          7.1480    0.9470    0.1190 c3        1 F2C     -0.039100
      8 C8          5.8960    0.0930    0.0500 c3        1 F2C     -0.076400
      9 C9          4.6500    0.9510    0.1080 c3        1 F2C     -0.079400
     10 C10         3.3980    0.1040    0.0390 c3        1 F2C     -0.078400
     11 C11         2.1540    0.9650    0.0950 c3        1 F2C     -0.076400
     12 C12         0.9040    0.1160    0.0220 c3        1 F2C     -0.169400
     13 C13        -0.3470    0.9440    0.0750 c         1 F2C      0.515600
     14 O14        -0.3560    2.1740    0.1690 o         1 F2C     -0.517100
     15 C15        -1.5910    0.1600    0.0040 cc        1 F2C      0.355900
     16 N16        -1.7910   -1.1630   -0.0990 nd        1 F2C     -0.636000
     17 C17        -3.1670   -1.3450   -0.1250 cd        1 F2C      0.230900
     18 C18        -3.8000   -0.0970   -0.0360 cc        1 F2C      0.181400
     19 O19        -2.8040    0.8760    0.0470 os        1 F2C     -0.342800
     20 C20        -5.1890    0.3200   -0.0180 ca        1 F2C      0.319300
     21 N21        -6.1300   -0.6690   -0.1030 nb        1 F2C     -0.638000
     22 C22        -7.4190   -0.2990   -0.0880 ca        1 F2C      0.384800
     23 C23        -7.8240    1.0620    0.0130 ca        1 F2C     -0.209300
     24 C24        -6.8580    2.0530    0.0990 ca        1 F2C     -0.126000
     25 C25        -5.5060    1.6870    0.0840 ca        1 F2C     -0.238300
     26 C26        -8.5440   -1.3640   -0.1810 c         1 F2C      0.827100
     27 O27        -8.9550   -1.6420   -1.3340 o         1 F2C     -0.800300
     28 O28        -8.9770   -1.8140    0.9080 o         1 F2C     -0.800300
     29 H1         10.2020   -1.6680   -2.2490 ha        1 F2C      0.128000
     30 H2          8.1250   -0.3000   -2.0810 ha        1 F2C      0.131500
     31 H4          8.9090    0.3710    2.1160 ha        1 F2C      0.131500
     32 H5         10.9830   -0.9950    1.9460 ha        1 F2C      0.128000
     33 H6         11.6350   -2.0180   -0.2350 ha        1 F2C      0.127000
     34 H7          7.1460    1.5320    1.0770 hc        1 F2C      0.047700
     35 H7A         7.1360    1.6910   -0.7230 hc        1 F2C      0.047700
     36 H8          5.9020   -0.5030   -0.9000 hc        1 F2C      0.044200
     37 H8A         5.8910   -0.6370    0.9010 hc        1 F2C      0.044200
     38 H9          4.6480    1.5490    1.0570 hc        1 F2C      0.040700
     39 H9A         4.6560    1.6830   -0.7430 hc        1 F2C      0.040700
     40 H10         3.4000   -0.4950   -0.9100 hc        1 F2C      0.040700
     41 H10A        3.3900   -0.6270    0.8900 hc        1 F2C      0.040700
     42 H11         2.1450    1.5640    1.0430 hc        1 F2C      0.051700
     43 H11A        2.1570    1.6990   -0.7530 hc        1 F2C      0.051700
     44 H12         0.8940   -0.4820   -0.9280 hc        1 F2C      0.080700
     45 H12A        0.8810   -0.6160    0.8740 hc        1 F2C      0.080700
     46 H17        -3.6310   -2.3300   -0.2050 h4        1 F2C      0.075100
     47 H23        -8.8970    1.2940    0.0200 ha        1 F2C      0.147000
     48 H24        -7.1370    3.1120    0.1770 ha        1 F2C      0.118000
     49 H25        -4.7100    2.4400    0.1500 ha        1 F2C      0.137000
@<TRIPOS>BOND
     1    1    2 ar  
     2    1    6 ar  
     3    1   29 1   
     4    2    3 ar  
     5    2   30 1   
     6    3    4 ar  
     7    3    7 1   
     8    4    5 ar  
     9    4   31 1   
    10    5    6 ar  
    11    5   32 1   
    12    6   33 1   
    13    7    8 1   
    14    7   34 1   
    15    7   35 1   
    16    8    9 1   
    17    8   36 1   
    18    8   37 1   
    19    9   10 1   
    20    9   38 1   
    21    9   39 1   
    22   10   11 1   
    23   10   40 1   
    24   10   41 1   
    25   11   12 1   
    26   11   42 1   
    27   11   43 1   
    28   12   13 1   
    29   12   44 1   
    30   12   45 1   
    31   13   14 2   
    32   13   15 1   
    33   15   16 2   
    34   15   19 1   
    35   16   17 1   
    36   17   18 2   
    37   17   46 1   
    38   18   19 1   
    39   18   20 1   
    40   20   21 ar  
    41   20   25 ar  
    42   21   22 ar  
    43   22   23 ar  
    44   22   26 1   
    45   23   24 ar  
    46   23   47 1   
    47   24   25 ar  
    48   24   48 1   
    49   25   49 1   
    50   26   27 1   
    51   26   28 1   
@<TRIPOS>SUBSTRUCTURE
     1 F2C         1 TEMP              0 ****  ****    0 ROOT
