@<TRIPOS>MOLECULE
F2C
   49    51     1     0     0
SMALL
bcc


@<TRIPOS>ATOM
      1 C1          0.0980    0.1650   -0.1030 ca        1 F2C     -0.129500
      2 C2          1.4860    0.2180    0.0020 ca        1 F2C     -0.128000
      3 C3          2.1130   -0.0150    1.2320 ca        1 F2C     -0.073300
      4 C4          1.3290   -0.3040    2.3550 ca        1 F2C     -0.128000
      5 C5         -0.0600   -0.3570    2.2480 ca        1 F2C     -0.129500
      6 C6         -0.6780   -0.1230    1.0200 ca        1 F2C     -0.136000
      7 C7          3.5970    0.0350    1.3370 c3        1 F2C     -0.039100
      8 C8          4.1210    1.4560    1.2510 c3        1 F2C     -0.076400
      9 C9          5.6330    1.4830    1.3230 c3        1 F2C     -0.079400
     10 C10         6.1610    2.8990    1.2370 c3        1 F2C     -0.078400
     11 C11         7.6720    2.9220    1.3080 c3        1 F2C     -0.076400
     12 C12         8.1980    4.3380    1.2200 c3        1 F2C     -0.169400
     13 C13         9.6960    4.3920    1.2860 c         1 F2C      0.515600
     14 O14        10.4170    3.3970    1.4020 o         1 F2C     -0.517100
     15 C15        10.2540    5.7510    1.2010 cc        1 F2C      0.355900
     16 N16         9.6490    6.9420    1.0760 nd        1 F2C     -0.636000
     17 C17        10.6640    7.8900    1.0450 cd        1 F2C      0.230900
     18 C18        11.9030    7.2430    1.1560 cc        1 F2C      0.181400
     19 O19        11.6570    5.8740    1.2560 os        1 F2C     -0.342800
     20 C20        13.2760    7.7110    1.1810 ca        1 F2C      0.319300
     21 N21        13.4680    9.0610    1.0780 nb        1 F2C     -0.638000
     22 C22        14.7320    9.5090    1.1000 ca        1 F2C      0.384800
     23 C23        15.8500    8.6380    1.2240 ca        1 F2C     -0.209300
     24 C24        15.6390    7.2720    1.3270 ca        1 F2C     -0.126000
     25 C25        14.3270    6.7840    1.3060 ca        1 F2C     -0.238300
     26 C26        15.0300   11.0280    0.9880 c         1 F2C      0.827100
     27 O27        15.2140   11.4770   -0.1700 o         1 F2C     -0.800300
     28 O28        15.1100   11.6620    2.0690 o         1 F2C     -0.800300
     29 H1         -0.3860    0.3510   -1.0730 ha        1 F2C      0.128000
     30 H2          2.0980    0.4470   -0.8840 ha        1 F2C      0.131500
     31 H4          1.8110   -0.4880    3.3260 ha        1 F2C      0.131500
     32 H5         -0.6690   -0.5840    3.1350 ha        1 F2C      0.128000
     33 H6         -1.7740   -0.1650    0.9370 ha        1 F2C      0.127000
     34 H7          3.9310   -0.4250    2.3050 hc        1 F2C      0.047700
     35 H7A         4.0470   -0.5770    0.5080 hc        1 F2C      0.047700
     36 H8          3.7790    1.9240    0.2900 hc        1 F2C      0.044200
     37 H8A         3.6920    2.0670    2.0880 hc        1 F2C      0.044200
     38 H9          6.0610    0.8710    0.4850 hc        1 F2C      0.040700
     39 H9A         5.9730    1.0120    2.2830 hc        1 F2C      0.040700
     40 H10         5.8200    3.3700    0.2780 hc        1 F2C      0.040700
     41 H10A        5.7340    3.5110    2.0760 hc        1 F2C      0.040700
     42 H11         8.0190    2.4530    2.2670 hc        1 F2C      0.051700
     43 H11A        8.1050    2.3100    0.4730 hc        1 F2C      0.051700
     44 H12         7.8670    4.8160    0.2580 hc        1 F2C      0.080700
     45 H12A        7.7820    4.9590    2.0580 hc        1 F2C      0.080700
     46 H17        10.4690    8.9600    0.9490 h4        1 F2C      0.075100
     47 H23        16.8590    9.0730    1.2350 ha        1 F2C      0.147000
     48 H24        16.4810    6.5730    1.4240 ha        1 F2C      0.118000
     49 H25        14.1160    5.7100    1.3850 ha        1 F2C      0.137000
@<TRIPOS>BOND
     1    1    2 ar  
     2    1    6 ar  
     3    1   29 1   
     4    2    3 ar  
     5    2   30 1   
     6    3    4 ar  
     7    3    7 1   
     8    4    5 ar  
     9    4   31 1   
    10    5    6 ar  
    11    5   32 1   
    12    6   33 1   
    13    7    8 1   
    14    7   34 1   
    15    7   35 1   
    16    8    9 1   
    17    8   36 1   
    18    8   37 1   
    19    9   10 1   
    20    9   38 1   
    21    9   39 1   
    22   10   11 1   
    23   10   40 1   
    24   10   41 1   
    25   11   12 1   
    26   11   42 1   
    27   11   43 1   
    28   12   13 1   
    29   12   44 1   
    30   12   45 1   
    31   13   14 2   
    32   13   15 1   
    33   15   16 2   
    34   15   19 1   
    35   16   17 1   
    36   17   18 2   
    37   17   46 1   
    38   18   19 1   
    39   18   20 1   
    40   20   21 ar  
    41   20   25 ar  
    42   21   22 ar  
    43   22   23 ar  
    44   22   26 1   
    45   23   24 ar  
    46   23   47 1   
    47   24   25 ar  
    48   24   48 1   
    49   25   49 1   
    50   26   27 1   
    51   26   28 1   
@<TRIPOS>SUBSTRUCTURE
     1 F2C         1 TEMP              0 ****  ****    0 ROOT
