@<TRIPOS>MOLECULE
F2F
   22    22     1     0     0
SMALL
bcc


@<TRIPOS>ATOM
      1 O          -4.4370   -0.7050    0.3240 o         1 F2F     -0.837800
      2 C          -3.5630    0.1860    0.1330 c         1 F2F      0.888600
      3 CA         -2.0690   -0.1770    0.4390 c3        1 F2F      0.020500
      4 N          -1.8510   -1.5630    0.8310 n3        1 F2F     -0.889800
      5 CB         -1.2260    0.2350   -0.7750 c3        1 F2F     -0.038100
      6 CG          0.2220    0.3530   -0.4550 ca        1 F2F     -0.020300
      7 CD2         1.0420   -0.7780   -0.4520 ca        1 F2F     -0.131000
      8 CE2         2.4120   -0.6610   -0.1680 ca        1 F2F      0.080900
      9 F2          3.2080   -1.7580   -0.1700 f         1 F2F     -0.146900
     10 CZ          2.9650    0.6130    0.1220 ca        1 F2F      0.054900
     11 F1          4.2880    0.7370    0.3930 f         1 F2F     -0.150900
     12 CE1         2.1300    1.7420    0.1270 ca        1 F2F     -0.151000
     13 CD1         0.7770    1.6070   -0.1590 ca        1 F2F     -0.128000
     14 OXT        -3.8030    1.3580   -0.2680 o         1 F2F     -0.837800
     15 HA         -1.7600    0.4660    1.3140 h1        1 F2F      0.045700
     16 HN         -2.4810   -1.7580    1.5920 hn        1 F2F      0.332300
     17 HNA        -2.1430   -2.1540    0.0710 hn        1 F2F      0.332300
     18 HB         -1.3680   -0.5020   -1.6090 hc        1 F2F      0.064200
     19 HBA        -1.6280    1.2270   -1.1260 hc        1 F2F      0.064200
     20 HD2         0.6110   -1.7720   -0.6490 ha        1 F2F      0.162000
     21 HE1         2.5610    2.7250    0.3600 ha        1 F2F      0.136000
     22 HD1         0.1250    2.4940   -0.1470 ha        1 F2F      0.149000
@<TRIPOS>BOND
     1    1    2 1   
     2    2    3 1   
     3    2   14 1   
     4    3    4 1   
     5    3    5 1   
     6    3   15 1   
     7    4   16 1   
     8    4   17 1   
     9    5    6 1   
    10    5   18 1   
    11    5   19 1   
    12    6    7 ar  
    13    6   13 ar  
    14    7    8 ar  
    15    7   20 1   
    16    8    9 1   
    17    8   10 ar  
    18   10   11 1   
    19   10   12 ar  
    20   12   13 ar  
    21   12   21 1   
    22   13   22 1   
@<TRIPOS>SUBSTRUCTURE
     1 F2F         1 TEMP              0 ****  ****    0 ROOT
