@<TRIPOS>MOLECULE
F2G
   79    79     1     0     0
SMALL
bcc


@<TRIPOS>ATOM
      1 O22        -0.0030   -0.1230   -0.3610 oh        1 F2G     -0.618800
      2 C21         1.2570    0.1790    0.1280 c3        1 F2G      0.582100
      3 O23         1.3500    0.2960    1.4870 os        1 F2G     -0.402600
      4 C24         0.6240   -0.6210    2.3520 c3        1 F2G      0.109400
      5 C25         1.5820   -1.0490    3.4560 c3        1 F2G     -0.086700
      6 C26         0.7730   -1.4640    4.6810 c3        1 F2G     -0.067900
      7 C27         1.6900   -1.9170    5.7980 c3        1 F2G     -0.080400
      8 C28         2.6090   -3.0330    5.3480 c3        1 F2G     -0.083400
      9 C29         3.4000   -2.6330    4.1190 c3        1 F2G     -0.080400
     10 C30         2.4790   -2.1880    2.9990 c3        1 F2G     -0.067900
     11 N1          2.2010   -1.0160   -0.3580 n4        1 F2G     -0.857000
     12 C2          2.3730   -1.0150   -1.8360 c3        1 F2G      0.116500
     13 C3          3.6920   -0.3390   -2.2890 c3        1 F2G     -0.081700
     14 C5          3.6150    1.1640   -2.1100 c3        1 F2G     -0.131600
     15 C4          4.9200   -0.8880   -1.5930 c3        1 F2G     -0.131600
     16 C6          2.3230   -2.4620   -2.4780 c3        1 F2G      0.330300
     17 O7          1.5270   -3.2880   -1.6800 oh        1 F2G     -0.572800
     18 N8          1.6610   -2.3840   -3.8630 n4        1 F2G     -0.808000
     19 C9          1.7700   -3.6510   -4.6750 c3        1 F2G      0.080500
     20 C10         0.5810   -4.5710   -4.4450 c3        1 F2G     -0.166100
     21 C11         1.9230   -3.2720   -6.1990 c3        1 F2G      0.321300
     22 O12         0.9610   -2.3290   -6.5830 oh        1 F2G     -0.564800
     23 N13         1.9450   -4.4900   -7.0810 n4        1 F2G     -0.793000
     24 C14         2.4680   -4.1960   -8.4830 c3        1 F2G      0.146500
     25 C19         1.5850   -4.9130   -9.5500 c3        1 F2G      0.127100
     26 C31         0.3000   -4.1520   -9.8020 c3        1 F2G     -0.147100
     27 O20         1.3240   -6.2120   -9.0380 oh        1 F2G     -0.648800
     28 C15         3.9190   -4.6440   -8.6310 c3        1 F2G     -0.174400
     29 C16         4.8770   -3.9600   -7.6600 c3        1 F2G      0.339900
     30 O17         4.5830   -4.3640   -6.3210 oh        1 F2G     -0.662800
     31 O18         6.2200   -4.2820   -7.8350 oh        1 F2G     -0.662800
     32 H22        -0.6620   -0.1520    0.3570 ho        1 F2G      0.496000
     33 H21         1.6770    1.1190   -0.3530 hx        1 F2G      0.179700
     34 H241        0.2380   -1.4960    1.7700 h1        1 F2G      0.070700
     35 H242       -0.2270   -0.0150    2.7690 h1        1 F2G      0.070700
     36 H25         2.2250   -0.1650    3.7350 hc        1 F2G      0.098700
     37 H261        0.0730   -2.2960    4.4040 hc        1 F2G      0.028200
     38 H262        0.1550   -0.5970    5.0350 hc        1 F2G      0.028200
     39 H271        1.0670   -2.2700    6.6630 hc        1 F2G      0.063200
     40 H272        2.3010   -1.0480    6.1590 hc        1 F2G      0.063200
     41 H281        3.3190   -3.2910    6.1780 hc        1 F2G      0.063200
     42 H282        2.0060   -3.9530    5.1250 hc        1 F2G      0.063200
     43 H291        4.0190   -3.5000    3.7700 hc        1 F2G      0.063200
     44 H292        4.1020   -1.7970    4.3810 hc        1 F2G      0.063200
     45 H301        1.8510   -3.0560    2.6650 hc        1 F2G      0.028200
     46 H302        3.0930   -1.8520    2.1200 hc        1 F2G      0.028200
     47 HN1         3.1060   -0.8900    0.1140 hn        1 F2G      0.465300
     48 H2          1.5000   -0.4110   -2.2410 hx        1 F2G      0.125700
     49 H3          3.7830   -0.5480   -3.3940 hc        1 F2G      0.054700
     50 H51         4.4870    1.6430   -2.6260 hc        1 F2G      0.076200
     51 H52         2.6790    1.5820   -2.5530 hc        1 F2G      0.076200
     52 H53         3.6730    1.4510   -1.0310 hc        1 F2G      0.076200
     53 H41         5.0540   -0.4490   -0.5730 hc        1 F2G      0.076200
     54 H42         5.8340   -0.6060   -2.1800 hc        1 F2G      0.076200
     55 H43         4.8930   -2.0000   -1.5070 hc        1 F2G      0.076200
     56 H6          3.3720   -2.8600   -2.6330 hx        1 F2G      0.134700
     57 HO7         1.8890   -4.1930   -1.6680 ho        1 F2G      0.479000
     58 HN8         2.0890   -1.6050   -4.3840 hn        1 F2G      0.475300
     59 H9          2.7320   -4.1690   -4.3700 hx        1 F2G      0.134700
     60 H101        0.8190   -5.6000   -4.8210 hc        1 F2G      0.100700
     61 H102        0.3380   -4.6770   -3.3550 hc        1 F2G      0.100700
     62 H103       -0.3360   -4.1970   -4.9650 hc        1 F2G      0.100700
     63 H11         2.9250   -2.7430   -6.3490 hx        1 F2G      0.166700
     64 H12         0.0720   -2.7220   -6.6440 ho        1 F2G      0.457000
     65 H13         2.5760   -5.1920   -6.6570 hn        1 F2G      0.480300
     66 H14         2.3770   -3.0800   -8.6490 hx        1 F2G      0.122700
     67 H19         2.1900   -4.9780  -10.5010 h1        1 F2G      0.110700
     68 H311        0.5170   -3.1490  -10.2430 hc        1 F2G      0.069700
     69 H312       -0.2870   -4.0200   -8.8610 hc        1 F2G      0.069700
     70 H313       -0.3370   -4.7190  -10.5290 hc        1 F2G      0.069700
     71 H20         0.9520   -6.7470   -9.7560 ho        1 F2G      0.475000
     72 H151        4.2500   -4.3800   -9.6770 hc        1 F2G      0.123200
     73 H152        3.9900   -5.7620   -8.5300 hc        1 F2G      0.123200
     74 H16         4.8040   -2.8340   -7.7070 h2        1 F2G      0.090700
     75 H17         5.3950   -4.7140   -5.9200 ho        1 F2G      0.461000
     76 H18         6.3120   -5.1310   -8.2950 ho        1 F2G      0.461000
     77 H121        1.7890   -1.8990   -0.0380 hn        1 F2G      0.465300
     78 H82         0.6600   -2.1710   -3.7310 hn        1 F2G      0.475300
     79 H132        1.0050   -4.9030   -7.1690 hn        1 F2G      0.480300
@<TRIPOS>BOND
     1    1    2 1   
     2    1   32 1   
     3    2    3 1   
     4    2   11 1   
     5    2   33 1   
     6    3    4 1   
     7    4    5 1   
     8    4   34 1   
     9    4   35 1   
    10    5    6 1   
    11    5   10 1   
    12    5   36 1   
    13    6    7 1   
    14    6   37 1   
    15    6   38 1   
    16    7    8 1   
    17    7   39 1   
    18    7   40 1   
    19    8    9 1   
    20    8   41 1   
    21    8   42 1   
    22    9   10 1   
    23    9   43 1   
    24    9   44 1   
    25   10   45 1   
    26   10   46 1   
    27   11   12 1   
    28   11   47 1   
    29   11   77 1   
    30   12   13 1   
    31   12   16 1   
    32   12   48 1   
    33   13   14 1   
    34   13   15 1   
    35   13   49 1   
    36   14   50 1   
    37   14   51 1   
    38   14   52 1   
    39   15   53 1   
    40   15   54 1   
    41   15   55 1   
    42   16   17 1   
    43   16   18 1   
    44   16   56 1   
    45   17   57 1   
    46   18   19 1   
    47   18   58 1   
    48   18   78 1   
    49   19   20 1   
    50   19   21 1   
    51   19   59 1   
    52   20   60 1   
    53   20   61 1   
    54   20   62 1   
    55   21   22 1   
    56   21   23 1   
    57   21   63 1   
    58   22   64 1   
    59   23   24 1   
    60   23   65 1   
    61   23   79 1   
    62   24   25 1   
    63   24   28 1   
    64   24   66 1   
    65   25   26 1   
    66   25   27 1   
    67   25   67 1   
    68   26   68 1   
    69   26   69 1   
    70   26   70 1   
    71   27   71 1   
    72   28   29 1   
    73   28   72 1   
    74   28   73 1   
    75   29   30 1   
    76   29   31 1   
    77   29   74 1   
    78   30   75 1   
    79   31   76 1   
@<TRIPOS>SUBSTRUCTURE
     1 F2G         1 TEMP              0 ****  ****    0 ROOT
