@<TRIPOS>MOLECULE
F2G
   79    79     1     0     0
SMALL
bcc


@<TRIPOS>ATOM
      1 O22        -0.0350   -0.1850   -0.3770 oh        1 F2G     -0.617800
      2 C21         1.1930    0.1780    0.1500 c3        1 F2G      0.582100
      3 O23         1.2410    0.2840    1.5130 os        1 F2G     -0.402600
      4 C24         0.5470   -0.6820    2.3480 c3        1 F2G      0.108400
      5 C25         1.4970   -1.0680    3.4740 c3        1 F2G     -0.085700
      6 C26         0.6800   -1.5500    4.6680 c3        1 F2G     -0.067900
      7 C27         1.5910   -1.9650    5.8060 c3        1 F2G     -0.080400
      8 C28         2.5880   -3.0160    5.3670 c3        1 F2G     -0.083400
      9 C29         3.3890   -2.5490    4.1690 c3        1 F2G     -0.080400
     10 C30         2.4760   -2.1420    3.0280 c3        1 F2G     -0.067900
     11 N1          2.2150   -0.9560   -0.3210 n4        1 F2G     -0.857000
     12 C2          2.4130   -0.9420   -1.7950 c3        1 F2G      0.116500
     13 C3          3.7000   -0.1910   -2.2230 c3        1 F2G     -0.081700
     14 C5          3.5360    1.3040   -2.0380 c3        1 F2G     -0.131100
     15 C4          4.9440   -0.6750   -1.5090 c3        1 F2G     -0.131100
     16 C6          2.4560   -2.3870   -2.4430 c3        1 F2G      0.330300
     17 O7          1.7160   -3.2640   -1.6450 oh        1 F2G     -0.572800
     18 N8          1.7970   -2.3440   -3.8290 n4        1 F2G     -0.807000
     19 C9          1.9760   -3.6010   -4.6460 c3        1 F2G      0.125500
     20 C10         0.8800   -4.6150   -4.3480 c3        1 F2G     -0.166100
     21 C11         2.0050   -3.2400   -6.1870 c3        1 F2G      0.329300
     22 O12         0.8890   -2.4120   -6.4050 oh        1 F2G     -0.597800
     23 N13         1.9260   -4.4780   -7.0430 n4        1 F2G     -0.799000
     24 C14         2.4450   -4.2740   -8.4580 c3        1 F2G      0.144500
     25 C19         1.3950   -4.7640   -9.5020 c3        1 F2G      0.130100
     26 C31         0.2860   -3.7460   -9.6760 c3        1 F2G     -0.157100
     27 O20         0.8880   -5.9940   -9.0070 oh        1 F2G     -0.641800
     28 C15         3.7670   -5.0040   -8.6640 c3        1 F2G     -0.157400
     29 C16         4.9170   -4.4570   -7.8110 c3        1 F2G      0.346900
     30 O17         4.5940   -4.5280   -6.4240 oh        1 F2G     -0.665300
     31 O18         6.0090   -5.3220   -7.9250 oh        1 F2G     -0.665300
     32 H22        -0.7080   -0.2720    0.3230 ho        1 F2G      0.495000
     33 H21         1.5730    1.1450   -0.3090 hx        1 F2G      0.178700
     34 H241       -0.3490   -0.1320    2.7480 h1        1 F2G      0.070700
     35 H242        0.2280   -1.5710    1.7470 h1        1 F2G      0.070700
     36 H25         2.0760   -0.1510    3.7830 hc        1 F2G      0.098700
     37 H261        0.0410   -2.4190    4.3590 hc        1 F2G      0.028200
     38 H262        0.0000   -0.7290    5.0160 hc        1 F2G      0.028200
     39 H271        0.9660   -2.3690    6.6460 hc        1 F2G      0.063200
     40 H272        2.1370   -1.0660    6.1970 hc        1 F2G      0.063200
     41 H281        2.0490   -3.9670    5.1140 hc        1 F2G      0.063200
     42 H282        3.2880   -3.2440    6.2150 hc        1 F2G      0.063200
     43 H291        4.0300   -1.6770    4.4640 hc        1 F2G      0.063200
     44 H292        4.0700   -3.3710    3.8270 hc        1 F2G      0.063200
     45 H301        1.9130   -3.0410    2.6630 hc        1 F2G      0.028200
     46 H302        3.0940   -1.7550    2.1740 hc        1 F2G      0.028200
     47 HN1         3.1030   -0.7780    0.1680 hn        1 F2G      0.464800
     48 H2          1.5150   -0.3860   -2.2140 hx        1 F2G      0.125700
     49 H3          3.8200   -0.3900   -3.3270 hc        1 F2G      0.052700
     50 H51         3.5600    1.5880   -0.9570 hc        1 F2G      0.075867
     51 H52         4.3880    1.8340   -2.5370 hc        1 F2G      0.075867
     52 H53         2.5850    1.6710   -2.4950 hc        1 F2G      0.075867
     53 H41         4.9770   -1.7880   -1.4270 hc        1 F2G      0.075867
     54 H42         5.8510   -0.3400   -2.0790 hc        1 F2G      0.075867
     55 H43         5.0360   -0.2350   -0.4840 hc        1 F2G      0.075867
     56 H6          3.5280   -2.7180   -2.5960 hx        1 F2G      0.132700
     57 HO7         2.1380   -4.1430   -1.6330 ho        1 F2G      0.479000
     58 HN8         2.1820   -1.5440   -4.3450 hn        1 F2G      0.475300
     59 H9          2.9980   -4.0290   -4.4030 hx        1 F2G      0.130700
     60 H101        0.6640   -4.6960   -3.2520 hc        1 F2G      0.104033
     61 H102       -0.0750   -4.3380   -4.8650 hc        1 F2G      0.104033
     62 H103        1.2000   -5.6340   -4.6870 hc        1 F2G      0.104033
     63 H11         2.9880   -2.7290   -6.4360 hx        1 F2G      0.130700
     64 H12         0.9280   -2.0140   -7.2940 ho        1 F2G      0.482000
     65 H13         0.9470   -4.8090   -7.0960 hn        1 F2G      0.484800
     66 H14         2.5910   -3.1640   -8.6130 hx        1 F2G      0.092700
     67 H19         1.9350   -4.9240  -10.4790 h1        1 F2G      0.110700
     68 H311        0.6870   -2.7990  -10.1120 hc        1 F2G      0.069700
     69 H312       -0.4850   -4.1490  -10.3830 hc        1 F2G      0.069700
     70 H313       -0.2220   -3.5240   -8.7070 hc        1 F2G      0.069700
     71 H20         0.4110   -6.4340   -9.7270 ho        1 F2G      0.476000
     72 H151        3.6490   -6.1080   -8.4820 hc        1 F2G      0.127700
     73 H152        4.0660   -4.8890   -9.7440 hc        1 F2G      0.127700
     74 H16         5.1450   -3.3820   -8.0530 h2        1 F2G      0.068700
     75 H17         5.2020   -5.1600   -6.0040 ho        1 F2G      0.467000
     76 H18         6.7770   -4.8450   -8.2700 ho        1 F2G      0.467000
     77 H121        1.8520   -1.8630   -0.0080 hn        1 F2G      0.464800
     78 H82         0.7820   -2.1910   -3.7100 hn        1 F2G      0.475300
     79 H132        2.5040   -5.2150   -6.6070 hn        1 F2G      0.484800
@<TRIPOS>BOND
     1    1    2 1   
     2    1   32 1   
     3    2    3 1   
     4    2   11 1   
     5    2   33 1   
     6    3    4 1   
     7    4    5 1   
     8    4   34 1   
     9    4   35 1   
    10    5    6 1   
    11    5   10 1   
    12    5   36 1   
    13    6    7 1   
    14    6   37 1   
    15    6   38 1   
    16    7    8 1   
    17    7   39 1   
    18    7   40 1   
    19    8    9 1   
    20    8   41 1   
    21    8   42 1   
    22    9   10 1   
    23    9   43 1   
    24    9   44 1   
    25   10   45 1   
    26   10   46 1   
    27   11   12 1   
    28   11   47 1   
    29   11   77 1   
    30   12   13 1   
    31   12   16 1   
    32   12   48 1   
    33   13   14 1   
    34   13   15 1   
    35   13   49 1   
    36   14   50 1   
    37   14   51 1   
    38   14   52 1   
    39   15   53 1   
    40   15   54 1   
    41   15   55 1   
    42   16   17 1   
    43   16   18 1   
    44   16   56 1   
    45   17   57 1   
    46   18   19 1   
    47   18   58 1   
    48   18   78 1   
    49   19   20 1   
    50   19   21 1   
    51   19   59 1   
    52   20   60 1   
    53   20   61 1   
    54   20   62 1   
    55   21   22 1   
    56   21   23 1   
    57   21   63 1   
    58   22   64 1   
    59   23   24 1   
    60   23   65 1   
    61   23   79 1   
    62   24   25 1   
    63   24   28 1   
    64   24   66 1   
    65   25   26 1   
    66   25   27 1   
    67   25   67 1   
    68   26   68 1   
    69   26   69 1   
    70   26   70 1   
    71   27   71 1   
    72   28   29 1   
    73   28   72 1   
    74   28   73 1   
    75   29   30 1   
    76   29   31 1   
    77   29   74 1   
    78   30   75 1   
    79   31   76 1   
@<TRIPOS>SUBSTRUCTURE
     1 F2G         1 TEMP              0 ****  ****    0 ROOT
