@<TRIPOS>MOLECULE
F2G
   79    79     1     0     0
SMALL
bcc


@<TRIPOS>ATOM
      1 O22        -0.0200   -0.2730   -0.5350 oh        1 F2G     -0.677800
      2 C21         1.0880    0.3000    0.1000 c3        1 F2G      0.576100
      3 O23         0.9620    0.3390    1.4630 os        1 F2G     -0.400600
      4 C24         0.3690   -0.7890    2.1630 c3        1 F2G      0.108400
      5 C25         1.2890   -1.1660    3.3170 c3        1 F2G     -0.088700
      6 C26         0.4980   -2.0330    4.2930 c3        1 F2G     -0.068900
      7 C27         1.3710   -2.4740    5.4500 c3        1 F2G     -0.079900
      8 C28         2.6090   -3.1970    4.9660 c3        1 F2G     -0.083400
      9 C29         3.3950   -2.3420    3.9940 c3        1 F2G     -0.079900
     10 C30         2.5320   -1.8920    2.8310 c3        1 F2G     -0.068900
     11 N1          2.2970   -0.6120   -0.3090 ny        1 F2G     -0.842000
     12 C2          2.4850   -0.6940   -1.7890 c3        1 F2G      0.084500
     13 C3          3.9350   -0.3390   -2.2050 c3        1 F2G     -0.082700
     14 C5          4.1530    1.1570   -2.0970 c3        1 F2G     -0.131100
     15 C4          4.9860   -1.0880   -1.4130 c3        1 F2G     -0.131100
     16 C6          2.0990   -2.1180   -2.3340 c3        1 F2G      0.335300
     17 O7          1.0200   -2.6910   -1.6650 oh        1 F2G     -0.554800
     18 N8          1.7930   -2.0760   -3.8380 ny        1 F2G     -0.809000
     19 C9          2.0980   -3.3750   -4.5480 c3        1 F2G      0.133500
     20 C10         1.1990   -4.5070   -4.0750 c3        1 F2G     -0.165100
     21 C11         1.9580   -3.1590   -6.1100 c3        1 F2G      0.326300
     22 O12         0.7020   -2.5570   -6.3010 oh        1 F2G     -0.599800
     23 N13         2.0390   -4.4690   -6.8510 ny        1 F2G     -0.798000
     24 C14         2.4050   -4.3160   -8.3200 c3        1 F2G      0.144500
     25 C19         1.3780   -5.0690   -9.2200 c3        1 F2G      0.130100
     26 C31         0.1000   -4.2700   -9.3720 c3        1 F2G     -0.156100
     27 O20         1.1310   -6.3150   -8.5860 oh        1 F2G     -0.641800
     28 C15         3.8140   -4.8340   -8.5870 c3        1 F2G     -0.157400
     29 C16         4.9130   -4.0180   -7.8980 c3        1 F2G      0.346900
     30 O17         4.7110   -3.9930   -6.4860 oh        1 F2G     -0.664800
     31 O18         6.1250   -4.7020   -8.0300 oh        1 F2G     -0.664800
     32 H22        -0.8160   -0.1250    0.0120 ho        1 F2G      0.513000
     33 H21         1.3200    1.3480   -0.2730 hx        1 F2G      0.176700
     34 H241        0.2000   -1.6460    1.4630 h1        1 F2G      0.072200
     35 H242       -0.6120   -0.3960    2.5500 h1        1 F2G      0.072200
     36 H25         1.6050   -0.2220    3.8470 hc        1 F2G      0.103700
     37 H261        0.1000   -2.9330    3.7560 hc        1 F2G      0.026200
     38 H262       -0.3760   -1.4510    4.6870 hc        1 F2G      0.026200
     39 H271        0.7760   -3.1520    6.1190 hc        1 F2G      0.065200
     40 H272        1.6680   -1.5800    6.0600 hc        1 F2G      0.065200
     41 H281        3.2600   -3.4540    5.8440 hc        1 F2G      0.062700
     42 H282        2.3170   -4.1610    4.4730 hc        1 F2G      0.062700
     43 H291        3.7960   -1.4410    4.5290 hc        1 F2G      0.065200
     44 H292        4.2710   -2.9230    3.6040 hc        1 F2G      0.065200
     45 H301        2.2360   -2.7830    2.2160 hc        1 F2G      0.026200
     46 H302        3.1340   -1.2040    2.1780 hc        1 F2G      0.026200
     47 HN1         2.1620   -1.5470    0.1000 hn        1 F2G      0.476300
     48 H2          1.7850    0.0750   -2.2440 hx        1 F2G      0.122700
     49 H3          4.0410   -0.6250   -3.2900 hc        1 F2G      0.054700
     50 H51         3.4140    1.7210   -2.7150 hc        1 F2G      0.075867
     51 H52         5.1810    1.4110   -2.4670 hc        1 F2G      0.075867
     52 H53         4.0850    1.5100   -1.0390 hc        1 F2G      0.075867
     53 H41         5.1530   -0.6350   -0.4040 hc        1 F2G      0.075867
     54 H42         4.7260   -2.1660   -1.2860 hc        1 F2G      0.075867
     55 H43         5.9680   -1.0280   -1.9520 hc        1 F2G      0.075867
     56 H6          2.9630   -2.8450   -2.1860 hx        1 F2G      0.161700
     57 HO7         0.2770   -2.0630   -1.5670 ho        1 F2G      0.472000
     58 HN8         2.3350   -1.3230   -4.2760 hn        1 F2G      0.468300
     59 H9          3.1880   -3.6200   -4.3510 hx        1 F2G      0.134700
     60 H101        1.6350   -5.4920   -4.3810 hc        1 F2G      0.106033
     61 H102        0.1690   -4.4100   -4.5020 hc        1 F2G      0.106033
     62 H103        1.1130   -4.5380   -2.9560 hc        1 F2G      0.106033
     63 H11         2.8160   -2.5160   -6.4840 hx        1 F2G      0.129700
     64 H12         0.6110   -2.2400   -7.2180 ho        1 F2G      0.482000
     65 H13         2.7720   -5.0490   -6.4100 hn        1 F2G      0.485300
     66 H14         2.3450   -3.2180   -8.5760 hx        1 F2G      0.091700
     67 H19         1.8610   -5.2270  -10.2280 h1        1 F2G      0.110700
     68 H311       -0.6410   -4.8590   -9.9720 hc        1 F2G      0.069367
     69 H312       -0.3640   -4.0480   -8.3810 hc        1 F2G      0.069367
     70 H313        0.2960   -3.3130   -9.9130 hc        1 F2G      0.069367
     71 H20         0.6860   -6.8940   -9.2240 ho        1 F2G      0.475000
     72 H151        4.0020   -4.7790   -9.6970 hc        1 F2G      0.126700
     73 H152        3.9050   -5.9180   -8.3010 hc        1 F2G      0.126700
     74 H16         4.9350   -2.9530   -8.2590 h2        1 F2G      0.069700
     75 H17         5.4500   -4.4640   -6.0660 ho        1 F2G      0.467000
     76 H18         6.7720   -4.1450   -8.4860 ho        1 F2G      0.467000
     77 H121        3.1360   -0.1970    0.1280 hn        1 F2G      0.476300
     78 H82         0.7880   -1.8790   -3.9760 hn        1 F2G      0.468300
     79 H132        1.1350   -4.9670   -6.7870 hn        1 F2G      0.485300
@<TRIPOS>BOND
     1    1    2 1   
     2    1   32 1   
     3    2    3 1   
     4    2   11 1   
     5    2   33 1   
     6    3    4 1   
     7    4    5 1   
     8    4   34 1   
     9    4   35 1   
    10    5    6 1   
    11    5   10 1   
    12    5   36 1   
    13    6    7 1   
    14    6   37 1   
    15    6   38 1   
    16    7    8 1   
    17    7   39 1   
    18    7   40 1   
    19    8    9 1   
    20    8   41 1   
    21    8   42 1   
    22    9   10 1   
    23    9   43 1   
    24    9   44 1   
    25   10   45 1   
    26   10   46 1   
    27   11   12 1   
    28   11   47 1   
    29   11   77 1   
    30   12   13 1   
    31   12   16 1   
    32   12   48 1   
    33   13   14 1   
    34   13   15 1   
    35   13   49 1   
    36   14   50 1   
    37   14   51 1   
    38   14   52 1   
    39   15   53 1   
    40   15   54 1   
    41   15   55 1   
    42   16   17 1   
    43   16   18 1   
    44   16   56 1   
    45   17   57 1   
    46   18   19 1   
    47   18   58 1   
    48   18   78 1   
    49   19   20 1   
    50   19   21 1   
    51   19   59 1   
    52   20   60 1   
    53   20   61 1   
    54   20   62 1   
    55   21   22 1   
    56   21   23 1   
    57   21   63 1   
    58   22   64 1   
    59   23   24 1   
    60   23   65 1   
    61   23   79 1   
    62   24   25 1   
    63   24   28 1   
    64   24   66 1   
    65   25   26 1   
    66   25   27 1   
    67   25   67 1   
    68   26   68 1   
    69   26   69 1   
    70   26   70 1   
    71   27   71 1   
    72   28   29 1   
    73   28   72 1   
    74   28   73 1   
    75   29   30 1   
    76   29   31 1   
    77   29   74 1   
    78   30   75 1   
    79   31   76 1   
@<TRIPOS>SUBSTRUCTURE
     1 F2G         1 TEMP              0 ****  ****    0 ROOT
