@<TRIPOS>MOLECULE
F2G
   76    76     1     0     0
SMALL
bcc


@<TRIPOS>ATOM
      1 O22        -0.4170    1.6190    3.2450 oh        1 F2G     -0.625800
      2 C21         0.8480    1.4330    2.7200 c3        1 F2G      0.571100
      3 O23         1.7900    1.4630    3.7550 os        1 F2G     -0.462600
      4 C24         2.0380    2.7860    4.2850 c3        1 F2G      0.146400
      5 C25         2.9770    2.6830    5.5020 c3        1 F2G     -0.065700
      6 C26         2.4580    3.5830    6.6090 c3        1 F2G     -0.073400
      7 C27         2.5920    5.0400    6.2740 c3        1 F2G     -0.077400
      8 C28         4.0080    5.4100    5.8330 c3        1 F2G     -0.077400
      9 C29         4.5210    4.5190    4.7340 c3        1 F2G     -0.077400
     10 C30         4.3850    3.0510    5.0680 c3        1 F2G     -0.073400
     11 N1          0.9080    0.1390    2.0400 n3        1 F2G     -0.882200
     12 C2          0.5590    0.3070    0.6590 c3        1 F2G      0.172500
     13 C3          1.7040    0.9860   -0.0740 c3        1 F2G     -0.051700
     14 C5          1.1970    1.5510   -1.3950 c3        1 F2G     -0.095100
     15 C4          2.8210   -0.0420   -0.3500 c3        1 F2G     -0.095100
     16 C6          0.2880   -1.0500    0.0330 c3        1 F2G      0.353300
     17 O7          0.4580   -2.0310    0.9760 oh        1 F2G     -0.600800
     18 N8         -1.0790   -1.0900   -0.4690 n3        1 F2G     -0.873200
     19 C9         -1.2910   -2.3240   -1.1990 c3        1 F2G      0.156500
     20 C10        -1.7650   -3.3960   -0.2530 c3        1 F2G     -0.088100
     21 C11        -2.3300   -2.1030   -2.2700 c3        1 F2G      0.338300
     22 O12        -3.5710   -1.7840   -1.6690 oh        1 F2G     -0.600800
     23 N13        -2.4670   -3.2750   -3.0370 n3        1 F2G     -0.872200
     24 C14        -3.0970   -2.9600   -4.2780 c3        1 F2G      0.142500
     25 C19        -4.3890   -3.7300   -4.3970 c3        1 F2G      0.155100
     26 C31        -5.4210   -2.8860   -5.1540 c3        1 F2G     -0.104100
     27 O20        -4.8760   -4.0260   -3.1170 oh        1 F2G     -0.600800
     28 C15        -2.1670   -3.3410   -5.4370 c3        1 F2G     -0.137400
     29 C16        -2.2950   -2.2840   -6.5810 c3        1 F2G      0.334900
     30 O17        -1.0190   -1.6870   -6.8250 oh        1 F2G     -0.634800
     31 O18        -2.7540   -2.9220   -7.7640 oh        1 F2G     -0.634800
     32 H22        -0.4890    1.1690    4.0110 ho        1 F2G      0.426000
     33 H21         1.0440    2.1500    2.0780 h3        1 F2G      0.092700
     34 H241        2.4580    3.3420    3.5930 h1        1 F2G      0.038200
     35 H242        1.1740    3.2000    4.5640 h1        1 F2G      0.038200
     36 H25         2.9780    1.7750    5.8180 hc        1 F2G      0.060700
     37 H261        1.5200    3.3820    6.7630 hc        1 F2G      0.044950
     38 H262        2.9590    3.3990    7.4270 hc        1 F2G      0.044950
     39 H271        2.3620    5.5630    7.0560 hc        1 F2G      0.039200
     40 H272        1.9680    5.2570    5.5520 hc        1 F2G      0.039200
     41 H281        4.6080    5.3390    6.6020 hc        1 F2G      0.039200
     42 H282        4.0080    6.3270    5.5180 hc        1 F2G      0.039200
     43 H291        5.4680    4.7220    4.5760 hc        1 F2G      0.039200
     44 H292        4.0220    4.7030    3.9230 hc        1 F2G      0.039200
     45 H301        5.0010    2.8340    5.7850 hc        1 F2G      0.044950
     46 H302        4.6200    2.5210    4.2740 hc        1 F2G      0.044950
     47 HN1         0.3200   -0.4430    2.4360 hn        1 F2G      0.378800
     48 H2         -0.2380    0.8570    0.5930 h1        1 F2G      0.061700
     49 H3          2.0510    1.6980    0.4660 hc        1 F2G      0.050700
     50 H51         1.7460    2.3220   -1.6540 hc        1 F2G      0.038367
     51 H52         1.2540    0.8620   -2.0880 hc        1 F2G      0.038367
     52 H53         0.2580    1.8360   -1.2920 hc        1 F2G      0.038367
     53 H41         3.6790    0.4270   -0.4570 hc        1 F2G      0.038367
     54 H42         2.6160   -0.5340   -1.1680 hc        1 F2G      0.038367
     55 H43         2.8840   -0.6750    0.4090 hc        1 F2G      0.038367
     56 H6          0.9190   -1.1990   -0.7160 h2        1 F2G      0.064700
     57 HO7         1.2330   -2.4410    0.8390 ho        1 F2G      0.407000
     58 HN8        -1.2200   -0.3800   -1.0250 hn        1 F2G      0.401800
     59 H9         -0.4510   -2.6050   -1.6140 h1        1 F2G      0.069700
     60 H101       -0.9930   -3.8500    0.1370 hc        1 F2G      0.043033
     61 H102       -2.3160   -4.0500   -0.7470 hc        1 F2G      0.043033
     62 H103       -2.3030   -2.9890    0.4620 hc        1 F2G      0.043033
     63 H11        -2.0490   -1.3650   -2.8500 h2        1 F2G      0.057700
     64 H12        -3.8200   -0.9500   -1.9160 ho        1 F2G      0.413000
     65 H13        -1.6390   -3.6350   -3.1950 hn        1 F2G      0.376800
     66 H14        -3.2850   -2.0000   -4.3130 h1        1 F2G      0.088700
     67 H19        -4.2290   -4.5590   -4.8820 h1        1 F2G      0.028700
     68 H311       -6.3310   -3.1540   -4.8790 hc        1 F2G      0.051367
     69 H312       -5.3140   -3.0300   -6.1260 hc        1 F2G      0.051367
     70 H313       -5.2830   -1.9340   -4.9450 hc        1 F2G      0.051367
     71 H20        -5.4990   -4.6590   -3.1760 ho        1 F2G      0.412000
     72 H151       -2.4200   -4.2310   -5.7820 hc        1 F2G      0.064700
     73 H152       -1.2320   -3.3670   -5.1150 hc        1 F2G      0.064700
     74 H16        -2.9340   -1.5900   -6.3150 h2        1 F2G      0.080700
     75 H17        -1.0110   -1.3290   -7.6420 ho        1 F2G      0.415500
     76 H18        -2.7110   -2.3500   -8.4480 ho        1 F2G      0.415500
@<TRIPOS>BOND
     1    1    2 1   
     2    1   32 1   
     3    2    3 1   
     4    2   11 1   
     5    2   33 1   
     6    3    4 1   
     7    4    5 1   
     8    4   34 1   
     9    4   35 1   
    10    5    6 1   
    11    5   10 1   
    12    5   36 1   
    13    6    7 1   
    14    6   37 1   
    15    6   38 1   
    16    7    8 1   
    17    7   39 1   
    18    7   40 1   
    19    8    9 1   
    20    8   41 1   
    21    8   42 1   
    22    9   10 1   
    23    9   43 1   
    24    9   44 1   
    25   10   45 1   
    26   10   46 1   
    27   11   12 1   
    28   11   47 1   
    29   12   13 1   
    30   12   16 1   
    31   12   48 1   
    32   13   14 1   
    33   13   15 1   
    34   13   49 1   
    35   14   50 1   
    36   14   51 1   
    37   14   52 1   
    38   15   53 1   
    39   15   54 1   
    40   15   55 1   
    41   16   17 1   
    42   16   18 1   
    43   16   56 1   
    44   17   57 1   
    45   18   19 1   
    46   18   58 1   
    47   19   20 1   
    48   19   21 1   
    49   19   59 1   
    50   20   60 1   
    51   20   61 1   
    52   20   62 1   
    53   21   22 1   
    54   21   23 1   
    55   21   63 1   
    56   22   64 1   
    57   23   24 1   
    58   23   65 1   
    59   24   25 1   
    60   24   28 1   
    61   24   66 1   
    62   25   26 1   
    63   25   27 1   
    64   25   67 1   
    65   26   68 1   
    66   26   69 1   
    67   26   70 1   
    68   27   71 1   
    69   28   29 1   
    70   28   72 1   
    71   28   73 1   
    72   29   30 1   
    73   29   31 1   
    74   29   74 1   
    75   30   75 1   
    76   31   76 1   
@<TRIPOS>SUBSTRUCTURE
     1 F2G         1 TEMP              0 ****  ****    0 ROOT
