@<TRIPOS>MOLECULE
F2G
   76    76     1     0     0
SMALL
bcc


@<TRIPOS>ATOM
      1 O22         2.8200    2.0650    0.2250 oh        1 F2G     -0.655800
      2 C21         3.1460    1.1080   -0.7730 c3        1 F2G      0.564100
      3 O23         4.5370    0.8900   -0.6220 os        1 F2G     -0.432600
      4 C24         4.9480   -0.0810    0.3410 c3        1 F2G      0.130400
      5 C25         6.4220    0.1870    0.6340 c3        1 F2G     -0.066700
      6 C26         6.8440   -0.5890    1.8730 c3        1 F2G     -0.072900
      7 C27         8.3140   -0.3770    2.1700 c3        1 F2G     -0.075900
      8 C28         9.1780   -0.7410    0.9800 c3        1 F2G     -0.077400
      9 C29         8.7530    0.0180   -0.2600 c3        1 F2G     -0.075900
     10 C30         7.2840   -0.1960   -0.5590 c3        1 F2G     -0.072900
     11 N1          2.3340   -0.0980   -0.7760 n3        1 F2G     -0.869200
     12 C2          0.9410    0.0790   -1.1440 c3        1 F2G      0.180500
     13 C3          0.4480   -1.0610   -2.0650 c3        1 F2G     -0.055700
     14 C5          1.0080   -0.8790   -3.4610 c3        1 F2G     -0.088600
     15 C4          0.7910   -2.4410   -1.5450 c3        1 F2G     -0.088600
     16 C6         -0.0220    0.1750    0.1030 c3        1 F2G      0.341300
     17 O7          0.6210    0.8770    1.1700 oh        1 F2G     -0.647800
     18 N8         -1.3110    0.7250   -0.2790 n3        1 F2G     -0.850200
     19 C9         -2.4030    0.4900    0.6520 c3        1 F2G      0.147500
     20 C10        -2.2520    1.1490    2.0200 c3        1 F2G     -0.134100
     21 C11        -3.7440    0.9530   -0.0290 c3        1 F2G      0.384300
     22 O12        -3.7470    2.3690   -0.1790 oh        1 F2G     -0.608800
     23 N13        -4.9200    0.5060    0.7040 n3        1 F2G     -0.886200
     24 C14        -6.0530    0.0860   -0.1020 c3        1 F2G      0.163500
     25 C19        -7.3600    0.8130    0.3310 c3        1 F2G      0.146100
     26 C31        -7.3100    2.2850   -0.0250 c3        1 F2G     -0.127100
     27 O20        -7.6430    0.6140    1.7030 oh        1 F2G     -0.600800
     28 C15        -6.3340   -1.4240   -0.0550 c3        1 F2G     -0.134400
     29 C16        -5.0770   -2.2480   -0.3100 c3        1 F2G      0.327900
     30 O17        -4.2610   -2.4100    0.8300 oh        1 F2G     -0.636800
     31 O18        -5.4810   -3.5540   -0.6560 oh        1 F2G     -0.636800
     32 H22         3.1080    1.7470    1.0880 ho        1 F2G      0.413000
     33 H21         3.0430    1.6570   -1.7590 h3        1 F2G      0.123700
     34 H241        4.3430    0.0170    1.2810 h1        1 F2G      0.031700
     35 H242        4.8080   -1.1070   -0.0890 h1        1 F2G      0.031700
     36 H25         6.5510    1.2880    0.8280 hc        1 F2G      0.065700
     37 H261        6.2330   -0.2570    2.7520 hc        1 F2G      0.043450
     38 H262        6.6450   -1.6810    1.7150 hc        1 F2G      0.043450
     39 H271        8.4880    0.6970    2.4430 hc        1 F2G      0.040200
     40 H272        8.6090   -1.0010    3.0540 hc        1 F2G      0.040200
     41 H281       10.2510   -0.5120    1.2120 hc        1 F2G      0.038700
     42 H282        9.1030   -1.8430    0.7870 hc        1 F2G      0.038700
     43 H291        8.9500    1.1130   -0.1140 hc        1 F2G      0.040200
     44 H292        9.3660   -0.3200   -1.1360 hc        1 F2G      0.040200
     45 H301        7.1070   -1.2720   -0.8200 hc        1 F2G      0.043450
     46 H302        6.9770    0.4220   -1.4430 hc        1 F2G      0.043450
     47 HN1         2.4220   -0.6210    0.0730 hn        1 F2G      0.377800
     48 H2          0.8480    1.0440   -1.7270 h1        1 F2G      0.061700
     49 H3         -0.6730   -0.9730   -2.1240 hc        1 F2G      0.064700
     50 H51         0.6980    0.1080   -3.8820 hc        1 F2G      0.035367
     51 H52         2.1240   -0.9270   -3.4520 hc        1 F2G      0.035367
     52 H53         0.6250   -1.6850   -4.1330 hc        1 F2G      0.035367
     53 H41         1.8880   -2.6380   -1.6220 hc        1 F2G      0.035367
     54 H42         0.4850   -2.5550   -0.4780 hc        1 F2G      0.035367
     55 H43         0.2570   -3.2140   -2.1480 hc        1 F2G      0.035367
     56 H6         -0.1760   -0.8600    0.5350 h2        1 F2G      0.087700
     57 HO7         0.8260    1.7740    0.8720 ho        1 F2G      0.418000
     58 HN8        -1.2490    1.6970   -0.5140 hn        1 F2G      0.377800
     59 H9         -2.4730   -0.6310    0.8010 h1        1 F2G      0.076700
     60 H101       -2.2260    2.2610    1.9270 hc        1 F2G      0.046700
     61 H102       -3.1010    0.8650    2.6860 hc        1 F2G      0.046700
     62 H103       -1.2980    0.8180    2.5020 hc        1 F2G      0.046700
     63 H11        -3.7510    0.5900   -1.1050 h2        1 F2G      0.073700
     64 H12        -3.9100    2.7760    0.6810 ho        1 F2G      0.407000
     65 H13        -4.6910   -0.1750    1.4010 hn        1 F2G      0.394800
     66 H14        -5.8760    0.3790   -1.1810 h1        1 F2G      0.059700
     67 H19        -8.2250    0.3150   -0.1960 h1        1 F2G      0.068700
     68 H311       -7.3070    2.4100   -1.1340 hc        1 F2G      0.047033
     69 H312       -8.2030    2.8060    0.3960 hc        1 F2G      0.047033
     70 H313       -6.3890    2.7660    0.3860 hc        1 F2G      0.047033
     71 H20        -6.9990    1.1220    2.2100 ho        1 F2G      0.407000
     72 H151       -6.7670   -1.6940    0.9430 hc        1 F2G      0.076700
     73 H152       -7.0950   -1.6790   -0.8370 hc        1 F2G      0.076700
     74 H16        -4.4070   -1.7850   -1.0900 h2        1 F2G      0.071700
     75 H17        -4.7910   -2.8260    1.5220 ho        1 F2G      0.418000
     76 H18        -4.6840   -4.0640   -0.8460 ho        1 F2G      0.418000
@<TRIPOS>BOND
     1    1    2 1   
     2    1   32 1   
     3    2    3 1   
     4    2   11 1   
     5    2   33 1   
     6    3    4 1   
     7    4    5 1   
     8    4   34 1   
     9    4   35 1   
    10    5    6 1   
    11    5   10 1   
    12    5   36 1   
    13    6    7 1   
    14    6   37 1   
    15    6   38 1   
    16    7    8 1   
    17    7   39 1   
    18    7   40 1   
    19    8    9 1   
    20    8   41 1   
    21    8   42 1   
    22    9   10 1   
    23    9   43 1   
    24    9   44 1   
    25   10   45 1   
    26   10   46 1   
    27   11   12 1   
    28   11   47 1   
    29   12   13 1   
    30   12   16 1   
    31   12   48 1   
    32   13   14 1   
    33   13   15 1   
    34   13   49 1   
    35   14   50 1   
    36   14   51 1   
    37   14   52 1   
    38   15   53 1   
    39   15   54 1   
    40   15   55 1   
    41   16   17 1   
    42   16   18 1   
    43   16   56 1   
    44   17   57 1   
    45   18   19 1   
    46   18   58 1   
    47   19   20 1   
    48   19   21 1   
    49   19   59 1   
    50   20   60 1   
    51   20   61 1   
    52   20   62 1   
    53   21   22 1   
    54   21   23 1   
    55   21   63 1   
    56   22   64 1   
    57   23   24 1   
    58   23   65 1   
    59   24   25 1   
    60   24   28 1   
    61   24   66 1   
    62   25   26 1   
    63   25   27 1   
    64   25   67 1   
    65   26   68 1   
    66   26   69 1   
    67   26   70 1   
    68   27   71 1   
    69   28   29 1   
    70   28   72 1   
    71   28   73 1   
    72   29   30 1   
    73   29   31 1   
    74   29   74 1   
    75   30   75 1   
    76   31   76 1   
@<TRIPOS>SUBSTRUCTURE
     1 F2G         1 TEMP              0 ****  ****    0 ROOT
