@<TRIPOS>MOLECULE
F2I
   82    78     1     0     0
SMALL
bcc


@<TRIPOS>ATOM
      1 N1       -178.2750   65.6210   14.3440 nt        1 F2I     -0.351000
      2 C4       -177.0950   65.8020   16.5610 c3        1 F2I     -0.260000
      3 C5       -176.3230   64.5510   16.9220 c2        1 F2I      0.238000
      4 C8       -177.1200   65.9180   14.9640 c2        1 F2I      0.338000
      5 C10      -171.9920   63.3700   18.8690 c3        1 F2I     -0.194000
      6 C13      -177.1060   62.2770   17.5860 c2        1 F2I      0.030000
      7 C15       209.8600  -83.7230  -20.9800 c1        1 F2I     -0.290000
      8 C17       208.9400  -83.0090  -20.6950 c1        1 F2I      0.038000
      9 C20       214.6410  -84.0350  -18.9560 c2        1 F2I     -0.161000
     10 C21       214.4280  -85.3260  -18.6470 c2        1 F2I     -0.113000
     11 C22       212.4590  -84.0280  -17.7960 c1        1 F2I      0.068000
     12 C24       214.2950  -82.6650  -16.9630 c2        1 F2I     -0.213000
     13 C26       205.7330  -81.8290  -19.2460 ca        1 F2I      0.126500
     14 C28       207.8580  -82.1700  -20.3600 ca        1 F2I      0.020000
     15 C        -174.9890   64.7030   17.2900 c2        1 F2I     -0.296000
     16 C1       -174.3410   65.9540   17.3160 c1        1 F2I     -0.044000
     17 C2       -175.0710   67.2010   17.0710 c3        1 F2I     -0.202000
     18 C3       -176.5090   67.0610   17.0280 c2        1 F2I      0.249000
     19 O        -174.4500   62.4190   17.8970 o         1 F2I     -0.208000
     20 N        -172.6250   63.8630   17.6190 nx        1 F2I     -0.055000
     21 C9       -171.9620   63.2950   16.3960 c3        1 F2I     -0.164000
     22 C11      -171.8420   61.7710   16.3490 c3        1 F2I     -0.270000
     23 C12      -171.3530   61.2010   15.1180 c1        1 F2I      0.013000
     24 C14      -177.0890   63.3520   16.7730 c2        1 F2I     -0.298000
     25 O1       -176.0600   66.2780   14.4290 o         1 F2I     -0.320000
     26 C16       210.9290  -84.6170  -21.3340 c3        1 F2I      0.165000
     27 C18       212.1700  -84.2460  -20.5360 c2        1 F2I      0.040000
     28 N2        213.2930  -83.8620  -21.0720 n7        1 F2I     -0.113000
     29 C19       214.5060  -83.4900  -20.3470 c3        1 F2I     -0.038000
     30 C23       212.9250  -83.1540  -16.9260 c2        1 F2I     -0.325000
     31 C25       215.1140  -83.0770  -17.9500 c2        1 F2I     -0.112000
     32 I         214.8840  -81.3810  -15.5270 i         1 F2I      0.232000
     33 C27       206.8120  -82.6710  -19.5740 ca        1 F2I     -0.149000
     34 C29       207.8380  -80.8470  -20.8210 ca        1 F2I     -0.149000
     35 C30       206.7520  -80.0180  -20.4850 ca        1 F2I      0.126500
     36 C31       205.6930  -80.4990  -19.6970 ca        1 F2I     -0.172000
     37 F1        206.7300  -78.7400  -20.9270 f         1 F2I     -0.080500
     38 O2        211.2550  -84.6000  -22.7180 oh        1 F2I     -0.345000
     39 HN1      -178.3160   65.6900   13.3450 hn        1 F2I      0.282500
     40 H5       -178.1550   65.6930   16.9500 hc        1 F2I      0.205000
     41 H71      -175.0230   69.3320   17.5350 hc        1 F2I      0.130000
     42 H72      -173.4500   68.4520   17.7790 hc        1 F2I      0.130000
     43 H73      -174.8000   68.2320   18.9710 hc        1 F2I      0.130000
     44 H101     -172.3990   63.9510   19.7410 hx        1 F2I      0.151667
     45 H102     -172.2160   62.2770   19.0060 hx        1 F2I      0.151667
     46 H131     -176.5360   62.1960   18.5260 ha        1 F2I      0.170500
     47 H132     -170.8810   63.5210   18.8000 hx        1 F2I      0.151667
     48 H15      -179.0960   65.3550   14.8350 hn        1 F2I      0.282500
     49 H171        1.7250    0.1800    1.0200 ha        1 F2I      0.001750
     50 H172        2.3730    0.1290    0.8330 ha        1 F2I      0.001750
     51 H21       214.0980  -86.0710  -19.3850 ha        1 F2I      0.150500
     52 H22       214.5970  -85.7200  -17.6310 ha        1 F2I      0.150500
     53 H1       -174.7950   67.4210   15.9410 hc        1 F2I      0.310000
     54 H3       -177.1790   67.9040   17.3080 ha        1 F2I      0.217000
     55 H91      -170.9290   63.7510   16.3510 hx        1 F2I      0.140500
     56 H92      -173.5620   66.4580   19.6550 ha        1 F2I      0.001750
     57 H111     -173.7480   65.8050   19.6140 ha        1 F2I      0.001750
     58 H112     -172.5470   63.6570   15.5030 hx        1 F2I      0.140500
     59 H121     -171.0380   61.8640   14.3010 ha        1 F2I      0.075000
     60 H122     -172.8390   61.2790   16.5640 hc        1 F2I      0.175500
     61 H123     -171.1320   61.4000   17.1510 hc        1 F2I      0.175500
     62 H141     -170.3720   64.2450   13.5140 ha        1 F2I      0.001750
     63 H142     -170.7500   64.1250   14.0640 ha        1 F2I      0.001750
     64 H143     -177.7580   61.4130   17.3600 ha        1 F2I      0.170500
     65 H16       210.6630  -85.6830  -21.0400 h1        1 F2I      0.156000
     66 H181        4.4400   -0.0330    0.2320 ha        1 F2I      0.001750
     67 H182        5.0880   -0.0850    0.0450 ha        1 F2I      0.001750
     68 HN2       213.3670  -83.7820  -22.0790 hn        1 F2I      0.282000
     69 H191      214.5410  -82.3580  -20.3220 h1        1 F2I      0.150500
     70 H192      215.3830  -83.8560  -20.9640 h1        1 F2I      0.150500
     71 H23       212.2540  -82.7660  -16.1280 ha        1 F2I      0.229000
     72 H25       216.1620  -82.7440  -18.0440 ha        1 F2I      0.182000
     73 H27       206.8190  -83.7110  -19.2140 ha        1 F2I      0.163500
     74 H29       208.6530  -80.4500  -21.4430 ha        1 F2I      0.163500
     75 H31       204.8450  -79.8450  -19.4390 ha        1 F2I      0.185000
     76 HO2       210.4330  -84.5250  -23.2230 ho        1 F2I      0.261000
     77 C6       -174.1060   63.5620   17.6190 c2        1 F2I      0.331000
     78 C7       -174.5620   68.3770   17.8880 c3        1 F2I     -0.204000
     79 H12      -177.7810   63.3580   15.9040 ha        1 F2I      0.172000
     80 HN11     -172.5260   64.9030   17.5830 hn        1 F2I      0.289000
     81 H221      212.0630  -84.3260  -19.3640 h4        1 F2I      0.301000
     82 F         204.7230  -82.3080  -18.4860 f         1 F2I     -0.080500
@<TRIPOS>BOND
     1    1    4 1   
     2    1   39 1   
     3    1   48 1   
     4    2    3 1   
     5    2    4 1   
     6    2   18 1   
     7    2   40 1   
     8    3   15 1   
     9    3   24 1   
    10    4   25 1   
    11    5   20 1   
    12    5   44 1   
    13    5   45 1   
    14    5   47 1   
    15    6   24 1   
    16    6   46 1   
    17    6   64 1   
    18    7    8 1   
    19    7   26 1   
    20    8   14 1   
    21    9   10 1   
    22    9   29 1   
    23    9   31 1   
    24   10   51 1   
    25   10   52 1   
    26   11   30 1   
    27   12   30 1   
    28   12   31 1   
    29   12   32 1   
    30   13   33 1   
    31   13   36 1   
    32   13   82 1   
    33   14   33 1   
    34   14   34 1   
    35   15   16 1   
    36   15   77 1   
    37   16   17 1   
    38   17   18 1   
    39   17   53 1   
    40   17   78 1   
    41   18   54 1   
    42   19   77 1   
    43   20   21 1   
    44   20   77 1   
    45   20   80 1   
    46   21   22 1   
    47   21   55 1   
    48   21   58 1   
    49   22   23 1   
    50   22   60 1   
    51   22   61 1   
    52   23   59 1   
    53   24   79 1   
    54   26   27 1   
    55   26   38 1   
    56   26   65 1   
    57   27   28 1   
    58   27   81 1   
    59   28   29 1   
    60   28   68 1   
    61   29   69 1   
    62   29   70 1   
    63   30   71 1   
    64   31   72 1   
    65   33   73 1   
    66   34   35 1   
    67   34   74 1   
    68   35   36 1   
    69   35   37 1   
    70   36   75 1   
    71   38   76 1   
    72   41   78 1   
    73   42   78 1   
    74   43   78 1   
    75   49   50 1   
    76   56   57 1   
    77   62   63 1   
    78   66   67 1   
@<TRIPOS>SUBSTRUCTURE
     1 F2I         1 TEMP              0 ****  ****    0 ROOT
