@<TRIPOS>MOLECULE
F2I
   79    74     1     0     0
SMALL
bcc


@<TRIPOS>ATOM
      1 N1          0.2730    0.4120   -2.7580 n         1 F2I     -0.434000
      2 C4         -1.8570    0.7980   -1.5540 c2        1 F2I     -0.163000
      3 C5         -1.6870   -0.1970   -0.6490 c2        1 F2I     -0.056000
      4 C8         -0.8740    1.1410   -2.6280 c2        1 F2I      0.337000
      5 C10        -4.1100   -1.4870    2.7570 c3        1 F2I      0.020000
      6 C13        -3.0030   -1.1020    3.6990 c2        1 F2I     -0.504000
      7 C15         2.3450   -0.5730    0.6750 c1        1 F2I     -0.150000
      8 C17         2.1110    0.2310    1.5320 c1        1 F2I     -0.103000
      9 C20        -0.0390   -4.3190   -3.2070 c2        1 F2I     -0.116000
     10 C21         2.3990   -7.8030   -1.4600 c2        1 F2I     -0.172000
     11 C22         2.5600   -7.1980   -2.5950 c1        1 F2I     -0.134000
     12 C24         2.1920   -5.3160   -4.1060 c2        1 F2I     -0.177000
     13 C26         1.5540    3.4920    3.2140 ca        1 F2I      0.119500
     14 C28         1.8500    1.1830    2.5360 ca        1 F2I      0.075000
     15 C          -2.6970   -0.4280    0.4180 c3        1 F2I     -0.170000
     16 C1         -3.9490    0.3400    0.3410 c1        1 F2I     -0.091000
     17 C2         -4.0590    1.3650   -0.6310 c2        1 F2I     -0.191000
     18 C3         -3.0610    1.5980   -1.5400 c2        1 F2I      0.028000
     19 O          -2.5730   -2.7430   -0.2630 o         1 F2I     -0.418000
     20 N          -3.6880   -2.3630    1.6900 n         1 F2I     -0.295000
     21 C9         -3.9440   -3.7890    1.7730 c3        1 F2I     -0.080000
     22 C11        -4.8060   -4.2200    2.8740 c1        1 F2I     -0.069000
     23 C12        -5.2080   -5.6060    2.9470 c3        1 F2I     -0.274000
     24 C14        -2.5710    0.1170    3.9230 c1        1 F2I      0.158000
     25 O1         -1.1040    2.0910   -3.4140 o         1 F2I     -0.401000
     26 C16         2.6400   -1.5180   -0.3780 c3        1 F2I      0.113000
     27 C18         1.3700   -1.8980   -1.0980 c1        1 F2I     -0.163000
     28 N2          0.9960   -3.1330   -1.2790 n3        1 F2I     -0.155000
     29 C19        -0.2220   -3.4540   -2.0020 c3        1 F2I     -0.020000
     30 C23         2.7500   -6.6060   -3.7460 c2        1 F2I     -0.085000
     31 C25         1.0840   -4.8180   -3.6340 c1        1 F2I     -0.129000
     32 I           3.2590   -4.2380   -5.4630 i         1 F2I      0.146000
     33 C27         1.8100    2.5450    2.2070 ca        1 F2I     -0.161500
     34 C29         1.6350    0.7650    3.8570 ca        1 F2I     -0.161500
     35 C30         1.3820    1.7250    4.8530 ca        1 F2I      0.119500
     36 C31         1.3390    3.0940    4.5440 ca        1 F2I     -0.194000
     37 F1          1.1760    1.3220    6.1290 f         1 F2I     -0.096500
     38 O2          3.3350   -2.6630    0.1150 oh        1 F2I     -0.349000
     39 HN1         0.9080    0.6640   -3.4740 hn        1 F2I      0.246000
     40 H5         -0.8120   -0.8730   -0.6430 ha        1 F2I      0.172000
     41 H71        -5.3120    2.8580    0.2500 hc        1 F2I      0.084667
     42 H72        -5.3980    2.7810   -1.5620 hc        1 F2I      0.084667
     43 H73        -6.1940    1.4950   -0.5500 hc        1 F2I      0.084667
     44 H101       -6.8760   -0.7550    0.8480 ha        1 F2I      0.004200
     45 H102       -6.2800   -0.4440    0.7510 ha        1 F2I      0.004200
     46 H131       -2.5660   -1.9510    4.2600 ha        1 F2I      0.186000
     47 H132       -4.5710   -0.5590    2.2950 h1        1 F2I      0.148000
     48 H15         0.5190   -0.3310   -2.1350 hn        1 F2I      0.246000
     49 H171       -0.5850   -0.1550    5.2120 ha        1 F2I      0.004200
     50 H172       -1.0520   -0.3470    5.6660 ha        1 F2I      0.004200
     51 H21         1.5710   -8.5050   -1.2810 ha        1 F2I      0.137500
     52 H22         3.0840   -7.6530   -0.6120 ha        1 F2I      0.137500
     53 H1         -2.2280   -0.0490    1.3960 hc        1 F2I      0.198000
     54 H3         -3.1400    2.3920   -2.3080 ha        1 F2I      0.171000
     55 H91        -2.9490   -4.3330    1.8700 h1        1 F2I      0.121000
     56 H92        -6.8790   -3.4250    1.9620 ha        1 F2I      0.004200
     57 H111       -6.6390   -2.7890    1.9840 ha        1 F2I      0.004200
     58 H112       -4.3780   -4.1170    0.7740 h1        1 F2I      0.121000
     59 H121       -4.8570   -6.0140    3.9340 hc        1 F2I      0.110667
     60 H122       -6.3320   -5.6350    2.9660 hc        1 F2I      0.110667
     61 H123       -4.8460   -6.2800    2.1290 hc        1 F2I      0.110667
     62 H141       -4.9070   -2.0140    3.3630 h1        1 F2I      0.148000
     63 H142       -3.9740    1.7360    3.0670 ha        1 F2I      0.004200
     64 H143       -3.7880    1.5080    2.4530 ha        1 F2I      0.004200
     65 H16         3.2900   -1.0040   -1.1570 h1        1 F2I      0.123000
     66 H181       -2.6320   -5.1140   -0.3240 ha        1 F2I      0.004200
     67 H182       -2.3080   -5.6870   -0.4850 ha        1 F2I      0.004200
     68 HN2         1.5140   -3.9300   -0.9540 hn        1 F2I      0.201000
     69 H191       -0.7240   -2.4900   -2.3170 h1        1 F2I      0.142500
     70 H192       -0.9260   -3.9820   -1.2870 h1        1 F2I      0.142500
     71 H23         3.3760   -7.0970   -4.5160 ha        1 F2I      0.158000
     72 H25        -0.9850   -4.5230   -3.7460 ha        1 F2I      0.165000
     73 H27         1.9740    2.8790    1.1720 ha        1 F2I      0.161000
     74 H29         1.6590   -0.3020    4.1200 ha        1 F2I      0.161000
     75 H31         1.1360    3.8390    5.3270 ha        1 F2I      0.169000
     76 HO2         4.1100   -2.3530    0.5970 ho        1 F2I      0.215000
     77 F           1.5150    4.8090    2.9000 f         1 F2I     -0.096500
     78 C6         -2.9820   -1.9190    0.5880 c2        1 F2I      0.352000
     79 C7         -5.3050    2.1700   -0.6320 c3        1 F2I     -0.158000
@<TRIPOS>BOND
     1    1    4 1   
     2    1   39 1   
     3    1   48 1   
     4    2    3 1   
     5    2    4 1   
     6    2   18 1   
     7    3   15 1   
     8    3   40 1   
     9    4   25 1   
    10    5    6 1   
    11    5   20 1   
    12    5   47 1   
    13    5   62 1   
    14    6   24 1   
    15    6   46 1   
    16    7    8 1   
    17    7   26 1   
    18    8   14 1   
    19    9   29 1   
    20    9   31 1   
    21    9   72 1   
    22   10   11 1   
    23   10   51 1   
    24   10   52 1   
    25   11   30 1   
    26   12   30 1   
    27   12   31 1   
    28   12   32 1   
    29   13   33 1   
    30   13   36 1   
    31   13   77 1   
    32   14   33 1   
    33   14   34 1   
    34   15   16 1   
    35   15   53 1   
    36   15   78 1   
    37   16   17 1   
    38   17   18 1   
    39   17   79 1   
    40   18   54 1   
    41   19   78 1   
    42   20   21 1   
    43   20   78 1   
    44   21   22 1   
    45   21   55 1   
    46   21   58 1   
    47   22   23 1   
    48   23   59 1   
    49   23   60 1   
    50   23   61 1   
    51   26   27 1   
    52   26   38 1   
    53   26   65 1   
    54   27   28 1   
    55   28   29 1   
    56   28   68 1   
    57   29   69 1   
    58   29   70 1   
    59   30   71 1   
    60   33   73 1   
    61   34   35 1   
    62   34   74 1   
    63   35   36 1   
    64   35   37 1   
    65   36   75 1   
    66   38   76 1   
    67   41   79 1   
    68   42   79 1   
    69   43   79 1   
    70   44   45 1   
    71   49   50 1   
    72   56   57 1   
    73   63   64 1   
    74   66   67 1   
@<TRIPOS>SUBSTRUCTURE
     1 F2I         1 TEMP              0 ****  ****    0 ROOT
