@<TRIPOS>MOLECULE
F2I
   79    81     1     0     0
SMALL
bcc


@<TRIPOS>ATOM
      1 N1          0.3600    1.7130    4.1960 n         1 F2I     -0.570900
      2 C4         -0.9000    2.5150    2.2490 ca        1 F2I     -0.144600
      3 C5         -2.1840    2.3800    2.7840 ca        1 F2I     -0.085000
      4 C8          0.2610    1.7720    2.8180 c         1 F2I      0.673700
      5 C10        -4.1190    4.1090    4.7860 c3        1 F2I      0.091500
      6 C13        -3.4950    3.3860    5.9850 c3        1 F2I     -0.100900
      7 C15         1.5250    1.1760    4.8590 c3        1 F2I      0.073700
      8 C17         1.7750    1.8420    6.2250 c3        1 F2I     -0.055100
      9 C20        -1.1220   -4.3350    6.3090 ca        1 F2I     -0.096300
     10 C21        -0.3800   -4.7940    7.4020 ca        1 F2I     -0.092000
     11 C22        -0.3690   -6.1520    7.7150 ca        1 F2I     -0.138000
     12 C24        -1.8420   -6.6020    5.8560 ca        1 F2I      0.020900
     13 C26         3.3600    5.2250    5.6040 ca        1 F2I      0.157900
     14 C28         1.9520    3.3150    6.1020 ca        1 F2I     -0.032300
     15 C          -3.2450    3.0770    2.2020 ca        1 F2I     -0.130600
     16 C1         -3.0290    3.9010    1.0940 ca        1 F2I     -0.074000
     17 C2         -1.7430    4.0350    0.5580 ca        1 F2I     -0.081300
     18 C3         -0.6790    3.3340    1.1370 ca        1 F2I     -0.068000
     19 O          -5.4930    2.3330    1.9580 o         1 F2I     -0.589100
     20 N          -4.9810    3.2870    3.9740 n         1 F2I     -0.472800
     21 C9         -6.3340    3.0830    4.4470 c3        1 F2I      0.091500
     22 C11        -7.3090    4.2180    4.1300 c3        1 F2I     -0.100900
     23 C12        -8.6690    3.9080    4.7000 c3        1 F2I     -0.097100
     24 C14        -2.8180    4.3770    6.8950 c3        1 F2I     -0.097100
     25 O1          1.1060    1.2110    2.0910 o         1 F2I     -0.605100
     26 C16         1.4920   -0.3650    5.0590 c3        1 F2I      0.126100
     27 C18         0.0920   -0.8900    5.4230 c3        1 F2I      0.142800
     28 N2          0.1350   -2.2470    5.9300 n3        1 F2I     -0.825200
     29 C19        -1.1740   -2.8720    5.9790 c3        1 F2I      0.209100
     30 C23        -1.1000   -7.0580    6.9460 ca        1 F2I     -0.094000
     31 C25        -1.8510   -5.2450    5.5350 ca        1 F2I     -0.091000
     32 I          -2.9040   -7.9090    4.7370 i         1 F2I     -0.144900
     33 C27         3.1920    3.8330    5.7190 ca        1 F2I     -0.183500
     34 C29         0.8830    4.1730    6.3700 ca        1 F2I     -0.183500
     35 C30         1.0580    5.5640    6.2480 ca        1 F2I      0.157900
     36 C31         2.2960    6.1040    5.8660 ca        1 F2I     -0.206000
     37 F1          0.0170    6.3930    6.5010 f         1 F2I     -0.132900
     38 O2          1.9900   -1.0320    3.9170 oh        1 F2I     -0.601800
     39 HN1        -0.2840    2.2280    4.7490 hn        1 F2I      0.313500
     40 H5         -2.3730    1.7130    3.6400 ha        1 F2I      0.145000
     41 H71        -2.2290    5.7500   -0.6460 hc        1 F2I      0.051367
     42 H72        -0.4720    5.2940   -0.6380 hc        1 F2I      0.051367
     43 H73        -1.6660    4.2910   -1.5630 hc        1 F2I      0.051367
     44 H101       -4.7230    4.9810    5.1750 h1        1 F2I      0.056450
     45 H102       -3.2870    4.5290    4.1520 h1        1 F2I      0.056450
     46 H131       -4.2820    2.8280    6.5570 hc        1 F2I      0.044700
     47 H132       -2.7500    2.6300    5.6220 hc        1 F2I      0.044700
     48 H15         2.4250    1.3800    4.1940 h1        1 F2I      0.089700
     49 H171        0.9280    1.6070    6.9240 hc        1 F2I      0.068700
     50 H172        2.7070    1.3900    6.6600 hc        1 F2I      0.068700
     51 H21         0.1960   -4.0810    8.0110 ha        1 F2I      0.149000
     52 H22         0.2170   -6.5130    8.5730 ha        1 F2I      0.138000
     53 H1         -3.8770    4.4290    0.6320 ha        1 F2I      0.152000
     54 H3          0.3350    3.4090    0.7120 ha        1 F2I      0.158000
     55 H91        -6.2910    2.9390    5.5650 h1        1 F2I      0.056450
     56 H92        -6.7300    2.1330    3.9840 h1        1 F2I      0.056450
     57 H111       -6.9320    5.1840    4.5560 hc        1 F2I      0.044700
     58 H112       -7.3840    4.3450    3.0180 hc        1 F2I      0.044700
     59 H121       -8.6180    3.7930    5.8100 hc        1 F2I      0.038033
     60 H122       -9.3820    4.7340    4.4640 hc        1 F2I      0.038033
     61 H123       -9.0710    2.9600    4.2670 hc        1 F2I      0.038033
     62 H141       -3.5610    5.0930    7.3230 hc        1 F2I      0.038033
     63 H142       -2.3190    3.8440    7.7410 hc        1 F2I      0.038033
     64 H143       -2.0430    4.9670    6.3450 hc        1 F2I      0.038033
     65 H16         2.2320   -0.6310    5.8690 h1        1 F2I      0.086700
     66 H181       -0.5740   -0.7990    4.5150 h1        1 F2I      0.032700
     67 H182       -0.3410   -0.2390    6.2340 h1        1 F2I      0.032700
     68 HN2         0.7770   -2.8010    5.3910 hn        1 F2I      0.378800
     69 H191       -1.7470   -2.7330    5.0120 h1        1 F2I      0.038200
     70 H192       -1.7630   -2.3470    6.7880 h1        1 F2I      0.038200
     71 H23        -1.0850   -8.1280    7.2050 ha        1 F2I      0.144000
     72 H25        -2.4320   -4.8810    4.6720 ha        1 F2I      0.144000
     73 H27         4.0370    3.1630    5.5050 ha        1 F2I      0.154500
     74 H29        -0.0960    3.7790    6.6820 ha        1 F2I      0.154500
     75 H31         2.4310    7.1910    5.7740 ha        1 F2I      0.168000
     76 HO2         1.5320   -0.6870    3.1370 ho        1 F2I      0.427000
     77 F           4.5620    5.7260    5.2370 f         1 F2I     -0.132900
     78 C6         -4.6440    2.8790    2.6900 c         1 F2I      0.668700
     79 C7         -1.5150    4.8910   -0.6290 c3        1 F2I     -0.057800
@<TRIPOS>BOND
     1    1    4 1   
     2    1    7 1   
     3    1   39 1   
     4    2    3 ar  
     5    2    4 1   
     6    2   18 ar  
     7    3   15 ar  
     8    3   40 1   
     9    4   25 2   
    10    5    6 1   
    11    5   20 1   
    12    5   44 1   
    13    5   45 1   
    14    6   24 1   
    15    6   46 1   
    16    6   47 1   
    17    7    8 1   
    18    7   26 1   
    19    7   48 1   
    20    8   14 1   
    21    8   49 1   
    22    8   50 1   
    23    9   10 ar  
    24    9   29 1   
    25    9   31 ar  
    26   10   11 ar  
    27   10   51 1   
    28   11   30 ar  
    29   11   52 1   
    30   12   30 ar  
    31   12   31 ar  
    32   12   32 1   
    33   13   33 ar  
    34   13   36 ar  
    35   13   77 1   
    36   14   33 ar  
    37   14   34 ar  
    38   15   16 ar  
    39   15   78 1   
    40   16   17 ar  
    41   16   53 1   
    42   17   18 ar  
    43   17   79 1   
    44   18   54 1   
    45   19   78 2   
    46   20   21 1   
    47   20   78 1   
    48   21   22 1   
    49   21   55 1   
    50   21   56 1   
    51   22   23 1   
    52   22   57 1   
    53   22   58 1   
    54   23   59 1   
    55   23   60 1   
    56   23   61 1   
    57   24   62 1   
    58   24   63 1   
    59   24   64 1   
    60   26   27 1   
    61   26   38 1   
    62   26   65 1   
    63   27   28 1   
    64   27   66 1   
    65   27   67 1   
    66   28   29 1   
    67   28   68 1   
    68   29   69 1   
    69   29   70 1   
    70   30   71 1   
    71   31   72 1   
    72   33   73 1   
    73   34   35 ar  
    74   34   74 1   
    75   35   36 ar  
    76   35   37 1   
    77   36   75 1   
    78   38   76 1   
    79   41   79 1   
    80   42   79 1   
    81   43   79 1   
@<TRIPOS>SUBSTRUCTURE
     1 F2I         1 TEMP              0 ****  ****    0 ROOT
