@<TRIPOS>MOLECULE
F2P
   32    30     1     0     0
SMALL
bcc


@<TRIPOS>ATOM
      1 P1         -5.2030    0.2480   -2.2370 p3        1 F2P      2.516000
      2 O1         -3.6220    0.2520   -2.2260 o         1 F2P     -0.746000
      3 C1         -2.9590    0.0540   -0.9990 c3        1 F2P      0.044000
      4 C2         -1.4650    0.0330   -1.2310 c3        1 F2P     -0.019000
      5 O2         -1.0830    1.1950   -1.9290 oh        1 F2P     -0.398000
      6 C3         -0.7490   -0.0140    0.0990 c3        1 F2P     -0.008000
      7 O3         -1.1640   -1.1530    0.8150 oh        1 F2P     -0.338000
      8 C4          0.7430   -0.0800   -0.1340 c3        1 F2P      0.006000
      9 O4          1.1800    1.1200   -0.7250 oh        1 F2P     -0.340000
     10 C5          1.4510   -0.2770    1.1870 c3        1 F2P      0.014000
     11 O5          1.2800   -1.6070    1.6170 oh        1 F2P     -0.401000
     12 C6          2.9250    0.0120    1.0170 c3        1 F2P      0.046000
     13 O6          3.6120   -0.3410    2.1950 os        1 F2P     -0.750000
     14 O11        -5.6970    0.6000   -3.6200 o         1 F2P     -1.258000
     15 O12        -5.7050   -1.1240   -1.8560 o         1 F2P     -1.258000
     16 O13        -5.7150    1.2650   -1.2450 o         1 F2P     -1.258000
     17 P6          5.1490    0.0110    2.3050 p5        1 F2P      1.559500
     18 O61         5.8820   -0.5580    1.1140 o         1 F2P     -0.940500
     19 O62         5.3210    1.5110    2.3340 o         1 F2P     -0.940500
     20 O63         5.7120   -0.5840    3.5740 o         1 F2P     -0.940500
     21 H1C1       -3.1840    0.7820   -0.3840 h1        1 F2P      0.048000
     22 H1C2       -3.2410   -0.8000   -0.6100 h1        1 F2P      0.048000
     23 H2         -1.2280   -0.7560   -1.7570 h1        1 F2P      0.060000
     24 HA         -1.2700    1.0970   -2.7930 ho        1 F2P      0.247000
     25 H3         -0.9630    0.7900    0.6130 h1        1 F2P      0.100000
     26 HB         -1.5440   -0.9010    1.5790 ho        1 F2P      0.210000
     27 H4          0.9470   -0.8300   -0.7270 h1        1 F2P      0.072000
     28 HC          1.7070    0.9350   -1.4170 ho        1 F2P      0.206000
     29 H5          1.0740    0.3310    1.8530 h1        1 F2P      0.072000
     30 HD          1.4860   -1.6680    2.4800 ho        1 F2P      0.246000
     31 H6C1        3.0520    0.9670    0.8390 h1        1 F2P      0.051500
     32 H6C2        3.2760   -0.5100    0.2660 h1        1 F2P      0.051500
@<TRIPOS>BOND
     1    1   14 1   
     2    1   15 1   
     3    1   16 1   
     4    2    3 1   
     5    3    4 1   
     6    3   21 1   
     7    3   22 1   
     8    4    5 1   
     9    4    6 1   
    10    4   23 1   
    11    5   24 1   
    12    6    7 1   
    13    6    8 1   
    14    6   25 1   
    15    7   26 1   
    16    8    9 1   
    17    8   10 1   
    18    8   27 1   
    19    9   28 1   
    20   10   11 1   
    21   10   12 1   
    22   10   29 1   
    23   11   30 1   
    24   12   13 1   
    25   12   31 1   
    26   12   32 1   
    27   13   17 1   
    28   17   18 1   
    29   17   19 1   
    30   17   20 1   
@<TRIPOS>SUBSTRUCTURE
     1 F2P         1 TEMP              0 ****  ****    0 ROOT
