@<TRIPOS>MOLECULE
F2P
   32    31     1     0     0
SMALL
bcc


@<TRIPOS>ATOM
      1 P1         -0.0700    0.0200   -0.3400 p5        1 F2P      1.324900
      2 O1          1.3540    0.6710    0.4180 os        1 F2P     -0.588200
      3 C1          1.8100    0.0400    1.5520 c3        1 F2P      0.199400
      4 C2          3.3620   -0.0680    1.5120 c3        1 F2P      0.120100
      5 O2          3.9330    0.9060    0.6500 oh        1 F2P     -0.674800
      6 C3          4.0230    0.1200    2.9040 c3        1 F2P      0.108100
      7 O3          3.2100   -0.5980    3.8200 oh        1 F2P     -0.610800
      8 C4          5.4930   -0.3700    2.9650 c3        1 F2P      0.108100
      9 O4          6.3070    0.3490    2.0490 oh        1 F2P     -0.610800
     10 C5          6.1540   -0.1830    4.3560 c3        1 F2P      0.120100
     11 O5          5.5840   -1.1590    5.2170 oh        1 F2P     -0.674800
     12 C6          7.7060   -0.2890    4.3170 c3        1 F2P      0.199400
     13 O6          8.1620   -0.9200    5.4500 os        1 F2P     -0.588200
     14 O11         0.0600    0.5880   -1.7300 o         1 F2P     -0.939500
     15 O12         0.1190   -1.4700   -0.2190 o         1 F2P     -0.939500
     16 O13        -1.1940    0.5910    0.4850 o         1 F2P     -0.939500
     17 P6          9.5850   -0.2690    6.2090 p5        1 F2P      1.324900
     18 O61        10.7100   -0.8380    5.3840 o         1 F2P     -0.939500
     19 O62         9.3950    1.2200    6.0900 o         1 F2P     -0.939500
     20 O63         9.4560   -0.8380    7.5980 o         1 F2P     -0.939500
     21 H1C1        1.3740   -0.9930    1.6400 h1        1 F2P      0.013700
     22 H1C2        1.5440    0.6400    2.4710 h1        1 F2P      0.013700
     23 H2          3.6570   -1.0770    1.1110 h1        1 F2P      0.021700
     24 HA          3.2160    1.2700    0.1050 ho        1 F2P      0.451000
     25 H3          4.0050    1.2150    3.1670 h1        1 F2P      0.027700
     26 HB          3.6820   -0.6210    4.6600 ho        1 F2P      0.411000
     27 H4          5.5110   -1.4640    2.7000 h1        1 F2P      0.027700
     28 HC          5.8350    0.3720    1.2080 ho        1 F2P      0.411000
     29 H5          5.8580    0.8250    4.7600 h1        1 F2P      0.021700
     30 HD          6.3010   -1.5230    5.7630 ho        1 F2P      0.451000
     31 H6C1        8.1410    0.7440    4.2300 h1        1 F2P      0.013700
     32 H6C2        7.9730   -0.8880    3.3970 h1        1 F2P      0.013700
@<TRIPOS>BOND
     1    1    2 1   
     2    1   14 1   
     3    1   15 1   
     4    1   16 1   
     5    2    3 1   
     6    3    4 1   
     7    3   21 1   
     8    3   22 1   
     9    4    5 1   
    10    4    6 1   
    11    4   23 1   
    12    5   24 1   
    13    6    7 1   
    14    6    8 1   
    15    6   25 1   
    16    7   26 1   
    17    8    9 1   
    18    8   10 1   
    19    8   27 1   
    20    9   28 1   
    21   10   11 1   
    22   10   12 1   
    23   10   29 1   
    24   11   30 1   
    25   12   13 1   
    26   12   31 1   
    27   12   32 1   
    28   13   17 1   
    29   17   18 1   
    30   17   19 1   
    31   17   20 1   
@<TRIPOS>SUBSTRUCTURE
     1 F2P         1 TEMP              0 ****  ****    0 ROOT
