@<TRIPOS>MOLECULE
F2P
   32    31     1     0     0
SMALL
bcc


@<TRIPOS>ATOM
      1 P1         -0.0300    0.0240   -0.3590 p5        1 F2P      1.324900
      2 O1          1.5590    0.4660    0.2000 os        1 F2P     -0.586200
      3 C1          1.8380    0.2340    1.5250 c3        1 F2P      0.195400
      4 C2          3.2840   -0.3130    1.6830 c3        1 F2P      0.108600
      5 O2          4.1060    0.0220    0.5740 oh        1 F2P     -0.672300
      6 C3          3.9880    0.2170    2.9570 c3        1 F2P      0.110100
      7 O3          3.3330   -0.2860    4.1070 oh        1 F2P     -0.611800
      8 C4          5.5040   -0.1030    2.9530 c3        1 F2P      0.110100
      9 O4          6.1890    0.9450    2.2780 oh        1 F2P     -0.611800
     10 C5          6.1250   -0.2370    4.3630 c3        1 F2P      0.108600
     11 O5          5.6990   -1.5040    4.8530 oh        1 F2P     -0.672300
     12 C6          7.6740   -0.1110    4.3670 c3        1 F2P      0.195400
     13 O6          8.2110   -0.9500    5.3150 os        1 F2P     -0.586200
     14 O11         0.1990   -0.0720   -1.8450 o         1 F2P     -0.939500
     15 O12        -0.2970   -1.2770    0.3520 o         1 F2P     -0.939500
     16 O13        -0.8840    1.1820    0.0890 o         1 F2P     -0.939500
     17 P6          9.5600   -0.3520    6.2330 p5        1 F2P      1.324900
     18 O61        10.7320   -0.5730    5.3110 o         1 F2P     -0.939500
     19 O62         9.2090    1.0910    6.4810 o         1 F2P     -0.939500
     20 O63         9.5150   -1.2550    7.4390 o         1 F2P     -0.939500
     21 H1C1        1.1150   -0.5090    1.9620 h1        1 F2P      0.010450
     22 H1C2        1.7810    1.1980    2.1140 h1        1 F2P      0.010450
     23 H2          3.2500   -1.4380    1.7370 h1        1 F2P      0.026700
     24 HA          3.5180    0.3170   -0.1410 ho        1 F2P      0.447500
     25 H3          3.8520    1.3340    3.0200 h1        1 F2P      0.046700
     26 HB          3.6600   -1.1840    4.2480 ho        1 F2P      0.409000
     27 H4          5.6640   -1.0700    2.3980 h1        1 F2P      0.046700
     28 HC          5.7940    0.9910    1.3970 ho        1 F2P      0.409000
     29 H5          5.6750    0.5460    5.0330 h1        1 F2P      0.026700
     30 HD          6.4450   -1.8830    5.3470 ho        1 F2P      0.447500
     31 H6C1        7.9550    0.9580    4.5720 h1        1 F2P      0.010450
     32 H6C2        8.0310   -0.4010    3.3340 h1        1 F2P      0.010450
@<TRIPOS>BOND
     1    1    2 1   
     2    1   14 1   
     3    1   15 1   
     4    1   16 1   
     5    2    3 1   
     6    3    4 1   
     7    3   21 1   
     8    3   22 1   
     9    4    5 1   
    10    4    6 1   
    11    4   23 1   
    12    5   24 1   
    13    6    7 1   
    14    6    8 1   
    15    6   25 1   
    16    7   26 1   
    17    8    9 1   
    18    8   10 1   
    19    8   27 1   
    20    9   28 1   
    21   10   11 1   
    22   10   12 1   
    23   10   29 1   
    24   11   30 1   
    25   12   13 1   
    26   12   31 1   
    27   12   32 1   
    28   13   17 1   
    29   17   18 1   
    30   17   19 1   
    31   17   20 1   
@<TRIPOS>SUBSTRUCTURE
     1 F2P         1 TEMP              0 ****  ****    0 ROOT
