@<TRIPOS>MOLECULE
F2P
   32    31     1     0     0
SMALL
bcc


@<TRIPOS>ATOM
      1 P1          5.6030    0.3990   -0.2220 p5        1 F2P      1.325900
      2 O1          4.2620    0.0560    0.7990 os        1 F2P     -0.586200
      3 C1          3.1920   -0.5760    0.2030 c3        1 F2P      0.201400
      4 C2          1.9480    0.3470    0.2030 c3        1 F2P      0.120100
      5 O2          2.1400    1.4470   -0.6700 oh        1 F2P     -0.702800
      6 C3          0.6410   -0.3680   -0.2360 c3        1 F2P      0.109100
      7 O3          0.6980   -1.6860    0.2910 oh        1 F2P     -0.624800
      8 C4         -0.6410    0.3680    0.2360 c3        1 F2P      0.109100
      9 O4         -0.6980    1.6860   -0.2910 oh        1 F2P     -0.624800
     10 C5         -1.9480   -0.3470   -0.2030 c3        1 F2P      0.120100
     11 O5         -2.1400   -1.4470    0.6700 oh        1 F2P     -0.702800
     12 C6         -3.1920    0.5760   -0.2030 c3        1 F2P      0.201400
     13 O6         -4.2620   -0.0560   -0.7990 os        1 F2P     -0.586200
     14 O11         6.6240    0.9770    0.7230 o         1 F2P     -0.938167
     15 O12         5.9640   -0.9360   -0.8200 o         1 F2P     -0.938167
     16 O13         4.9660    1.3800   -1.1820 o         1 F2P     -0.938167
     17 P6         -5.6030   -0.3990    0.2220 p5        1 F2P      1.325900
     18 O61        -4.9660   -1.3800    1.1820 o         1 F2P     -0.938167
     19 O62        -5.9640    0.9360    0.8200 o         1 F2P     -0.938167
     20 O63        -6.6240   -0.9770   -0.7230 o         1 F2P     -0.938167
     21 H1C1        2.9300   -1.5040    0.7890 h1        1 F2P      0.008200
     22 H1C2        3.4360   -0.8640   -0.8570 h1        1 F2P      0.008200
     23 H2          1.7970    0.7540    1.2420 h1        1 F2P      0.013700
     24 HA          3.1130    1.5150   -0.8500 ho        1 F2P      0.494000
     25 H3          0.6220   -0.4280   -1.3600 h1        1 F2P      0.028700
     26 HB         -0.2030   -2.0320    0.3050 ho        1 F2P      0.418000
     27 H4         -0.6220    0.4280    1.3600 h1        1 F2P      0.028700
     28 HC          0.2030    2.0320   -0.3050 ho        1 F2P      0.418000
     29 H5         -1.7970   -0.7540   -1.2420 h1        1 F2P      0.013700
     30 HD         -3.1130   -1.5150    0.8500 ho        1 F2P      0.494000
     31 H6C1       -3.4360    0.8640    0.8570 h1        1 F2P      0.008200
     32 H6C2       -2.9300    1.5040   -0.7890 h1        1 F2P      0.008200
@<TRIPOS>BOND
     1    1    2 1   
     2    1   14 1   
     3    1   15 1   
     4    1   16 1   
     5    2    3 1   
     6    3    4 1   
     7    3   21 1   
     8    3   22 1   
     9    4    5 1   
    10    4    6 1   
    11    4   23 1   
    12    5   24 1   
    13    6    7 1   
    14    6    8 1   
    15    6   25 1   
    16    7   26 1   
    17    8    9 1   
    18    8   10 1   
    19    8   27 1   
    20    9   28 1   
    21   10   11 1   
    22   10   12 1   
    23   10   29 1   
    24   11   30 1   
    25   12   13 1   
    26   12   31 1   
    27   12   32 1   
    28   13   17 1   
    29   17   18 1   
    30   17   19 1   
    31   17   20 1   
@<TRIPOS>SUBSTRUCTURE
     1 F2P         1 TEMP              0 ****  ****    0 ROOT
