@<TRIPOS>MOLECULE
F2U
   30    31     1     0     0
SMALL
bcc


@<TRIPOS>ATOM
      1 O01         0.0160   -0.8160    0.3440 oh        1 F2U     -0.589800
      2 C03         1.4250   -0.8050    0.2710 c3        1 F2U      0.118400
      3 C06         2.0230    0.0040    1.4210 c3        1 F2U      0.103100
      4 O08         1.6900   -0.6410    2.6650 os        1 F2U     -0.418600
      5 C09         3.5480    0.1260    1.3220 c3        1 F2U      0.094100
      6 O11         3.8530    1.4720    1.0460 oh        1 F2U     -0.570800
      7 C13         4.0880   -0.3030    2.7330 c3        1 F2U      0.353600
      8 F14         5.2260   -1.0650    2.6700 f         1 F2U     -0.216800
      9 F15         4.5120    0.7710    3.4850 f         1 F2U     -0.216800
     10 C16         2.8380   -0.9970    3.4300 c3        1 F2U      0.280500
     11 N18         2.9360   -2.4360    3.6040 n         1 F2U     -0.380000
     12 C19         3.2520   -3.2930    2.5100 c         1 F2U      0.818500
     13 O20         3.5460   -2.8240    1.3890 o         1 F2U     -0.650500
     14 N21         3.2450   -4.6750    2.7210 n         1 F2U     -0.582500
     15 C23         2.9070   -5.2770    3.9490 c         1 F2U      0.723700
     16 O24         2.9380   -6.5130    4.0260 o         1 F2U     -0.580500
     17 C25         2.5380   -4.3450    5.0380 cc        1 F2U     -0.093900
     18 C26         2.5540   -2.9940    4.8170 cd        1 F2U      0.063600
     19 C28         2.1780   -4.8800    6.2810 cg        1 F2U     -0.160300
     20 C29         1.8720   -5.3500    7.3390 c1        1 F2U     -0.099500
     21 H1         -0.2210   -1.2230    1.1880 ho        1 F2U      0.409000
     22 H2          1.8320   -1.8510    0.2750 h1        1 F2U      0.070700
     23 H3          1.6630   -0.3000   -0.7040 h1        1 F2U      0.070700
     24 H4          1.5390    1.0210    1.4760 h1        1 F2U      0.107700
     25 H5          3.9780   -0.5660    0.5470 h1        1 F2U      0.105700
     26 H6          4.8160    1.5550    1.0680 ho        1 F2U      0.422000
     27 H7          2.6830   -0.5270    4.4500 h2        1 F2U      0.110700
     28 H8          3.5000   -5.2520    1.9460 hn        1 F2U      0.358500
     29 H9          2.2720   -2.2800    5.6150 h4        1 F2U      0.175000
     30 H10         1.6010   -5.7710    8.2740 ha        1 F2U      0.173500
@<TRIPOS>BOND
     1    1    2 1   
     2    1   21 1   
     3    2    3 1   
     4    2   22 1   
     5    2   23 1   
     6    3    4 1   
     7    3    5 1   
     8    3   24 1   
     9    4   10 1   
    10    5    6 1   
    11    5    7 1   
    12    5   25 1   
    13    6   26 1   
    14    7    8 1   
    15    7    9 1   
    16    7   10 1   
    17   10   11 1   
    18   10   27 1   
    19   11   12 1   
    20   11   18 1   
    21   12   13 2   
    22   12   14 1   
    23   14   15 1   
    24   14   28 1   
    25   15   16 2   
    26   15   17 1   
    27   17   18 2   
    28   17   19 1   
    29   18   29 1   
    30   19   20 3   
    31   20   30 1   
@<TRIPOS>SUBSTRUCTURE
     1 F2U         1 TEMP              0 ****  ****    0 ROOT
