@<TRIPOS>MOLECULE
F2U
   30    31     1     0     0
SMALL
bcc


@<TRIPOS>ATOM
      1 O01         0.0010   -0.7890    0.4210 oh        1 F2U     -0.589800
      2 C03         1.4070   -0.7690    0.3180 c3        1 F2U      0.118400
      3 C06         2.0250    0.0390    1.4580 c3        1 F2U      0.103100
      4 O08         1.7210   -0.6130    2.7060 os        1 F2U     -0.418600
      5 C09         3.5460    0.1690    1.3280 c3        1 F2U      0.094100
      6 O11         3.8390    1.5180    1.0510 oh        1 F2U     -0.570800
      7 C13         4.1180   -0.2630    2.7260 c3        1 F2U      0.353600
      8 F14         5.2590   -1.0180    2.6370 f         1 F2U     -0.216800
      9 F15         4.5520    0.8110    3.4720 f         1 F2U     -0.216800
     10 C16         2.8860   -0.9650    3.4460 c3        1 F2U      0.280500
     11 N18         2.9960   -2.4050    3.6130 n         1 F2U     -0.380000
     12 C19         3.2930   -3.2560    2.5090 c         1 F2U      0.818500
     13 O20         3.5610   -2.7820    1.3850 o         1 F2U     -0.650500
     14 N21         3.2970   -4.6390    2.7160 n         1 F2U     -0.582500
     15 C23         2.9880   -5.2460    3.9480 c         1 F2U      0.723700
     16 O24         3.0270   -6.4820    4.0200 o         1 F2U     -0.580500
     17 C25         2.6370   -4.3200    5.0480 cc        1 F2U     -0.093900
     18 C26         2.6420   -2.9690    4.8310 cd        1 F2U      0.063600
     19 C28         2.3060   -4.8610    6.2960 cg        1 F2U     -0.160300
     20 C29         2.0240   -5.3370    7.3590 c1        1 F2U     -0.099500
     21 H1         -0.2170   -1.2000    1.2680 ho        1 F2U      0.409000
     22 H2          1.8190   -1.8130    0.3090 h1        1 F2U      0.070700
     23 H3          1.6230   -0.2600   -0.6600 h1        1 F2U      0.070700
     24 H4          1.5370    1.0530    1.5270 h1        1 F2U      0.107700
     25 H5          3.9640   -0.5180    0.5410 h1        1 F2U      0.105700
     26 H6          4.8020    1.6050    1.0530 ho        1 F2U      0.422000
     27 H7          2.7500   -0.5000    4.4710 h2        1 F2U      0.110700
     28 H8          3.5390   -5.2110    1.9340 hn        1 F2U      0.358500
     29 H9          2.3730   -2.2590    5.6380 h4        1 F2U      0.175000
     30 H10         1.7750   -5.7620    8.2980 ha        1 F2U      0.173500
@<TRIPOS>BOND
     1    1    2 1   
     2    1   21 1   
     3    2    3 1   
     4    2   22 1   
     5    2   23 1   
     6    3    4 1   
     7    3    5 1   
     8    3   24 1   
     9    4   10 1   
    10    5    6 1   
    11    5    7 1   
    12    5   25 1   
    13    6   26 1   
    14    7    8 1   
    15    7    9 1   
    16    7   10 1   
    17   10   11 1   
    18   10   27 1   
    19   11   12 1   
    20   11   18 1   
    21   12   13 2   
    22   12   14 1   
    23   14   15 1   
    24   14   28 1   
    25   15   16 2   
    26   15   17 1   
    27   17   18 2   
    28   17   19 1   
    29   18   29 1   
    30   19   20 3   
    31   20   30 1   
@<TRIPOS>SUBSTRUCTURE
     1 F2U         1 TEMP              0 ****  ****    0 ROOT
