@<TRIPOS>MOLECULE
F2U
   30    31     1     0     0
SMALL
bcc


@<TRIPOS>ATOM
      1 O01        -0.0650   -0.9120    0.4230 oh        1 F2U     -0.579800
      2 C03         1.3410   -0.8640    0.3520 c3        1 F2U      0.116400
      3 C06         1.9450   -0.0090    1.4660 c3        1 F2U      0.107100
      4 O08         1.6670   -0.5970    2.7470 os        1 F2U     -0.396600
      5 C09         3.4660    0.1400    1.3130 c3        1 F2U      0.091100
      6 O11         3.7320    1.4870    1.0010 oh        1 F2U     -0.574800
      7 C13         4.0620   -0.2540    2.7120 c3        1 F2U      0.354600
      8 F14         5.2090   -0.9990    2.6230 f         1 F2U     -0.217300
      9 F15         4.4940    0.8420    3.4260 f         1 F2U     -0.217300
     10 C16         2.8460   -0.9520    3.4620 c3        1 F2U      0.276500
     11 N18         2.9590   -2.3910    3.6370 n         1 F2U     -0.377000
     12 C19         3.2500   -3.2500    2.5380 c         1 F2U      0.821500
     13 O20         3.5330   -2.7840    1.4120 o         1 F2U     -0.655500
     14 N21         3.2400   -4.6310    2.7490 ns        1 F2U     -0.581500
     15 C23         2.9090   -5.2320    3.9790 c         1 F2U      0.725700
     16 O24         2.9330   -6.4680    4.0550 o         1 F2U     -0.581500
     17 C25         2.5570   -4.2980    5.0720 cc        1 F2U     -0.094900
     18 C26         2.5780   -2.9480    4.8510 cd        1 F2U      0.065600
     19 C28         2.2040   -4.8310    6.3180 cg        1 F2U     -0.158300
     20 C29         1.9050   -5.3000    7.3780 c1        1 F2U     -0.102500
     21 H1         -0.3910   -0.0040    0.3960 ho        1 F2U      0.398000
     22 H2          1.6720   -0.4430   -0.6350 h1        1 F2U      0.070200
     23 H3          1.6710   -1.9350    0.4450 h1        1 F2U      0.070200
     24 H4          1.4490    1.0040    1.4970 h1        1 F2U      0.091700
     25 H5          3.8830   -0.5560    0.5350 h1        1 F2U      0.107700
     26 H6          4.6930    1.5970    1.0110 ho        1 F2U      0.423000
     27 H7          2.7320   -0.4810    4.4870 h2        1 F2U      0.110700
     28 H8          3.4720   -5.2100    1.9680 hn        1 F2U      0.358500
     29 H9          2.3020   -2.2330    5.6510 h4        1 F2U      0.174000
     30 H10         1.6390   -5.7190    8.3160 ha        1 F2U      0.172500
@<TRIPOS>BOND
     1    1    2 1   
     2    1   21 1   
     3    2    3 1   
     4    2   22 1   
     5    2   23 1   
     6    3    4 1   
     7    3    5 1   
     8    3   24 1   
     9    4   10 1   
    10    5    6 1   
    11    5    7 1   
    12    5   25 1   
    13    6   26 1   
    14    7    8 1   
    15    7    9 1   
    16    7   10 1   
    17   10   11 1   
    18   10   27 1   
    19   11   12 1   
    20   11   18 1   
    21   12   13 2   
    22   12   14 1   
    23   14   15 1   
    24   14   28 1   
    25   15   16 2   
    26   15   17 1   
    27   17   18 2   
    28   17   19 1   
    29   18   29 1   
    30   19   20 3   
    31   20   30 1   
@<TRIPOS>SUBSTRUCTURE
     1 F2U         1 TEMP              0 ****  ****    0 ROOT
