@<TRIPOS>MOLECULE
F2Y
   23    23     1     0     0
SMALL
bcc


@<TRIPOS>ATOM
      1 OXT        -3.7920   -1.3340    0.7890 o         1 F2Y     -0.837300
      2 C          -3.6840   -0.2980    0.0760 c         1 F2Y      0.888600
      3 O          -4.6510    0.4170   -0.3100 o         1 F2Y     -0.837300
      4 CA         -2.2410    0.1110   -0.3810 c3        1 F2Y      0.020500
      5 N          -2.1730    1.3580   -1.1290 n3        1 F2Y     -0.887800
      6 CB         -1.3360    0.1030    0.8560 c3        1 F2Y     -0.038100
      7 CG          0.1100    0.0530    0.5130 ca        1 F2Y     -0.009300
      8 CD1         0.6510   -1.1200   -0.0280 ca        1 F2Y     -0.143500
      9 CE1         2.0150   -1.1850   -0.3400 ca        1 F2Y      0.085900
     10 F1          2.5560   -2.3150   -0.8670 f         1 F2Y     -0.148900
     11 CD2         0.9340    1.1600    0.7370 ca        1 F2Y     -0.143500
     12 CE2         2.3030    1.1090    0.4270 ca        1 F2Y      0.085900
     13 F2          3.0940    2.1870    0.6500 f         1 F2Y     -0.148900
     14 CZ          2.8550   -0.0720   -0.1140 ca        1 F2Y      0.025100
     15 OH          4.2050   -0.0850   -0.3880 oh        1 F2Y     -0.492100
     16 H2         -1.8890   -0.7050   -1.0780 h1        1 F2Y      0.043700
     17 H3         -2.8910    1.3190   -1.8350 hn        1 F2Y      0.332800
     18 H4         -2.4270    2.1110   -0.5140 hn        1 F2Y      0.332800
     19 H6         -1.5520    0.9990    1.4950 hc        1 F2Y      0.066700
     20 H7         -1.6130   -0.8130    1.4520 hc        1 F2Y      0.066700
     21 H8          0.0020   -1.9890   -0.2150 ha        1 F2Y      0.159000
     22 H9          0.5120    2.0900    1.1460 ha        1 F2Y      0.159000
     23 H10         4.3980   -0.9260   -0.8300 ho        1 F2Y      0.420000
@<TRIPOS>BOND
     1    1    2 1   
     2    2    3 1   
     3    2    4 1   
     4    4    5 1   
     5    4    6 1   
     6    4   16 1   
     7    5   17 1   
     8    5   18 1   
     9    6    7 1   
    10    6   19 1   
    11    6   20 1   
    12    7    8 ar  
    13    7   11 ar  
    14    8    9 ar  
    15    8   21 1   
    16    9   10 1   
    17    9   14 ar  
    18   11   12 ar  
    19   11   22 1   
    20   12   13 1   
    21   12   14 ar  
    22   14   15 1   
    23   15   23 1   
@<TRIPOS>SUBSTRUCTURE
     1 F2Y         1 TEMP              0 ****  ****    0 ROOT
