@<TRIPOS>MOLECULE
F2Y
   23    17     1     0     0
SMALL
bcc


@<TRIPOS>ATOM
      1 OXT        -1.2380   -1.6130    3.2330 o         1 F2Y     -0.574000
      2 C          -1.8930   -1.2100    2.2410 c1        1 F2Y      0.306000
      3 O          -3.0710   -0.7450    2.3990 o         1 F2Y     -0.574000
      4 CA         -1.3340   -1.3600    0.8750 c2        1 F2Y     -0.128000
      5 N          -2.0700   -2.3730    0.1650 n3        1 F2Y     -0.319000
      6 CB         -1.4470   -0.0310    0.1290 c3        1 F2Y     -0.106000
      7 CG         -0.0620    0.4450   -0.2730 c1        1 F2Y     -0.029000
      8 CD1         0.4100    0.1920   -1.5470 c1        1 F2Y     -0.159000
      9 CE1         1.6360    0.6960   -1.9430 c1        1 F2Y      0.063000
     10 F1          2.1200    0.4030   -3.1720 f         1 F2Y     -0.115000
     11 CD2         0.6910    1.2040    0.6080 c1        1 F2Y     -0.126000
     12 CE2         1.9190    1.7090    0.2100 c1        1 F2Y      0.017000
     13 F2          2.6200    2.5260    1.0420 f         1 F2Y     -0.115000
     14 CZ          2.3890    1.4530   -1.0670 c1        1 F2Y     -0.018000
     15 OH          3.6510    1.9970   -1.4920 o         1 F2Y     -0.249000
     16 H2         -0.3840   -1.6250    0.9360 h4        1 F2Y      0.087000
     17 H3         -1.7160   -2.4770   -0.6750 hn        1 F2Y      0.128500
     18 H4         -2.9400   -2.1230    0.0960 hn        1 F2Y      0.128500
     19 H6         -1.8720    0.6470    0.7210 hc        1 F2Y      0.090500
     20 H7         -1.9920   -0.1530   -0.6710 hc        1 F2Y      0.090500
     21 H8         -0.0840   -0.4100   -2.1400 ha        1 F2Y      0.145000
     22 H9          0.3510    1.3830    1.5380 ha        1 F2Y      0.234000
     23 H10         4.3150    1.4660   -1.2140 ho        1 F2Y      0.219000
@<TRIPOS>BOND
     1    1    2 1   
     2    2    3 1   
     3    4    5 1   
     4    4    6 1   
     5    4   16 1   
     6    5   17 1   
     7    5   18 1   
     8    6    7 1   
     9    6   19 1   
    10    6   20 1   
    11    7   11 1   
    12    8    9 1   
    13    8   21 1   
    14    9   14 1   
    15   11   22 1   
    16   12   14 1   
    17   15   23 1   
@<TRIPOS>SUBSTRUCTURE
     1 F2Y         1 TEMP              0 ****  ****    0 ROOT
