@<TRIPOS>MOLECULE
F32
   56    48     1     0     0
SMALL
bcc


@<TRIPOS>ATOM
      1 C1          0.0990    0.2010    5.6820 c3        1 F32     -0.701000
      2 C2         -1.0180    1.2990    6.4510 c3        1 F32     -0.165000
      3 C3         -0.3030    1.8920    7.3880 c2        1 F32      0.307000
      4 N4          1.1100    1.9260    6.8950 n         1 F32     -0.867000
      5 S5          1.2180    0.8580    5.5970 s6        1 F32      2.780000
      6 O6          2.3620   -0.0210    5.7110 o         1 F32     -0.908000
      7 O7          1.2800    1.6090    4.3200 o         1 F32     -0.908000
      8 O9         -0.7480    2.5260    8.3240 o         1 F32     -0.293000
      9 C11        -0.4100    0.0960    4.2100 c2        1 F32     -0.073000
     10 C12        -0.6590    1.2400    3.4860 c1        1 F32     -0.106000
     11 C13        -1.0660    1.1430    2.1450 c1        1 F32     -0.113000
     12 C14        -1.2210   -0.1270    1.5420 c1        1 F32     -0.054000
     13 C15        -0.9720   -1.2670    2.2690 c1        1 F32     -0.126000
     14 C16        -0.5660   -1.1740    3.6040 c2        1 F32     -0.105000
     15 C21        -1.8400   -0.2400    0.1320 c3        1 F32     -0.122000
     16 C22        -0.7390   -0.4220   -0.8830 c3        1 F32      0.079000
     17 N45        -0.3700    0.8480   -1.4200 n         1 F32     -0.243000
     18 C17        -3.0020   -3.8420   -5.3860 c1        1 F32     -0.129250
     19 C19        -2.0800   -3.9120   -4.3600 c1        1 F32     -0.093500
     20 C23        -1.8620   -2.7920   -3.5300 c1        1 F32     -0.113500
     21 C4         -2.5590   -1.6500   -3.7410 c1        1 F32     -0.113500
     22 C5         -3.4980   -1.5850   -4.7890 c1        1 F32     -0.093500
     23 C6         -3.7070   -2.6860   -5.6000 c1        1 F32     -0.129250
     24 N11        -1.0340   -2.5890   -2.4570 n1        1 F32     -0.177500
     25 C25        -1.2250   -1.3290   -2.0150 c2        1 F32     -0.039000
     26 N13        -2.1710   -0.7430   -2.8100 n1        1 F32     -0.177500
     27 C7          4.9210    2.6050   -4.2320 c1        1 F32     -0.129250
     28 C8          3.6260    3.0350   -3.9000 c1        1 F32     -0.093500
     29 C9          2.8040    2.2300   -3.1020 c1        1 F32     -0.113500
     30 C18         3.2790    0.9800   -2.6290 c1        1 F32     -0.113500
     31 C20         4.5710    0.5520   -2.9610 c1        1 F32     -0.093500
     32 C24         5.3950    1.3610   -3.7610 c1        1 F32     -0.129250
     33 S1          1.2950    2.3240   -2.7570 s         1 F32      0.408000
     34 C10         0.9030    1.0210   -2.0350 c2        1 F32     -0.089000
     35 N1          2.0630    0.2050   -1.9470 n1        1 F32     -0.196000
     36 H1          0.1260   -0.7280    5.9880 h1        1 F32      0.166000
     37 H2C1       -1.7850    0.8010    6.7640 hc        1 F32      0.142000
     38 H2C2       -1.4120    1.9240    5.8770 hc        1 F32      0.142000
     39 H4          1.8010    2.3320    7.3020 hn        1 F32      0.272000
     40 H12        -0.5520    2.1430    3.9180 ha        1 F32      0.145000
     41 H13        -1.2410    1.9460    1.6320 ha        1 F32      0.140000
     42 H15        -1.0800   -2.1460    1.8500 ha        1 F32      0.136000
     43 H16        -0.3890   -2.0000    4.1280 ha        1 F32      0.135000
     44 H211       -2.3330    0.5640   -0.0690 hc        1 F32      0.114500
     45 H212       -2.4710   -1.0420    0.1020 hc        1 F32      0.114500
     46 H22         0.0570   -0.8410   -0.4370 h1        1 F32      0.132000
     47 H45        -0.9480    1.5610   -1.3510 hn        1 F32      0.219000
     48 H17        -3.1530   -4.6150   -5.9580 ha        1 F32      0.134250
     49 H19        -1.6070   -4.6890   -4.2210 ha        1 F32      0.142000
     50 H5         -4.0160   -0.7410   -4.9470 ha        1 F32      0.142000
     51 H6         -4.3520   -2.6420   -6.3160 ha        1 F32      0.134250
     52 H11        -0.4940   -3.2130   -2.0750 DU        1 F32      0.272000
     53 H7          5.4750    3.1470   -4.7700 ha        1 F32      0.134250
     54 H8          3.2890    3.9210   -4.2350 ha        1 F32      0.142000
     55 H20         4.9030   -0.3160   -2.6310 ha        1 F32      0.142000
     56 H24         6.3030    1.0600   -3.9940 ha        1 F32      0.134250
@<TRIPOS>BOND
     1    1    2 1   
     2    1    5 1   
     3    1    9 1   
     4    1   36 1   
     5    2    3 1   
     6    2   37 1   
     7    2   38 1   
     8    3    4 1   
     9    3    8 1   
    10    4    5 1   
    11    4   39 1   
    12    5    6 1   
    13    5    7 1   
    14    9   10 1   
    15    9   14 1   
    16   10   40 1   
    17   11   12 1   
    18   11   41 1   
    19   12   15 1   
    20   13   14 1   
    21   13   42 1   
    22   14   43 1   
    23   15   16 1   
    24   15   44 1   
    25   15   45 1   
    26   16   17 1   
    27   16   25 1   
    28   16   46 1   
    29   17   34 1   
    30   17   47 1   
    31   18   23 1   
    32   18   48 1   
    33   19   20 1   
    34   19   49 1   
    35   21   22 1   
    36   22   50 1   
    37   23   51 1   
    38   24   25 1   
    39   25   26 1   
    40   27   32 1   
    41   27   53 1   
    42   28   29 1   
    43   28   54 1   
    44   30   31 1   
    45   31   55 1   
    46   32   56 1   
    47   33   34 1   
    48   34   35 1   
@<TRIPOS>SUBSTRUCTURE
     1 F32         1 TEMP              0 ****  ****    0 ROOT
