@<TRIPOS>MOLECULE
F32
   56    61     1     0     0
SMALL
bcc


@<TRIPOS>ATOM
      1 C1         -0.0610   -0.2490    0.3960 c3        1 F32     -0.193600
      2 C2          1.3610    0.2510    0.1610 c3        1 F32     -0.135400
      3 C3          2.1360    0.1070    1.4630 c         1 F32      0.699500
      4 N4          1.3980   -0.6010    2.4190 n         1 F32     -0.688300
      5 S5         -0.0900   -1.1110    1.9470 s6        1 F32      1.427600
      6 O6         -1.0950   -0.5530    2.7430 o         1 F32     -0.629300
      7 O7         -0.1100   -2.4990    1.7950 o         1 F32     -0.629300
      8 O9          3.2710    0.5480    1.6650 o         1 F32     -0.568500
      9 C11        -0.5810   -1.0210   -0.7590 ca        1 F32     -0.080300
     10 C12        -1.6730   -0.5310   -1.4860 ca        1 F32     -0.105500
     11 C13        -2.1590   -1.2330   -2.5870 ca        1 F32     -0.119000
     12 C14        -1.5610   -2.4340   -2.9830 ca        1 F32     -0.061300
     13 C15        -0.4730   -2.9260   -2.2520 ca        1 F32     -0.119000
     14 C16         0.0160   -2.2270   -1.1530 ca        1 F32     -0.105500
     15 C21        -2.0890   -3.1930   -4.1480 c3        1 F32     -0.036100
     16 C22        -1.1010   -3.1880   -5.3320 c3        1 F32      0.199200
     17 N45        -0.9460   -1.8580   -5.8960 nh        1 F32     -0.757200
     18 C17        -2.1580   -7.3740   -9.5700 ca        1 F32     -0.111000
     19 C19        -1.1210   -6.8220   -8.8360 ca        1 F32     -0.132000
     20 C23        -1.4460   -5.8150   -7.9170 ca        1 F32     -0.072200
     21 C4         -2.8200   -5.3690   -7.7410 ca        1 F32      0.061400
     22 C5         -3.8390   -5.9600   -8.5030 ca        1 F32     -0.069000
     23 C6         -3.4910   -6.9520   -9.4060 ca        1 F32     -0.153000
     24 N11        -0.6820   -5.0740   -7.0130 na        1 F32     -0.254300
     25 C25        -1.5780   -4.1970   -6.3630 cc        1 F32      0.361800
     26 N13        -2.8570   -4.3560   -6.7650 nd        1 F32     -0.570100
     27 C7          3.6160   -0.3320   -9.6800 ca        1 F32     -0.131000
     28 C8          2.4740    0.2610   -9.1590 ca        1 F32     -0.080000
     29 C9          1.6490   -0.4780   -8.3120 ca        1 F32     -0.097100
     30 C18         1.9750   -1.8360   -7.9860 ca        1 F32      0.117400
     31 C20         3.1410   -2.4170   -8.5240 ca        1 F32     -0.093000
     32 C24         3.9440   -1.6590   -9.3620 ca        1 F32     -0.120000
     33 S1          0.2180   -0.0230   -7.5340 ss        1 F32     -0.055100
     34 C10         0.0820   -1.6310   -6.8090 cc        1 F32      0.575100
     35 N1          1.0630   -2.4790   -7.1400 nd        1 F32     -0.619100
     36 H1         -0.7230    0.6580    0.5280 h1        1 F32      0.126700
     37 H2C1        1.8810   -0.3450   -0.6340 hc        1 F32      0.103200
     38 H2C2        1.3730    1.3250   -0.1550 hc        1 F32      0.103200
     39 H4          1.8190   -0.7480    3.3050 hn        1 F32      0.358500
     40 H12        -2.1540    0.4130   -1.1910 ha        1 F32      0.139500
     41 H13        -3.0190   -0.8370   -3.1480 ha        1 F32      0.137500
     42 H15        -0.0030   -3.8780   -2.5440 ha        1 F32      0.137500
     43 H16         0.8560   -2.6420   -0.5750 ha        1 F32      0.139500
     44 H211       -2.2520   -4.2660   -3.8530 hc        1 F32      0.076700
     45 H212       -3.0830   -2.7820   -4.4690 hc        1 F32      0.076700
     46 H22        -0.0890   -3.5130   -4.9390 h1        1 F32      0.093700
     47 H45        -1.8150   -1.4400   -6.1730 hn        1 F32      0.421800
     48 H19        -0.0840   -7.1570   -8.9670 ha        1 F32      0.137000
     49 H5         -4.8820   -5.6380   -8.3790 ha        1 F32      0.146000
     50 H6         -4.2750   -7.4270  -10.0140 ha        1 F32      0.133000
     51 H11         0.3030   -5.0130   -6.9910 hn        1 F32      0.321700
     52 H7          4.2740    0.2430  -10.3480 ha        1 F32      0.137000
     53 H8          2.2210    1.3020   -9.4090 ha        1 F32      0.140000
     54 H20         3.4030   -3.4560   -8.2770 ha        1 F32      0.146000
     55 H24         4.8560   -2.1040   -9.7870 ha        1 F32      0.136000
     56 H17        -1.9380   -8.1650  -10.3030 ha        1 F32      0.132000
@<TRIPOS>BOND
     1    1    2 1   
     2    1    5 1   
     3    1    9 1   
     4    1   36 1   
     5    2    3 1   
     6    2   37 1   
     7    2   38 1   
     8    3    4 1   
     9    3    8 2   
    10    4    5 1   
    11    4   39 1   
    12    5    6 2   
    13    5    7 2   
    14    9   10 ar  
    15    9   14 ar  
    16   10   11 ar  
    17   10   40 1   
    18   11   12 ar  
    19   11   41 1   
    20   12   13 ar  
    21   12   15 1   
    22   13   14 ar  
    23   13   42 1   
    24   14   43 1   
    25   15   16 1   
    26   15   44 1   
    27   15   45 1   
    28   16   17 1   
    29   16   25 1   
    30   16   46 1   
    31   17   34 1   
    32   17   47 1   
    33   18   19 ar  
    34   18   23 ar  
    35   18   56 1   
    36   19   20 ar  
    37   19   48 1   
    38   20   21 ar  
    39   20   24 1   
    40   21   22 ar  
    41   21   26 1   
    42   22   23 ar  
    43   22   49 1   
    44   23   50 1   
    45   24   25 1   
    46   24   51 1   
    47   25   26 2   
    48   27   28 ar  
    49   27   32 ar  
    50   27   52 1   
    51   28   29 ar  
    52   28   53 1   
    53   29   30 ar  
    54   29   33 1   
    55   30   31 ar  
    56   30   35 1   
    57   31   32 ar  
    58   31   54 1   
    59   32   55 1   
    60   33   34 1   
    61   34   35 2   
@<TRIPOS>SUBSTRUCTURE
     1 F32         1 TEMP              0 ****  ****    0 ROOT
