@<TRIPOS>MOLECULE
F32
   57    62     1     0     0
SMALL
bcc


@<TRIPOS>ATOM
      1 C1         -0.0370   -0.3460    0.3350 c3        1 F32     -0.208600
      2 C2          1.3170    0.3140    0.1060 c3        1 F32     -0.137400
      3 C3          2.0910    0.2800    1.4170 c         1 F32      0.700500
      4 N4          1.4330   -0.4990    2.3790 n         1 F32     -0.692300
      5 S5          0.0390   -1.2050    1.9040 s6        1 F32      1.440600
      6 O6         -1.0510   -0.7970    2.6690 o         1 F32     -0.622300
      7 O7          0.2060   -2.5740    1.6970 o         1 F32     -0.622300
      8 O9          3.1640    0.8530    1.6160 o         1 F32     -0.545500
      9 C11        -0.4640   -1.1770   -0.8160 ca        1 F32     -0.034300
     10 C12        -1.6030   -0.8160   -1.5500 ca        1 F32     -0.100000
     11 C13        -2.0250   -1.5920   -2.6270 ca        1 F32     -0.123500
     12 C14        -1.3150   -2.7430   -2.9900 ca        1 F32     -0.150300
     13 C15        -0.1770   -3.1040   -2.2590 ca        1 F32     -0.123500
     14 C16         0.2480   -2.3260   -1.1850 ca        1 F32     -0.100000
     15 C21        -1.7960   -3.5990   -4.1060 c3        1 F32     -0.057100
     16 C22        -0.9470   -3.4100   -5.3750 c3        1 F32      0.145200
     17 N45        -0.9520   -1.9490   -5.7900 n4        1 F32     -0.672000
     18 C17        -2.6730   -7.3850   -9.5700 ca        1 F32     -0.082000
     19 C19        -1.6950   -7.2010   -8.6080 ca        1 F32     -0.131000
     20 C23        -1.7440   -6.0110   -7.8650 ca        1 F32     -0.056200
     21 C4         -2.7790   -5.0170   -8.0950 ca        1 F32      0.061400
     22 C5         -3.7530   -5.2470   -9.0850 ca        1 F32     -0.062000
     23 C6         -3.6820   -6.4260   -9.8040 ca        1 F32     -0.134000
     24 N11        -0.9330   -5.5010   -6.8470 na        1 F32     -0.244300
     25 C25        -1.4990   -4.2660   -6.4810 cc        1 F32      0.316800
     26 N13        -2.5930   -3.9440   -7.2120 nd        1 F32     -0.570100
     27 C7          3.3910   -0.4850   -9.8950 ca        1 F32     -0.071000
     28 C8          2.0150   -0.6430   -9.8960 ca        1 F32     -0.096000
     29 C9          1.3700   -1.0080   -8.7090 ca        1 F32     -0.093100
     30 C18         2.1380   -1.2140   -7.5070 ca        1 F32      0.072400
     31 C20         3.5440   -1.0450   -7.5330 ca        1 F32     -0.052000
     32 C24         4.1470   -0.6840   -8.7220 ca        1 F32     -0.114000
     33 S1         -0.2580   -1.2730   -8.4060 ss        1 F32      0.167900
     34 C10         0.0900   -1.6230   -6.7500 cc        1 F32      0.294100
     35 N1          1.3860   -1.5670   -6.3950 nd        1 F32     -0.478100
     36 H1         -0.7990    0.4780    0.4710 h1        1 F32      0.130700
     37 H2C1        1.9150   -0.2260   -0.6730 hc        1 F32      0.099700
     38 H2C2        1.2080    1.3790   -0.2220 hc        1 F32      0.099700
     39 H4          1.8530   -0.5620    3.2770 hn        1 F32      0.369500
     40 H12        -2.1820    0.0790   -1.2670 ha        1 F32      0.160000
     41 H13        -2.9450   -1.3160   -3.1650 ha        1 F32      0.140500
     42 H15         0.3760   -4.0210   -2.5170 ha        1 F32      0.140500
     43 H16         1.1240   -2.6470   -0.5970 ha        1 F32      0.160000
     44 H211       -2.8780   -3.3970   -4.3290 hc        1 F32      0.100700
     45 H212       -1.7160   -4.6850   -3.8220 hc        1 F32      0.100700
     46 H22         0.1300   -3.6800   -5.1500 hx        1 F32      0.125700
     47 H45        -1.8650   -1.7110   -6.2050 hn        1 F32      0.477300
     48 H5         -4.5450   -4.5070   -9.2690 ha        1 F32      0.158000
     49 H6         -4.4350   -6.6330  -10.5820 ha        1 F32      0.154000
     50 H11        -0.1790   -5.9610   -6.4090 hn        1 F32      0.319700
     51 H7          3.9090   -0.1960  -10.8250 ha        1 F32      0.163000
     52 H8          1.4330   -0.4850  -10.8170 ha        1 F32      0.161000
     53 H20         4.1330   -1.2000   -6.6150 ha        1 F32      0.168000
     54 H24         5.2400   -0.5470   -8.7610 ha        1 F32      0.164000
     55 H17        -2.6700   -8.3080  -10.1740 ha        1 F32      0.154000
     56 H452       -0.8220   -1.3880   -4.9290 hn        1 F32      0.477300
     57 H19        -0.9140   -7.9530   -8.4310 ha        1 F32      0.152000
@<TRIPOS>BOND
     1    1    2 1   
     2    1    5 1   
     3    1    9 1   
     4    1   36 1   
     5    2    3 1   
     6    2   37 1   
     7    2   38 1   
     8    3    4 1   
     9    3    8 2   
    10    4    5 1   
    11    4   39 1   
    12    5    6 2   
    13    5    7 2   
    14    9   10 ar  
    15    9   14 ar  
    16   10   11 ar  
    17   10   40 1   
    18   11   12 ar  
    19   11   41 1   
    20   12   13 ar  
    21   12   15 1   
    22   13   14 ar  
    23   13   42 1   
    24   14   43 1   
    25   15   16 1   
    26   15   44 1   
    27   15   45 1   
    28   16   17 1   
    29   16   25 1   
    30   16   46 1   
    31   17   34 1   
    32   17   47 1   
    33   17   56 1   
    34   18   19 ar  
    35   18   23 ar  
    36   18   55 1   
    37   19   20 ar  
    38   19   57 1   
    39   20   21 ar  
    40   20   24 1   
    41   21   22 ar  
    42   21   26 1   
    43   22   23 ar  
    44   22   48 1   
    45   23   49 1   
    46   24   25 1   
    47   24   50 1   
    48   25   26 2   
    49   27   28 ar  
    50   27   32 ar  
    51   27   51 1   
    52   28   29 ar  
    53   28   52 1   
    54   29   30 ar  
    55   29   33 1   
    56   30   31 ar  
    57   30   35 1   
    58   31   32 ar  
    59   31   53 1   
    60   32   54 1   
    61   33   34 1   
    62   34   35 2   
@<TRIPOS>SUBSTRUCTURE
     1 F32         1 TEMP              0 ****  ****    0 ROOT
