@<TRIPOS>MOLECULE
F32
   56    61     1     0     0
SMALL
bcc


@<TRIPOS>ATOM
      1 C1         -5.1010    0.2980    0.4460 c3        1 F32     -0.193600
      2 C2         -5.2260   -1.1260   -0.0850 c3        1 F32     -0.135400
      3 C3         -6.4630   -1.1960   -0.9680 c         1 F32      0.699500
      4 N4         -7.0050    0.0760   -1.1880 n         1 F32     -0.688300
      5 S5         -6.2160    1.3270   -0.4740 s6        1 F32      1.427600
      6 O6         -7.0430    2.0010    0.4300 o         1 F32     -0.629300
      7 O7         -5.5660    2.1090   -1.4310 o         1 F32     -0.629300
      8 O9         -6.9380   -2.2310   -1.4430 o         1 F32     -0.568500
      9 C11        -3.6920    0.7650    0.4700 ca        1 F32     -0.080300
     10 C12        -3.0770    1.0510    1.6950 ca        1 F32     -0.105500
     11 C13        -1.7480    1.4690    1.7360 ca        1 F32     -0.119000
     12 C14        -1.0110    1.6050    0.5550 ca        1 F32     -0.061300
     13 C15        -1.6290    1.3250   -0.6700 ca        1 F32     -0.119000
     14 C16        -2.9550    0.9060   -0.7130 ca        1 F32     -0.105500
     15 C21         0.4020    2.0670    0.5960 c3        1 F32     -0.036100
     16 C22         1.3830    0.9520    0.1840 c3        1 F32      0.199200
     17 N45         1.4000   -0.1330    1.1520 nh        1 F32     -0.757200
     18 C17         6.9480    2.8340   -1.2600 ca        1 F32     -0.111000
     19 C19         5.9510    1.9790   -1.7010 ca        1 F32     -0.132000
     20 C23         4.7710    1.9220   -0.9480 ca        1 F32     -0.072200
     21 C4          4.5990    2.7300    0.2490 ca        1 F32      0.061400
     22 C5          5.6340    3.5860    0.6560 ca        1 F32     -0.069000
     23 C6          6.7920    3.6230   -0.1040 ca        1 F32     -0.153000
     24 N11         3.5790    1.2120   -1.1070 na        1 F32     -0.254300
     25 C25         2.7580    1.5660   -0.0150 cc        1 F32      0.361800
     26 N13         3.3310    2.4750    0.8030 nd        1 F32     -0.570100
     27 C7          3.8230   -5.6300   -0.0150 ca        1 F32     -0.131000
     28 C8          3.2540   -4.9690    1.0640 ca        1 F32     -0.080000
     29 C9          2.8350   -3.6480    0.9100 ca        1 F32     -0.097100
     30 C18         2.9940   -2.9810   -0.3500 ca        1 F32      0.117400
     31 C20         3.5710   -3.6720   -1.4330 ca        1 F32     -0.093000
     32 C24         3.9780   -4.9850   -1.2520 ca        1 F32     -0.120000
     33 S1          2.1120   -2.6080    2.0300 ss        1 F32     -0.055100
     34 C10         2.0460   -1.3220    0.8170 cc        1 F32      0.575100
     35 N1          2.5510   -1.6520   -0.3780 nd        1 F32     -0.619100
     36 H1         -5.4800    0.2980    1.5120 h1        1 F32      0.126700
     37 H2C1       -5.3270   -1.8690    0.7460 hc        1 F32      0.103200
     38 H2C2       -4.3320   -1.4170   -0.6960 hc        1 F32      0.103200
     39 H4         -7.8170    0.1360   -1.7540 hn        1 F32      0.358500
     40 H12        -3.6410    0.9470    2.6340 ha        1 F32      0.139500
     41 H13        -1.2780    1.6920    2.7060 ha        1 F32      0.137500
     42 H15        -1.0650    1.4430   -1.6070 ha        1 F32      0.137500
     43 H16        -3.4330    0.7150   -1.6870 ha        1 F32      0.139500
     44 H211        0.5390    2.9160   -0.1280 hc        1 F32      0.076700
     45 H212        0.6610    2.4550    1.6170 hc        1 F32      0.076700
     46 H22         1.0250    0.5230   -0.8020 h1        1 F32      0.093700
     47 H45         1.6020    0.1720    2.0850 hn        1 F32      0.421800
     48 H19         6.0800    1.3680   -2.6040 ha        1 F32      0.137000
     49 H5          5.5180    4.2070    1.5560 ha        1 F32      0.146000
     50 H6          7.6160    4.2860    0.1990 ha        1 F32      0.133000
     51 H11         3.4260    0.4560   -1.7230 hn        1 F32      0.321700
     52 H7          4.1570   -6.6730    0.0970 ha        1 F32      0.137000
     53 H8          3.1340   -5.4790    2.0310 ha        1 F32      0.140000
     54 H20         3.6930   -3.1710   -2.4040 ha        1 F32      0.146000
     55 H24         4.4310   -5.5340   -2.0910 ha        1 F32      0.136000
     56 H17         7.8900    2.9020   -1.8250 ha        1 F32      0.132000
@<TRIPOS>BOND
     1    1    2 1   
     2    1    5 1   
     3    1    9 1   
     4    1   36 1   
     5    2    3 1   
     6    2   37 1   
     7    2   38 1   
     8    3    4 1   
     9    3    8 2   
    10    4    5 1   
    11    4   39 1   
    12    5    6 2   
    13    5    7 2   
    14    9   10 ar  
    15    9   14 ar  
    16   10   11 ar  
    17   10   40 1   
    18   11   12 ar  
    19   11   41 1   
    20   12   13 ar  
    21   12   15 1   
    22   13   14 ar  
    23   13   42 1   
    24   14   43 1   
    25   15   16 1   
    26   15   44 1   
    27   15   45 1   
    28   16   17 1   
    29   16   25 1   
    30   16   46 1   
    31   17   34 1   
    32   17   47 1   
    33   18   19 ar  
    34   18   23 ar  
    35   18   56 1   
    36   19   20 ar  
    37   19   48 1   
    38   20   21 ar  
    39   20   24 1   
    40   21   22 ar  
    41   21   26 1   
    42   22   23 ar  
    43   22   49 1   
    44   23   50 1   
    45   24   25 1   
    46   24   51 1   
    47   25   26 2   
    48   27   28 ar  
    49   27   32 ar  
    50   27   52 1   
    51   28   29 ar  
    52   28   53 1   
    53   29   30 ar  
    54   29   33 1   
    55   30   31 ar  
    56   30   35 1   
    57   31   32 ar  
    58   31   54 1   
    59   32   55 1   
    60   33   34 1   
    61   34   35 2   
@<TRIPOS>SUBSTRUCTURE
     1 F32         1 TEMP              0 ****  ****    0 ROOT
