@<TRIPOS>MOLECULE
F32
   56    61     1     0     0
SMALL
bcc


@<TRIPOS>ATOM
      1 C1         -0.0600   -0.2410    0.3930 c3        1 F32     -0.193600
      2 C2          1.3370    0.3140    0.1330 c3        1 F32     -0.135400
      3 C3          2.1390    0.2010    1.4210 c         1 F32      0.699500
      4 N4          1.4460   -0.5350    2.3900 ns        1 F32     -0.688300
      5 S5         -0.0290   -1.1020    1.9440 s6        1 F32      1.427600
      6 O6         -1.0410   -0.5820    2.7580 o         1 F32     -0.629300
      7 O7          0.0020   -2.4900    1.7920 o         1 F32     -0.629300
      8 O9          3.2600    0.6840    1.6030 o         1 F32     -0.568500
      9 C11        -0.5700   -1.0330   -0.7540 ca        1 F32     -0.080300
     10 C12        -1.6920   -0.5860   -1.4620 ca        1 F32     -0.105500
     11 C13        -2.1690   -1.3070   -2.5550 ca        1 F32     -0.119000
     12 C14        -1.5330   -2.4850   -2.9600 ca        1 F32     -0.061300
     13 C15        -0.4150   -2.9350   -2.2480 ca        1 F32     -0.119000
     14 C16         0.0660   -2.2160   -1.1570 ca        1 F32     -0.105500
     15 C21        -2.0520   -3.2650   -4.1150 c3        1 F32     -0.036100
     16 C22        -1.0850   -3.2240   -5.3160 c3        1 F32      0.199200
     17 N45        -0.9880   -1.8890   -5.8830 nu        1 F32     -0.757200
     18 C17        -2.0580   -7.4490   -9.5350 ca        1 F32     -0.111000
     19 C19        -1.0290   -6.8580   -8.8180 ca        1 F32     -0.132000
     20 C23        -1.3760   -5.8640   -7.8940 ca        1 F32     -0.072200
     21 C4         -2.7620   -5.4680   -7.6950 ca        1 F32      0.061400
     22 C5         -3.7710   -6.0970   -8.4400 ca        1 F32     -0.069000
     23 C6         -3.4020   -7.0760   -9.3480 ca        1 F32     -0.153000
     24 N11        -0.6250   -5.0940   -7.0040 na        1 F32     -0.254300
     25 C25        -1.5410   -4.2510   -6.3380 cc        1 F32      0.361800
     26 N13        -2.8200   -4.4570   -6.7180 nd        1 F32     -0.570100
     27 C7          3.4520   -0.2000   -9.7410 ca        1 F32     -0.131000
     28 C8          2.2980    0.3510   -9.2020 ca        1 F32     -0.080000
     29 C9          1.5140   -0.4170   -8.3410 ca        1 F32     -0.097100
     30 C18         1.8960   -1.7620   -8.0200 ca        1 F32      0.117400
     31 C20         3.0730   -2.3000   -8.5770 ca        1 F32     -0.093000
     32 C24         3.8340   -1.5140   -9.4280 ca        1 F32     -0.120000
     33 S1          0.0810   -0.0150   -7.5400 ss        1 F32     -0.055100
     34 C10         0.0160   -1.6260   -6.8130 cc        1 F32      0.575100
     35 N1          1.0220   -2.4380   -7.1600 nd        1 F32     -0.619100
     36 H1         -0.7540    0.6400    0.5360 h1        1 F32      0.126700
     37 H2C1        1.3030    1.3870   -0.1840 hc        1 F32      0.103200
     38 H2C2        1.8660   -0.2630   -0.6710 hc        1 F32      0.103200
     39 H4          1.8880   -0.6650    3.2680 hn        1 F32      0.358500
     40 H12        -2.2040    0.3400   -1.1590 ha        1 F32      0.139500
     41 H13        -3.0540   -0.9440   -3.1000 ha        1 F32      0.137500
     42 H15         0.0860   -3.8680   -2.5470 ha        1 F32      0.137500
     43 H16         0.9310   -2.5980   -0.5930 ha        1 F32      0.139500
     44 H211       -2.1690   -4.3420   -3.8170 hc        1 F32      0.076700
     45 H212       -3.0660   -2.8910   -4.4200 hc        1 F32      0.076700
     46 H22        -0.0550   -3.5110   -4.9400 h1        1 F32      0.093700
     47 H45        -1.8750   -1.5050   -6.1450 hn        1 F32      0.421800
     48 H19         0.0170   -7.1550   -8.9680 ha        1 F32      0.137000
     49 H5         -4.8240   -5.8140   -8.2970 ha        1 F32      0.146000
     50 H6         -4.1780   -7.5810   -9.9430 ha        1 F32      0.133000
     51 H11         0.3580   -4.9970   -6.9980 hn        1 F32      0.321700
     52 H7          4.0770    0.3980  -10.4210 ha        1 F32      0.137000
     53 H8          2.0030    1.3810   -9.4480 ha        1 F32      0.140000
     54 H20         3.3780   -3.3280   -8.3340 ha        1 F32      0.146000
     55 H24         4.7550   -1.9250   -9.8690 ha        1 F32      0.136000
     56 H17        -1.8210   -8.2320  -10.2710 ha        1 F32      0.132000
@<TRIPOS>BOND
     1    1    2 1   
     2    1    5 1   
     3    1    9 1   
     4    1   36 1   
     5    2    3 1   
     6    2   37 1   
     7    2   38 1   
     8    3    4 1   
     9    3    8 2   
    10    4    5 1   
    11    4   39 1   
    12    5    6 2   
    13    5    7 2   
    14    9   10 ar  
    15    9   14 ar  
    16   10   11 ar  
    17   10   40 1   
    18   11   12 ar  
    19   11   41 1   
    20   12   13 ar  
    21   12   15 1   
    22   13   14 ar  
    23   13   42 1   
    24   14   43 1   
    25   15   16 1   
    26   15   44 1   
    27   15   45 1   
    28   16   17 1   
    29   16   25 1   
    30   16   46 1   
    31   17   34 1   
    32   17   47 1   
    33   18   19 ar  
    34   18   23 ar  
    35   18   56 1   
    36   19   20 ar  
    37   19   48 1   
    38   20   21 ar  
    39   20   24 1   
    40   21   22 ar  
    41   21   26 1   
    42   22   23 ar  
    43   22   49 1   
    44   23   50 1   
    45   24   25 1   
    46   24   51 1   
    47   25   26 2   
    48   27   28 ar  
    49   27   32 ar  
    50   27   52 1   
    51   28   29 ar  
    52   28   53 1   
    53   29   30 ar  
    54   29   33 1   
    55   30   31 ar  
    56   30   35 1   
    57   31   32 ar  
    58   31   54 1   
    59   32   55 1   
    60   33   34 1   
    61   34   35 2   
@<TRIPOS>SUBSTRUCTURE
     1 F32         1 TEMP              0 ****  ****    0 ROOT
