@<TRIPOS>MOLECULE
F33
   36    39     1     0     0
SMALL
bcc


@<TRIPOS>ATOM
      1 O           0.2060   -0.8740   -0.3520 o         1 F33     -0.579500
      2 C4          1.3320   -0.4400   -0.1150 c         1 F33      0.834600
      3 C1          3.4470    0.2800   -0.7430 c3        1 F33      0.109400
      4 N           1.9910   -0.1110    1.0820 n         1 F33     -0.400000
      5 C5          1.4370   -0.1070    2.3660 ca        1 F33      0.116600
      6 C10         0.0970   -0.5010    2.5890 ca        1 F33     -0.181500
      7 C9         -0.4280   -0.5010    3.8760 ca        1 F33     -0.062000
      8 C6          2.2230    0.2880    3.4760 ca        1 F33     -0.181500
      9 C7          1.6830    0.2780    4.7570 ca        1 F33     -0.062000
     10 O10         2.1710   -0.2260   -1.2000 os        1 F33     -0.389900
     11 C8          0.3600   -0.1200    4.9670 ca        1 F33     -0.180900
     12 C11        -0.2170   -0.1260    6.3380 cc        1 F33      0.548500
     13 N2          0.5740   -0.7060    7.3390 ns        1 F33     -0.494400
     14 C18         0.1260   -0.7640    8.6690 c         1 F33      0.708100
     15 O1          0.8620   -1.2860    9.5270 o         1 F33     -0.625500
     16 N1         -1.4140    0.3990    6.5420 nd        1 F33     -0.615100
     17 C12        -1.9320    0.3750    7.8430 ca        1 F33      0.182400
     18 C17        -1.2050   -0.1870    8.9270 ca        1 F33     -0.190600
     19 C13        -3.2120    0.9260    8.1050 ca        1 F33     -0.122000
     20 C14        -3.7230    0.9050    9.3930 ca        1 F33     -0.095000
     21 C15        -2.9960    0.3470   10.4520 ca        1 F33     -0.153000
     22 C2          3.3330    0.3700    0.7950 c3        1 F33      0.060000
     23 C16        -1.7410   -0.1980   10.2210 ca        1 F33     -0.060000
     24 H11C        3.5950    1.2770   -1.2240 h1        1 F33      0.076700
     25 H12C        4.2260   -0.4480   -1.0760 h1        1 F33      0.076700
     26 H21C        3.4620    1.4280    1.1530 h1        1 F33      0.067700
     27 H22C        4.0960   -0.2820    1.3000 h1        1 F33      0.067700
     28 H6          3.2670    0.6080    3.3430 ha        1 F33      0.158000
     29 H10        -0.5440   -0.8100    1.7460 ha        1 F33      0.158000
     30 H7          2.3110    0.6060    5.6010 ha        1 F33      0.150500
     31 H9         -1.4780   -0.8010    4.0300 ha        1 F33      0.150500
     32 H2          1.4580   -1.1000    7.1050 hn        1 F33      0.337500
     33 H13        -3.7930    1.3680    7.2810 ha        1 F33      0.153000
     34 H16        -1.1510   -0.6430   11.0390 ha        1 F33      0.158000
     35 H14        -4.7180    1.3340    9.5880 ha        1 F33      0.137000
     36 H15        -3.4220    0.3410   11.4660 ha        1 F33      0.140000
@<TRIPOS>BOND
     1    1    2 2   
     2    2    4 1   
     3    2   10 1   
     4    3   10 1   
     5    3   22 1   
     6    3   24 1   
     7    3   25 1   
     8    4    5 1   
     9    4   22 1   
    10    5    6 ar  
    11    5    8 ar  
    12    6    7 ar  
    13    6   29 1   
    14    7   11 ar  
    15    7   31 1   
    16    8    9 ar  
    17    8   28 1   
    18    9   11 ar  
    19    9   30 1   
    20   11   12 1   
    21   12   13 1   
    22   12   16 2   
    23   13   14 1   
    24   13   32 1   
    25   14   15 2   
    26   14   18 1   
    27   16   17 1   
    28   17   18 ar  
    29   17   19 ar  
    30   18   23 ar  
    31   19   20 ar  
    32   19   33 1   
    33   20   21 ar  
    34   20   35 1   
    35   21   23 ar  
    36   21   36 1   
    37   22   26 1   
    38   22   27 1   
    39   23   34 1   
@<TRIPOS>SUBSTRUCTURE
     1 F33         1 TEMP              0 ****  ****    0 ROOT
