@<TRIPOS>MOLECULE
F33
   36    39     1     0     0
SMALL
bcc


@<TRIPOS>ATOM
      1 O          -4.8700    1.9560    1.0010 o         1 F33     -0.579500
      2 C4         -5.0850    0.8610    0.4860 c         1 F33      0.834600
      3 C1         -6.4790   -0.7890   -0.3630 c3        1 F33      0.109400
      4 N          -4.2340   -0.1850    0.0860 n         1 F33     -0.400000
      5 C5         -2.8360   -0.1720    0.0920 ca        1 F33      0.116600
      6 C10        -2.1140    0.9460    0.5710 ca        1 F33     -0.181500
      7 C9         -0.7240    0.9310    0.5790 ca        1 F33     -0.062000
      8 C6         -2.1150   -1.2950   -0.3800 ca        1 F33     -0.181500
      9 C7         -0.7250   -1.2950   -0.3620 ca        1 F33     -0.062000
     10 O10        -6.4090    0.5240    0.2380 os        1 F33     -0.389900
     11 C8         -0.0210   -0.1880    0.1210 ca        1 F33     -0.180900
     12 C11         1.4660   -0.1880    0.1350 cc        1 F33      0.548500
     13 N2          2.0790   -1.3450    0.6380 n         1 F33     -0.494400
     14 C18         3.4780   -1.4510    0.6970 c         1 F33      0.708100
     15 O1          3.9810   -2.4960    1.1480 o         1 F33     -0.625500
     16 N1          2.1210    0.8710   -0.3110 nd        1 F33     -0.615100
     17 C12         3.5210    0.8420   -0.2810 ca        1 F33      0.182400
     18 C17         4.2350   -0.2850    0.2060 ca        1 F33     -0.190600
     19 C13         4.2610    1.9570   -0.7490 ca        1 F33     -0.122000
     20 C14         5.6460    1.9280   -0.7220 ca        1 F33     -0.095000
     21 C15         6.3380    0.8090   -0.2370 ca        1 F33     -0.153000
     22 C2         -5.0160   -1.2740   -0.4800 c3        1 F33      0.060000
     23 C16         5.6360   -0.2940    0.2250 ca        1 F33     -0.060000
     24 H11C       -7.0920   -1.4290    0.3170 h1        1 F33      0.076700
     25 H12C       -6.9730   -0.6680   -1.3580 h1        1 F33      0.076700
     26 H21C       -4.8510   -2.2170    0.1080 h1        1 F33      0.067700
     27 H22C       -4.7290   -1.4550   -1.5510 h1        1 F33      0.067700
     28 H6         -2.6390   -2.1810   -0.7680 ha        1 F33      0.158000
     29 H10        -2.6450    1.8400    0.9410 ha        1 F33      0.158000
     30 H7         -0.1880   -2.1750   -0.7510 ha        1 F33      0.150500
     31 H9         -0.1770    1.8150    0.9460 ha        1 F33      0.150500
     32 H2          1.5190   -2.0940    0.9770 hn        1 F33      0.337500
     33 H13         3.7290    2.8410   -1.1320 ha        1 F33      0.153000
     34 H16         6.1590   -1.1850    0.6110 ha        1 F33      0.158000
     35 H14         6.2140    2.7980   -1.0870 ha        1 F33      0.137000
     36 H15         7.4380    0.8090   -0.2260 ha        1 F33      0.140000
@<TRIPOS>BOND
     1    1    2 2   
     2    2    4 1   
     3    2   10 1   
     4    3   10 1   
     5    3   22 1   
     6    3   24 1   
     7    3   25 1   
     8    4    5 1   
     9    4   22 1   
    10    5    6 ar  
    11    5    8 ar  
    12    6    7 ar  
    13    6   29 1   
    14    7   11 ar  
    15    7   31 1   
    16    8    9 ar  
    17    8   28 1   
    18    9   11 ar  
    19    9   30 1   
    20   11   12 1   
    21   12   13 1   
    22   12   16 2   
    23   13   14 1   
    24   13   32 1   
    25   14   15 2   
    26   14   18 1   
    27   16   17 1   
    28   17   18 ar  
    29   17   19 ar  
    30   18   23 ar  
    31   19   20 ar  
    32   19   33 1   
    33   20   21 ar  
    34   20   35 1   
    35   21   23 ar  
    36   21   36 1   
    37   22   26 1   
    38   22   27 1   
    39   23   34 1   
@<TRIPOS>SUBSTRUCTURE
     1 F33         1 TEMP              0 ****  ****    0 ROOT
