@<TRIPOS>MOLECULE
F33
   36    39     1     0     0
SMALL
bcc


@<TRIPOS>ATOM
      1 O           0.2040   -0.8800   -0.3510 o         1 F33     -0.579500
      2 C4          1.3290   -0.4440   -0.1160 c         1 F33      0.834600
      3 C1          3.4420    0.2790   -0.7460 c3        1 F33      0.109400
      4 N           1.9890   -0.1130    1.0810 n         1 F33     -0.400000
      5 C5          1.4350   -0.1080    2.3650 ca        1 F33      0.116600
      6 C10         0.0960   -0.5040    2.5900 ca        1 F33     -0.181500
      7 C9         -0.4280   -0.5040    3.8770 ca        1 F33     -0.062000
      8 C6          2.2210    0.2890    3.4740 ca        1 F33     -0.181500
      9 C7          1.6830    0.2810    4.7550 ca        1 F33     -0.062000
     10 O10         2.1670   -0.2300   -1.2010 os        1 F33     -0.389900
     11 C8          0.3600   -0.1200    4.9670 ca        1 F33     -0.180900
     12 C11        -0.2160   -0.1250    6.3380 cc        1 F33      0.548500
     13 N2          0.5770   -0.7020    7.3400 n         1 F33     -0.494400
     14 C18         0.1300   -0.7600    8.6700 c         1 F33      0.708100
     15 O1          0.8680   -1.2790    9.5280 o         1 F33     -0.625500
     16 N1         -1.4140    0.3970    6.5430 nd        1 F33     -0.615100
     17 C12        -1.9300    0.3750    7.8450 ca        1 F33      0.182400
     18 C17        -1.2020   -0.1850    8.9280 ca        1 F33     -0.190600
     19 C13        -3.2110    0.9230    8.1070 ca        1 F33     -0.122000
     20 C14        -3.7220    0.9030    9.3940 ca        1 F33     -0.095000
     21 C15        -2.9920    0.3470   10.4540 ca        1 F33     -0.153000
     22 C2          3.3300    0.3710    0.7930 c3        1 F33      0.060000
     23 C16        -1.7370   -0.1950   10.2230 ca        1 F33     -0.060000
     24 H11C        4.2220   -0.4480   -1.0780 h1        1 F33      0.076700
     25 H12C        3.5880    1.2760   -1.2280 h1        1 F33      0.076700
     26 H21C        4.0940   -0.2790    1.2970 h1        1 F33      0.067700
     27 H22C        3.4570    1.4290    1.1490 h1        1 F33      0.067700
     28 H6          3.2640    0.6120    3.3410 ha        1 F33      0.158000
     29 H10        -0.5450   -0.8150    1.7470 ha        1 F33      0.158000
     30 H7          2.3100    0.6110    5.5980 ha        1 F33      0.150500
     31 H9         -1.4770   -0.8050    4.0320 ha        1 F33      0.150500
     32 H2          1.4610   -1.0960    7.1060 hn        1 F33      0.337500
     33 H13        -3.7930    1.3630    7.2820 ha        1 F33      0.153000
     34 H16        -1.1450   -0.6380   11.0410 ha        1 F33      0.158000
     35 H14        -4.7180    1.3310    9.5900 ha        1 F33      0.137000
     36 H15        -3.4180    0.3430   11.4680 ha        1 F33      0.140000
@<TRIPOS>BOND
     1    1    2 2   
     2    2    4 1   
     3    2   10 1   
     4    3   10 1   
     5    3   22 1   
     6    3   24 1   
     7    3   25 1   
     8    4    5 1   
     9    4   22 1   
    10    5    6 ar  
    11    5    8 ar  
    12    6    7 ar  
    13    6   29 1   
    14    7   11 ar  
    15    7   31 1   
    16    8    9 ar  
    17    8   28 1   
    18    9   11 ar  
    19    9   30 1   
    20   11   12 1   
    21   12   13 1   
    22   12   16 2   
    23   13   14 1   
    24   13   32 1   
    25   14   15 2   
    26   14   18 1   
    27   16   17 1   
    28   17   18 ar  
    29   17   19 ar  
    30   18   23 ar  
    31   19   20 ar  
    32   19   33 1   
    33   20   21 ar  
    34   20   35 1   
    35   21   23 ar  
    36   21   36 1   
    37   22   26 1   
    38   22   27 1   
    39   23   34 1   
@<TRIPOS>SUBSTRUCTURE
     1 F33         1 TEMP              0 ****  ****    0 ROOT
