@<TRIPOS>MOLECULE
F33
   36    39     1     0     0
SMALL
bcc


@<TRIPOS>ATOM
      1 O           0.2100   -0.9030   -0.3470 o         1 F33     -0.579500
      2 C4          1.3330   -0.4590   -0.1130 c         1 F33      0.834600
      3 C1          3.4410    0.2750   -0.7460 c3        1 F33      0.109400
      4 N           1.9900   -0.1190    1.0820 n         1 F33     -0.400000
      5 C5          1.4370   -0.1120    2.3660 ca        1 F33      0.116600
      6 C10         0.1000   -0.5150    2.5920 ca        1 F33     -0.181500
      7 C9         -0.4250   -0.5120    3.8790 ca        1 F33     -0.062000
      8 C6          2.2200    0.2940    3.4740 ca        1 F33     -0.181500
      9 C7          1.6810    0.2870    4.7550 ca        1 F33     -0.062000
     10 O10         2.1700   -0.2440   -1.2000 os        1 F33     -0.389900
     11 C8          0.3610   -0.1200    4.9680 ca        1 F33     -0.180900
     12 C11        -0.2150   -0.1220    6.3380 cc        1 F33      0.548500
     13 N2          0.5810   -0.6910    7.3430 n         1 F33     -0.494400
     14 C18         0.1340   -0.7460    8.6730 c         1 F33      0.708100
     15 O1          0.8740   -1.2570    9.5330 o         1 F33     -0.625500
     16 N1         -1.4160    0.3950    6.5410 nd        1 F33     -0.615100
     17 C12        -1.9320    0.3750    7.8430 ca        1 F33      0.182400
     18 C17        -1.2010   -0.1770    8.9290 ca        1 F33     -0.190600
     19 C13        -3.2160    0.9170    8.1020 ca        1 F33     -0.122000
     20 C14        -3.7270    0.8990    9.3900 ca        1 F33     -0.095000
     21 C15        -2.9950    0.3520   10.4520 ca        1 F33     -0.153000
     22 C2          3.3290    0.3720    0.7920 c3        1 F33      0.060000
     23 C16        -1.7360   -0.1850   10.2240 ca        1 F33     -0.060000
     24 H11C        3.5810    1.2700   -1.2320 h1        1 F33      0.076700
     25 H12C        4.2260   -0.4490   -1.0760 h1        1 F33      0.076700
     26 H21C        4.0970   -0.2720    1.2980 h1        1 F33      0.067700
     27 H22C        3.4490    1.4310    1.1440 h1        1 F33      0.067700
     28 H6          3.2620    0.6210    3.3390 ha        1 F33      0.158000
     29 H10        -0.5400   -0.8330    1.7500 ha        1 F33      0.158000
     30 H7          2.3070    0.6250    5.5960 ha        1 F33      0.150500
     31 H9         -1.4720   -0.8190    4.0350 ha        1 F33      0.150500
     32 H2          1.4670   -1.0810    7.1110 hn        1 F33      0.337500
     33 H13        -3.8010    1.3510    7.2760 ha        1 F33      0.153000
     34 H16        -1.1420   -0.6210   11.0440 ha        1 F33      0.158000
     35 H14        -4.7250    1.3230    9.5840 ha        1 F33      0.137000
     36 H15        -3.4200    0.3490   11.4660 ha        1 F33      0.140000
@<TRIPOS>BOND
     1    1    2 2   
     2    2    4 1   
     3    2   10 1   
     4    3   10 1   
     5    3   22 1   
     6    3   24 1   
     7    3   25 1   
     8    4    5 1   
     9    4   22 1   
    10    5    6 ar  
    11    5    8 ar  
    12    6    7 ar  
    13    6   29 1   
    14    7   11 ar  
    15    7   31 1   
    16    8    9 ar  
    17    8   28 1   
    18    9   11 ar  
    19    9   30 1   
    20   11   12 1   
    21   12   13 1   
    22   12   16 2   
    23   13   14 1   
    24   13   32 1   
    25   14   15 2   
    26   14   18 1   
    27   16   17 1   
    28   17   18 ar  
    29   17   19 ar  
    30   18   23 ar  
    31   19   20 ar  
    32   19   33 1   
    33   20   21 ar  
    34   20   35 1   
    35   21   23 ar  
    36   21   36 1   
    37   22   26 1   
    38   22   27 1   
    39   23   34 1   
@<TRIPOS>SUBSTRUCTURE
     1 F33         1 TEMP              0 ****  ****    0 ROOT
