@<TRIPOS>MOLECULE
F34
   30    29     1     0     0
SMALL
bcc


@<TRIPOS>ATOM
      1 O8         -1.0760    0.4020    2.8760 o         1 F34     -0.362000
      2 C8          0.1380    0.4020    2.8760 c1        1 F34      0.297000
      3 C9          0.8960    0.4020    4.1890 c2        1 F34     -0.243000
      4 N2          0.8480    0.3780    1.6470 n3        1 F34     -0.348000
      5 C3          0.1350    0.3550    0.4120 c3        1 F34      0.015000
      6 C4          0.6270   -0.8100   -0.4250 c3        1 F34      0.015000
      7 O4          1.2220   -1.7710    0.4210 oh        1 F34     -0.340000
      8 C5         -0.5190   -1.4530   -1.1810 c3        1 F34      0.006000
      9 O5          0.0020   -2.3450   -2.1420 oh        1 F34     -0.345000
     10 C6         -1.3610   -0.4040   -1.8800 c3        1 F34     -0.001000
     11 O6         -1.9620   -0.9760   -3.0230 oh        1 F34     -0.344000
     12 C7         -0.5110    0.7770   -2.3040 c3        1 F34     -0.101000
     13 N1         -0.6040    1.8340   -1.3570 n3        1 F34     -0.311000
     14 C2          0.3490    1.6690   -0.3130 c3        1 F34     -0.077000
     15 H91C        1.4430   -0.4050    4.2490 ha        1 F34      0.105667
     16 H92C        0.2620    0.4220    4.9310 ha        1 F34      0.105667
     17 H93C        1.4720    1.1890    4.2320 ha        1 F34      0.105667
     18 H2          1.7600    0.4020    1.6460 hn        1 F34      0.220000
     19 H3         -0.8170    0.2400    0.5930 h1        1 F34      0.143000
     20 H4          1.2920   -0.4880   -1.0630 h1        1 F34      0.091000
     21 H21C        1.2480    1.6830   -0.6940 h1        1 F34      0.079500
     22 H22C        0.2590    2.4050    0.3220 h1        1 F34      0.079500
     23 HA          1.9860   -2.0470    0.0640 ho        1 F34      0.226000
     24 H5         -1.0800   -1.9480   -0.5540 h1        1 F34      0.099000
     25 HB         -0.2490   -3.1730   -1.9450 ho        1 F34      0.231000
     26 H6         -2.0590   -0.0940   -1.2720 h1        1 F34      0.107000
     27 HC         -2.8420   -0.8670   -2.9810 ho        1 F34      0.215000
     28 H71C       -0.8170    1.0970   -3.1730 h1        1 F34      0.080500
     29 H72C        0.4200    0.4920   -2.3760 h1        1 F34      0.080500
     30 H1         -0.4610    2.6310   -1.7760 hn        1 F34      0.169000
@<TRIPOS>BOND
     1    1    2 1   
     2    2    4 1   
     3    3   15 1   
     4    3   16 1   
     5    3   17 1   
     6    4    5 1   
     7    4   18 1   
     8    5    6 1   
     9    5   14 1   
    10    5   19 1   
    11    6    7 1   
    12    6    8 1   
    13    6   20 1   
    14    7   23 1   
    15    8    9 1   
    16    8   10 1   
    17    8   24 1   
    18    9   25 1   
    19   10   11 1   
    20   10   12 1   
    21   10   26 1   
    22   11   27 1   
    23   12   13 1   
    24   12   28 1   
    25   12   29 1   
    26   13   14 1   
    27   13   30 1   
    28   14   21 1   
    29   14   22 1   
@<TRIPOS>SUBSTRUCTURE
     1 F34         1 TEMP              0 ****  ****    0 ROOT
