@<TRIPOS>MOLECULE
F34
   30    30     1     0     0
SMALL
bcc


@<TRIPOS>ATOM
      1 O8          2.7820   -0.6610   -1.5450 o         1 F34     -0.601100
      2 C8          3.0200   -0.0050   -0.5130 c         1 F34      0.653100
      3 C9          4.3640    0.6420   -0.2840 c3        1 F34     -0.175100
      4 N2          2.0850    0.1070    0.5130 n         1 F34     -0.538900
      5 C3          0.7000   -0.2500    0.2940 c3        1 F34      0.091700
      6 C4         -0.3000    0.9180    0.5120 c3        1 F34      0.126100
      7 O4          0.3660    2.1620    0.3360 oh        1 F34     -0.612800
      8 C5         -1.4810    0.8530   -0.4770 c3        1 F34      0.117100
      9 O5         -2.4290    1.7700    0.0520 oh        1 F34     -0.617800
     10 C6         -2.0680   -0.5540   -0.6500 c3        1 F34      0.110100
     11 O6         -3.4010   -0.3550   -1.1110 oh        1 F34     -0.616800
     12 C7         -2.0910   -1.3640    0.6610 c3        1 F34      0.135800
     13 N1         -0.8830   -2.1320    0.8540 n3        1 F34     -0.832200
     14 C2          0.2970   -1.4060    1.2620 c3        1 F34      0.159800
     15 H91C        5.0290    0.4050   -1.1490 hc        1 F34      0.066367
     16 H92C        4.2510    1.7500   -0.2040 hc        1 F34      0.066367
     17 H93C        4.8340    0.2540    0.6520 hc        1 F34      0.066367
     18 H2          2.2320    0.8370    1.1730 hn        1 F34      0.306500
     19 H3          0.6020   -0.6180   -0.7730 h1        1 F34      0.103700
     20 H4         -0.7050    0.8840    1.5650 h1        1 F34      0.051700
     21 H21C        1.1350   -2.1620    1.2840 h1        1 F34      0.040200
     22 H22C        0.1970   -0.9750    2.3020 h1        1 F34      0.040200
     23 HA         -0.3150    2.8450    0.4080 ho        1 F34      0.427000
     24 H5         -1.1420    1.2240   -1.4860 h1        1 F34      0.059700
     25 HB         -3.2350    1.6960   -0.4750 ho        1 F34      0.432000
     26 H6         -1.4830   -1.1010   -1.4430 h1        1 F34      0.067700
     27 HC         -3.7560   -1.2250   -1.3280 ho        1 F34      0.416000
     28 H71C       -2.3100   -0.6530    1.5110 h1        1 F34      0.041200
     29 H72C       -2.9520   -2.0910    0.6060 h1        1 F34      0.041200
     30 H1         -1.0520   -2.8800    1.5000 hn        1 F34      0.373800
@<TRIPOS>BOND
     1    1    2 2   
     2    2    3 1   
     3    2    4 1   
     4    3   15 1   
     5    3   16 1   
     6    3   17 1   
     7    4    5 1   
     8    4   18 1   
     9    5    6 1   
    10    5   14 1   
    11    5   19 1   
    12    6    7 1   
    13    6    8 1   
    14    6   20 1   
    15    7   23 1   
    16    8    9 1   
    17    8   10 1   
    18    8   24 1   
    19    9   25 1   
    20   10   11 1   
    21   10   12 1   
    22   10   26 1   
    23   11   27 1   
    24   12   13 1   
    25   12   28 1   
    26   12   29 1   
    27   13   14 1   
    28   13   30 1   
    29   14   21 1   
    30   14   22 1   
@<TRIPOS>SUBSTRUCTURE
     1 F34         1 TEMP              0 ****  ****    0 ROOT
