@<TRIPOS>MOLECULE
F34
   31    31     1     0     0
SMALL
bcc


@<TRIPOS>ATOM
      1 O8          0.2240   -0.9720    0.2580 o         1 F34     -0.395100
      2 C8          1.1830   -0.2250    0.1580 c         1 F34      0.552100
      3 C9          1.6120    0.8590    1.0870 c3        1 F34     -0.189100
      4 N2          2.0680   -0.4390   -1.0540 ny        1 F34     -0.676800
      5 C3          1.3240   -0.2680   -2.3500 c3        1 F34      0.113500
      6 C4          2.1170   -0.8250   -3.5590 c3        1 F34      0.132100
      7 O4          3.0320   -1.8030   -3.0870 oh        1 F34     -0.649800
      8 C5          1.1800   -1.4720   -4.6010 c3        1 F34      0.124100
      9 O5          2.0380   -1.6800   -5.7100 oh        1 F34     -0.608800
     10 C6         -0.0630   -0.6400   -4.9540 c3        1 F34      0.110100
     11 O6         -0.3760   -0.9970   -6.2910 oh        1 F34     -0.600800
     12 C7          0.1580    0.8850   -4.8760 c3        1 F34      0.124800
     13 N1         -0.0600    1.4050   -3.5450 n7        1 F34     -0.837200
     14 C2          1.0180    1.2370   -2.6070 c3        1 F34      0.166800
     15 H91C        2.6280    0.6440    1.5070 hc        1 F34      0.114367
     16 H92C        0.8780    0.9130    1.9350 hc        1 F34      0.114367
     17 H93C        1.6300    1.8490    0.5640 hc        1 F34      0.114367
     18 H2          2.4350   -1.4060   -1.0400 hn        1 F34      0.470800
     19 H3          0.3590   -0.8520   -2.2350 hx        1 F34      0.136700
     20 H4          2.7050    0.0040   -4.0500 h1        1 F34      0.085700
     21 H21C        0.6890    1.7210   -1.6410 h1        1 F34      0.046200
     22 H22C        1.9790    1.7360   -2.9340 h1        1 F34      0.046200
     23 HA          3.3860   -2.2660   -3.8640 ho        1 F34      0.476000
     24 H5          0.8360   -2.4750   -4.2140 h1        1 F34      0.064700
     25 HB          1.5010   -1.9670   -6.4640 ho        1 F34      0.458000
     26 H6         -0.9090   -0.9450   -4.2740 h1        1 F34      0.062700
     27 HC         -1.2590   -0.6550   -6.4850 ho        1 F34      0.433000
     28 H71C       -0.5930    1.3760   -5.5620 h1        1 F34      0.065700
     29 H72C        1.1850    1.1200   -5.2820 h1        1 F34      0.065700
     30 H1         -0.3540    2.3640   -3.5700 hn        1 F34      0.408800
     31 H22         2.8650    0.2030   -1.0330 hn        1 F34      0.470800
@<TRIPOS>BOND
     1    1    2 2   
     2    2    3 1   
     3    2    4 1   
     4    3   15 1   
     5    3   16 1   
     6    3   17 1   
     7    4    5 1   
     8    4   18 1   
     9    4   31 1   
    10    5    6 1   
    11    5   14 1   
    12    5   19 1   
    13    6    7 1   
    14    6    8 1   
    15    6   20 1   
    16    7   23 1   
    17    8    9 1   
    18    8   10 1   
    19    8   24 1   
    20    9   25 1   
    21   10   11 1   
    22   10   12 1   
    23   10   26 1   
    24   11   27 1   
    25   12   13 1   
    26   12   28 1   
    27   12   29 1   
    28   13   14 1   
    29   13   30 1   
    30   14   21 1   
    31   14   22 1   
@<TRIPOS>SUBSTRUCTURE
     1 F34         1 TEMP              0 ****  ****    0 ROOT
