@<TRIPOS>MOLECULE
F34
   31    31     1     0     0
SMALL
bcc


@<TRIPOS>ATOM
      1 O8          0.1320   -0.8170    0.2200 o         1 F34     -0.403100
      2 C8          1.1870   -0.2060    0.1800 c         1 F34      0.553100
      3 C9          1.7510    0.7290    1.1950 c3        1 F34     -0.191100
      4 N2          2.0470   -0.4300   -1.0470 n4        1 F34     -0.670800
      5 C3          1.2810   -0.2930   -2.3330 c3        1 F34      0.065500
      6 C4          2.0990   -0.7910   -3.5500 c3        1 F34      0.132100
      7 O4          3.0530   -1.7390   -3.0910 oh        1 F34     -0.649800
      8 C5          1.2020   -1.4620   -4.6120 c3        1 F34      0.125100
      9 O5          2.0950   -1.6580   -5.6950 oh        1 F34     -0.606800
     10 C6         -0.0480   -0.6600   -5.0100 c3        1 F34      0.078100
     11 O6         -0.2920   -1.0170   -6.3610 oh        1 F34     -0.594800
     12 C7          0.1100    0.8690   -4.8840 c3        1 F34      0.121800
     13 N1         -0.1290    1.4110   -3.5710 n3        1 F34     -0.805200
     14 C2          0.8770    1.1970   -2.5800 c3        1 F34      0.168800
     15 H91C        2.7670    0.3970    1.5320 hc        1 F34      0.116367
     16 H92C        1.8210    1.7660    0.7770 hc        1 F34      0.116367
     17 H93C        1.0660    0.7460    2.0850 hc        1 F34      0.116367
     18 H2          2.8330    0.2270   -1.0550 hn        1 F34      0.470800
     19 H3          0.3570   -0.9360   -2.2170 hx        1 F34      0.120700
     20 H4          2.6540    0.0720   -4.0200 h1        1 F34      0.087700
     21 H21C        1.8030    1.7630   -2.8920 h1        1 F34      0.070200
     22 H22C        0.5010    1.6370   -1.6110 h1        1 F34      0.070200
     23 HA          3.4410   -2.1640   -3.8730 ho        1 F34      0.477000
     24 H5          0.8690   -2.4700   -4.2280 h1        1 F34      0.063700
     25 HB          1.5890   -1.9750   -6.4580 ho        1 F34      0.459000
     26 H6         -0.9150   -1.0100   -4.3760 h1        1 F34      0.042700
     27 HC         -1.0980   -0.5660   -6.6440 ho        1 F34      0.434000
     28 H71C       -0.6360    1.3610   -5.5750 h1        1 F34      0.087200
     29 H72C        1.1370    1.1650   -5.2370 h1        1 F34      0.087200
     30 H1         -1.0460    1.1800   -3.2360 hn        1 F34      0.389800
     31 H22         2.4340   -1.3890   -1.0200 hn        1 F34      0.470800
@<TRIPOS>BOND
     1    1    2 2   
     2    2    3 1   
     3    2    4 1   
     4    3   15 1   
     5    3   16 1   
     6    3   17 1   
     7    4    5 1   
     8    4   18 1   
     9    4   31 1   
    10    5    6 1   
    11    5   14 1   
    12    5   19 1   
    13    6    7 1   
    14    6    8 1   
    15    6   20 1   
    16    7   23 1   
    17    8    9 1   
    18    8   10 1   
    19    8   24 1   
    20    9   25 1   
    21   10   11 1   
    22   10   12 1   
    23   10   26 1   
    24   11   27 1   
    25   12   13 1   
    26   12   28 1   
    27   12   29 1   
    28   13   14 1   
    29   13   30 1   
    30   14   21 1   
    31   14   22 1   
@<TRIPOS>SUBSTRUCTURE
     1 F34         1 TEMP              0 ****  ****    0 ROOT
