@<TRIPOS>MOLECULE
F34
   31    31     1     0     0
SMALL
bcc


@<TRIPOS>ATOM
      1 O8          0.2520   -1.0120    0.2570 o         1 F34     -0.395100
      2 C8          1.1940   -0.2450    0.1600 c         1 F34      0.553100
      3 C9          1.6030    0.8420    1.0930 c3        1 F34     -0.189100
      4 N2          2.0820   -0.4320   -1.0550 n4        1 F34     -0.676800
      5 C3          1.3310   -0.2690   -2.3490 c3        1 F34      0.113500
      6 C4          2.1330   -0.8030   -3.5630 c3        1 F34      0.132100
      7 O4          3.0700   -1.7650   -3.0990 oh        1 F34     -0.649800
      8 C5          1.2080   -1.4630   -4.6070 c3        1 F34      0.124100
      9 O5          2.0680   -1.6460   -5.7190 oh        1 F34     -0.608800
     10 C6         -0.0530   -0.6550   -4.9520 c3        1 F34      0.110100
     11 O6         -0.3610   -1.0100   -6.2910 oh        1 F34     -0.600800
     12 C7          0.1370    0.8740   -4.8660 c3        1 F34      0.124800
     13 N1         -0.0890    1.3810   -3.5310 n3        1 F34     -0.837200
     14 C2          0.9940    1.2300   -2.5960 c3        1 F34      0.166800
     15 H91C        0.8690    0.8760    1.9440 hc        1 F34      0.114367
     16 H92C        1.5990    1.8350    0.5760 hc        1 F34      0.114367
     17 H93C        2.6230    0.6460    1.5110 hc        1 F34      0.114367
     18 H2          2.8650    0.2260   -1.0320 hn        1 F34      0.470800
     19 H3          0.3790   -0.8740   -2.2360 hx        1 F34      0.136700
     20 H4          2.7040    0.0410   -4.0500 h1        1 F34      0.085700
     21 H21C        0.6570    1.7020   -1.6270 h1        1 F34      0.046200
     22 H22C        1.9440    1.7510   -2.9220 h1        1 F34      0.046200
     23 HA          3.4320   -2.2160   -3.8790 ho        1 F34      0.476000
     24 H5          0.8860   -2.4760   -4.2260 h1        1 F34      0.064700
     25 HB          1.5350   -1.9400   -6.4730 ho        1 F34      0.458000
     26 H6         -0.8910   -0.9810   -4.2720 h1        1 F34      0.062700
     27 HC         -1.2510   -0.6860   -6.4810 ho        1 F34      0.433000
     28 H71C       -0.6250    1.3530   -5.5470 h1        1 F34      0.065700
     29 H72C        1.1570    1.1330   -5.2730 h1        1 F34      0.065700
     30 H1         -0.4030    2.3340   -3.5500 hn        1 F34      0.408800
     31 H22         2.4690   -1.3920   -1.0480 hn        1 F34      0.470800
@<TRIPOS>BOND
     1    1    2 2   
     2    2    3 1   
     3    2    4 1   
     4    3   15 1   
     5    3   16 1   
     6    3   17 1   
     7    4    5 1   
     8    4   18 1   
     9    4   31 1   
    10    5    6 1   
    11    5   14 1   
    12    5   19 1   
    13    6    7 1   
    14    6    8 1   
    15    6   20 1   
    16    7   23 1   
    17    8    9 1   
    18    8   10 1   
    19    8   24 1   
    20    9   25 1   
    21   10   11 1   
    22   10   12 1   
    23   10   26 1   
    24   11   27 1   
    25   12   13 1   
    26   12   28 1   
    27   12   29 1   
    28   13   14 1   
    29   13   30 1   
    30   14   21 1   
    31   14   22 1   
@<TRIPOS>SUBSTRUCTURE
     1 F34         1 TEMP              0 ****  ****    0 ROOT
