@<TRIPOS>MOLECULE
F35
   39    42     1     0     0
SMALL
bcc


@<TRIPOS>ATOM
      1 O1          0.0600    0.3560    0.3580 o         1 F35     -0.608500
      2 C2          1.2760    0.1660    0.1960 c         1 F35      0.782500
      3 N           2.2670    0.2210    1.2190 n         1 F35     -0.524900
      4 C1          3.5510   -0.1710    0.6500 c3        1 F35     -0.022000
      5 C           3.2890   -0.2990   -0.8680 c         1 F35      0.692500
      6 O           4.1190   -0.5410   -1.7440 o         1 F35     -0.569500
      7 N1          1.9020   -0.1160   -1.0600 n         1 F35     -0.512400
      8 C3          1.2400    0.0130   -2.3280 c3        1 F35      0.154300
      9 C4          1.1290    1.4180   -2.8500 ca        1 F35     -0.107300
     10 C5          1.9300    1.8420   -3.9130 ca        1 F35     -0.114500
     11 C6          1.7950    3.1340   -4.4210 ca        1 F35     -0.099500
     12 C9          0.1990    2.2980   -2.2840 ca        1 F35     -0.114500
     13 C8          0.0600    3.5890   -2.7880 ca        1 F35     -0.099500
     14 C7          0.8550    4.0050   -3.8630 ca        1 F35     -0.139900
     15 C10         0.7110    5.3830   -4.4100 cc        1 F35      0.542500
     16 N3         -0.6000    5.8190   -4.6500 n         1 F35     -0.493400
     17 C17        -0.8500    7.1010   -5.1650 c         1 F35      0.708100
     18 O2         -2.0280    7.4480   -5.3640 o         1 F35     -0.623500
     19 N2          1.7930    6.1090   -4.6390 nd        1 F35     -0.614100
     20 C11         1.6250    7.4000   -5.1530 ca        1 F35      0.181400
     21 C12         0.3380    7.9340   -5.4280 ca        1 F35     -0.189600
     22 C16         2.7590    8.2120   -5.4100 ca        1 F35     -0.122000
     23 C15         2.5930    9.4900   -5.9180 ca        1 F35     -0.095000
     24 C14         1.3170   10.0040   -6.1850 ca        1 F35     -0.153000
     25 C13         0.1930    9.2290   -5.9410 ca        1 F35     -0.060000
     26 H           2.0160   -0.1270    2.1140 hn        1 F35      0.323500
     27 H11C        4.3080    0.6370    0.8370 h1        1 F35      0.090700
     28 H12C        3.9370   -1.1460    1.0520 h1        1 F35      0.090700
     29 H31C        0.1990   -0.4090   -2.2090 h1        1 F35      0.080200
     30 H32C        1.8150   -0.6200   -3.0670 h1        1 F35      0.080200
     31 H5          2.6750    1.1590   -4.3490 ha        1 F35      0.155000
     32 H9         -0.4170    1.9650   -1.4310 ha        1 F35      0.155000
     33 H6          2.4340    3.4660   -5.2550 ha        1 F35      0.149500
     34 H8         -0.6630    4.2770   -2.3240 ha        1 F35      0.149500
     35 H3         -1.3650    5.2110   -4.4620 hn        1 F35      0.339500
     36 H16         3.7670    7.8200   -5.2030 ha        1 F35      0.153000
     37 H13        -0.8210    9.6120   -6.1440 ha        1 F35      0.159000
     38 H15         3.4790   10.1150   -6.1150 ha        1 F35      0.137000
     39 H14         1.2100   11.0210   -6.5880 ha        1 F35      0.140000
@<TRIPOS>BOND
     1    1    2 2   
     2    2    3 1   
     3    2    7 1   
     4    3    4 1   
     5    3   26 1   
     6    4    5 1   
     7    4   27 1   
     8    4   28 1   
     9    5    6 2   
    10    5    7 1   
    11    7    8 1   
    12    8    9 1   
    13    8   29 1   
    14    8   30 1   
    15    9   10 ar  
    16    9   12 ar  
    17   10   11 ar  
    18   10   31 1   
    19   11   14 ar  
    20   11   33 1   
    21   12   13 ar  
    22   12   32 1   
    23   13   14 ar  
    24   13   34 1   
    25   14   15 1   
    26   15   16 1   
    27   15   19 2   
    28   16   17 1   
    29   16   35 1   
    30   17   18 2   
    31   17   21 1   
    32   19   20 1   
    33   20   21 ar  
    34   20   22 ar  
    35   21   25 ar  
    36   22   23 ar  
    37   22   36 1   
    38   23   24 ar  
    39   23   38 1   
    40   24   25 ar  
    41   24   39 1   
    42   25   37 1   
@<TRIPOS>SUBSTRUCTURE
     1 F35         1 TEMP              0 ****  ****    0 ROOT
