@<TRIPOS>MOLECULE
F35
   39    42     1     0     0
SMALL
bcc


@<TRIPOS>ATOM
      1 O1          0.0540    0.3530    0.3500 o         1 F35     -0.608500
      2 C2          1.2710    0.1640    0.1910 c         1 F35      0.782500
      3 N           2.2590    0.2200    1.2150 n         1 F35     -0.524900
      4 C1          3.5450   -0.1710    0.6500 c3        1 F35     -0.022000
      5 C           3.2870   -0.2980   -0.8700 c         1 F35      0.692500
      6 O           4.1190   -0.5380   -1.7440 o         1 F35     -0.569500
      7 N1          1.9000   -0.1160   -1.0640 n         1 F35     -0.512400
      8 C3          1.2410    0.0130   -2.3340 c3        1 F35      0.154300
      9 C4          1.1290    1.4180   -2.8550 ca        1 F35     -0.107300
     10 C5          1.9330    1.8440   -3.9150 ca        1 F35     -0.114500
     11 C6          1.7970    3.1360   -4.4230 ca        1 F35     -0.099500
     12 C9          0.1950    2.2960   -2.2920 ca        1 F35     -0.114500
     13 C8          0.0560    3.5870   -2.7950 ca        1 F35     -0.099500
     14 C7          0.8530    4.0060   -3.8670 ca        1 F35     -0.139900
     15 C10         0.7080    5.3840   -4.4130 cc        1 F35      0.542500
     16 N3         -0.6020    5.8160   -4.6580 n         1 F35     -0.493400
     17 C17        -0.8530    7.0990   -5.1730 c         1 F35      0.708100
     18 O2         -2.0310    7.4440   -5.3770 o         1 F35     -0.623500
     19 N2          1.7900    6.1120   -4.6370 nd        1 F35     -0.614100
     20 C11         1.6220    7.4040   -5.1510 ca        1 F35      0.181400
     21 C12         0.3340    7.9340   -5.4310 ca        1 F35     -0.189600
     22 C16         2.7540    8.2170   -5.4020 ca        1 F35     -0.122000
     23 C15         2.5880    9.4960   -5.9100 ca        1 F35     -0.095000
     24 C14         1.3120   10.0070   -6.1820 ca        1 F35     -0.153000
     25 C13         0.1880    9.2300   -5.9440 ca        1 F35     -0.060000
     26 H           2.0070   -0.1290    2.1100 hn        1 F35      0.323500
     27 H11C        4.3010    0.6390    0.8380 h1        1 F35      0.090700
     28 H12C        3.9310   -1.1450    1.0510 h1        1 F35      0.090700
     29 H31C        1.8180   -0.6190   -3.0710 h1        1 F35      0.080200
     30 H32C        0.2000   -0.4110   -2.2180 h1        1 F35      0.080200
     31 H5          2.6810    1.1630   -4.3490 ha        1 F35      0.155000
     32 H9         -0.4230    1.9610   -1.4410 ha        1 F35      0.155000
     33 H6          2.4380    3.4700   -5.2530 ha        1 F35      0.149500
     34 H8         -0.6700    4.2730   -2.3320 ha        1 F35      0.149500
     35 H3         -1.3670    5.2070   -4.4740 hn        1 F35      0.339500
     36 H16         3.7620    7.8280   -5.1910 ha        1 F35      0.153000
     37 H13        -0.8260    9.6110   -6.1500 ha        1 F35      0.159000
     38 H15         3.4730   10.1230   -6.1020 ha        1 F35      0.137000
     39 H14         1.2040   11.0250   -6.5850 ha        1 F35      0.140000
@<TRIPOS>BOND
     1    1    2 2   
     2    2    3 1   
     3    2    7 1   
     4    3    4 1   
     5    3   26 1   
     6    4    5 1   
     7    4   27 1   
     8    4   28 1   
     9    5    6 2   
    10    5    7 1   
    11    7    8 1   
    12    8    9 1   
    13    8   29 1   
    14    8   30 1   
    15    9   10 ar  
    16    9   12 ar  
    17   10   11 ar  
    18   10   31 1   
    19   11   14 ar  
    20   11   33 1   
    21   12   13 ar  
    22   12   32 1   
    23   13   14 ar  
    24   13   34 1   
    25   14   15 1   
    26   15   16 1   
    27   15   19 2   
    28   16   17 1   
    29   16   35 1   
    30   17   18 2   
    31   17   21 1   
    32   19   20 1   
    33   20   21 ar  
    34   20   22 ar  
    35   21   25 ar  
    36   22   23 ar  
    37   22   36 1   
    38   23   24 ar  
    39   23   38 1   
    40   24   25 ar  
    41   24   39 1   
    42   25   37 1   
@<TRIPOS>SUBSTRUCTURE
     1 F35         1 TEMP              0 ****  ****    0 ROOT
