@<TRIPOS>MOLECULE
F35
   39    42     1     0     0
SMALL
bcc


@<TRIPOS>ATOM
      1 O1          0.0560    0.3530    0.3510 o         1 F35     -0.608500
      2 C2          1.2730    0.1670    0.1940 c         1 F35      0.782500
      3 N           2.2600    0.2260    1.2190 ns        1 F35     -0.524900
      4 C1          3.5480   -0.1630    0.6560 c3        1 F35     -0.022000
      5 C           3.2910   -0.2920   -0.8640 c         1 F35      0.692500
      6 O           4.1250   -0.5310   -1.7360 o         1 F35     -0.569500
      7 N1          1.9050   -0.1140   -1.0600 n         1 F35     -0.512400
      8 C3          1.2470    0.0130   -2.3310 c3        1 F35      0.154300
      9 C4          1.1320    1.4180   -2.8530 ca        1 F35     -0.107300
     10 C5          1.9360    1.8440   -3.9130 ca        1 F35     -0.114500
     11 C6          1.7990    3.1350   -4.4220 ca        1 F35     -0.099500
     12 C9          0.1970    2.2950   -2.2910 ca        1 F35     -0.114500
     13 C8          0.0560    3.5850   -2.7960 ca        1 F35     -0.099500
     14 C7          0.8540    4.0040   -3.8680 ca        1 F35     -0.139900
     15 C10         0.7070    5.3820   -4.4150 cc        1 F35      0.542500
     16 N3         -0.6040    5.8120   -4.6600 ns        1 F35     -0.493400
     17 C17        -0.8560    7.0940   -5.1760 c         1 F35      0.708100
     18 O2         -2.0350    7.4370   -5.3800 o         1 F35     -0.623500
     19 N2          1.7880    6.1100   -4.6390 nd        1 F35     -0.614100
     20 C11         1.6180    7.4020   -5.1540 ca        1 F35      0.181400
     21 C12         0.3300    7.9310   -5.4340 ca        1 F35     -0.189600
     22 C16         2.7500    8.2170   -5.4070 ca        1 F35     -0.122000
     23 C15         2.5820    9.4950   -5.9150 ca        1 F35     -0.095000
     24 C14         1.3050   10.0040   -6.1880 ca        1 F35     -0.153000
     25 C13         0.1820    9.2260   -5.9480 ca        1 F35     -0.060000
     26 H           2.0070   -0.1230    2.1140 hn        1 F35      0.323500
     27 H11C        3.9350   -1.1360    1.0590 h1        1 F35      0.090700
     28 H12C        4.3010    0.6480    0.8450 h1        1 F35      0.090700
     29 H31C        0.2060   -0.4130   -2.2160 h1        1 F35      0.080200
     30 H32C        1.8260   -0.6180   -3.0670 h1        1 F35      0.080200
     31 H5          2.6860    1.1640   -4.3470 ha        1 F35      0.155000
     32 H9         -0.4210    1.9590   -1.4410 ha        1 F35      0.155000
     33 H6          2.4400    3.4700   -5.2530 ha        1 F35      0.149500
     34 H8         -0.6710    4.2710   -2.3340 ha        1 F35      0.149500
     35 H3         -1.3680    5.2020   -4.4750 hn        1 F35      0.339500
     36 H16         3.7580    7.8280   -5.1960 ha        1 F35      0.153000
     37 H13        -0.8320    9.6050   -6.1550 ha        1 F35      0.159000
     38 H15         3.4660   10.1220   -6.1090 ha        1 F35      0.137000
     39 H14         1.1960   11.0210   -6.5910 ha        1 F35      0.140000
@<TRIPOS>BOND
     1    1    2 2   
     2    2    3 1   
     3    2    7 1   
     4    3    4 1   
     5    3   26 1   
     6    4    5 1   
     7    4   27 1   
     8    4   28 1   
     9    5    6 2   
    10    5    7 1   
    11    7    8 1   
    12    8    9 1   
    13    8   29 1   
    14    8   30 1   
    15    9   10 ar  
    16    9   12 ar  
    17   10   11 ar  
    18   10   31 1   
    19   11   14 ar  
    20   11   33 1   
    21   12   13 ar  
    22   12   32 1   
    23   13   14 ar  
    24   13   34 1   
    25   14   15 1   
    26   15   16 1   
    27   15   19 2   
    28   16   17 1   
    29   16   35 1   
    30   17   18 2   
    31   17   21 1   
    32   19   20 1   
    33   20   21 ar  
    34   20   22 ar  
    35   21   25 ar  
    36   22   23 ar  
    37   22   36 1   
    38   23   24 ar  
    39   23   38 1   
    40   24   25 ar  
    41   24   39 1   
    42   25   37 1   
@<TRIPOS>SUBSTRUCTURE
     1 F35         1 TEMP              0 ****  ****    0 ROOT
