@<TRIPOS>MOLECULE
F35
   39    36     1     0     0
SMALL
bcc


@<TRIPOS>ATOM
      1 O1          0.6890   -3.6630    2.3500 o         1 F35     -0.324000
      2 C2         -0.3550   -3.7900    2.9520 c1        1 F35      0.373000
      3 N          -0.5200   -4.4340    4.2230 n2        1 F35     -0.332000
      4 C1         -1.7780   -3.9850    4.7930 c3        1 F35     -0.089000
      5 C          -2.4190   -3.2370    3.6280 c2        1 F35      0.301000
      6 O          -3.4420   -2.5710    3.6800 o         1 F35     -0.304000
      7 N1         -1.5990   -3.3890    2.5130 n         1 F35     -0.345000
      8 C3         -2.0120   -3.2630    1.1300 c3        1 F35      0.032000
      9 C4         -1.3500   -2.0760    0.5190 c2        1 F35     -0.097000
     10 C5         -0.4150   -2.2450   -0.4870 c1        1 F35     -0.114000
     11 C6          0.2450   -1.1430   -1.0120 c1        1 F35     -0.084000
     12 C9         -1.6260   -0.8040    1.0030 c2        1 F35     -0.117000
     13 C8         -0.9710    0.2890    0.4810 c1        1 F35     -0.116000
     14 C7         -0.0320    0.1220   -0.5290 c1        1 F35     -0.057000
     15 C10         0.6910    1.3410   -1.1080 c2        1 F35      0.163000
     16 N3          1.8330    1.8840   -0.4360 n         1 F35     -0.333000
     17 C17         2.4890    3.0070   -0.9640 c2        1 F35      0.345000
     18 O2          3.5080    3.4530   -0.4050 o         1 F35     -0.349000
     19 N2          0.2170    1.9460   -2.3240 n1        1 F35     -0.186000
     20 C11         0.9000    3.1230   -2.8760 c1        1 F35      0.042000
     21 C12         1.9900    3.6410   -2.2380 c2        1 F35     -0.169000
     22 C16         0.4450    3.7060   -4.0940 c1        1 F35     -0.122000
     23 C15         1.1090    4.7980   -4.6290 c1        1 F35     -0.123500
     24 C14         2.2190    5.3260   -3.9790 c1        1 F35     -0.123500
     25 C13         2.6660    4.7570   -2.7880 c1        1 F35     -0.060000
     26 H           0.1170   -4.9190    4.6580 hn        1 F35      0.236000
     27 H11C       -2.3540   -4.6950    5.1960 h1        1 F35      0.130500
     28 H12C       -1.5180   -3.2830    5.4430 h1        1 F35      0.130500
     29 H31C       -1.7570   -4.0690    0.6390 h1        1 F35      0.120000
     30 H32C       -2.9700   -3.1510    1.0900 h1        1 F35      0.120000
     31 H5         -0.2200   -3.1400   -0.8280 ha        1 F35      0.150000
     32 H9         -2.2820   -0.6840    1.7070 ha        1 F35      0.159000
     33 H6          0.9060   -1.2610   -1.7240 ha        1 F35      0.156000
     34 H8         -1.1710    1.2080    0.8310 ha        1 F35      0.142000
     35 H3          2.1890    1.4440    0.3020 hn        1 F35      0.252000
     36 H16        -0.3450    3.3320   -4.5570 ha        1 F35      0.153000
     37 H13         3.4340    5.1230   -2.3390 ha        1 F35      0.159000
     38 H15         0.7990    5.1940   -5.4570 ha        1 F35      0.138500
     39 H14         2.6920    6.1070   -4.3630 ha        1 F35      0.138500
@<TRIPOS>BOND
     1    1    2 1   
     2    2    7 1   
     3    3    4 1   
     4    3   26 1   
     5    4    5 1   
     6    4   27 1   
     7    4   28 1   
     8    5    6 1   
     9    5    7 1   
    10    7    8 1   
    11    8    9 1   
    12    8   29 1   
    13    8   30 1   
    14    9   10 1   
    15    9   12 1   
    16   10   31 1   
    17   11   14 1   
    18   11   33 1   
    19   12   13 1   
    20   12   32 1   
    21   13   34 1   
    22   14   15 1   
    23   15   16 1   
    24   15   19 1   
    25   16   17 1   
    26   16   35 1   
    27   17   18 1   
    28   17   21 1   
    29   20   21 1   
    30   20   22 1   
    31   21   25 1   
    32   22   36 1   
    33   23   24 1   
    34   23   38 1   
    35   24   39 1   
    36   25   37 1   
@<TRIPOS>SUBSTRUCTURE
     1 F35         1 TEMP              0 ****  ****    0 ROOT
