@<TRIPOS>MOLECULE
F35
   39    42     1     0     0
SMALL
bcc


@<TRIPOS>ATOM
      1 O1         -4.6550   -2.1170   -0.6980 o         1 F35     -0.608500
      2 C2         -4.9020   -0.9030   -0.7820 c         1 F35      0.782500
      3 N          -5.5070   -0.2560   -1.8980 n         1 F35     -0.524900
      4 C1         -5.7310    1.1460   -1.5630 c3        1 F35     -0.022000
      5 C          -5.0380    1.3410   -0.1940 c         1 F35      0.692500
      6 O          -4.9170    2.3950    0.4290 o         1 F35     -0.569500
      7 N1         -4.5960    0.0680    0.2250 n         1 F35     -0.512400
      8 C3         -3.7550   -0.1980    1.3590 c3        1 F35      0.154300
      9 C4         -2.2790   -0.1790    1.0780 ca        1 F35     -0.107300
     10 C5         -1.4910    0.8900    1.5130 ca        1 F35     -0.114500
     11 C6         -0.1150    0.8850    1.2870 ca        1 F35     -0.099500
     12 C9         -1.6860   -1.2500    0.3990 ca        1 F35     -0.114500
     13 C8         -0.3120   -1.2600    0.1700 ca        1 F35     -0.099500
     14 C7          0.4760   -0.1940    0.6210 ca        1 F35     -0.139900
     15 C10         1.9460   -0.1980    0.3830 cc        1 F35      0.542500
     16 N3          2.6180   -1.3890    0.6890 n         1 F35     -0.493400
     17 C17         4.0050   -1.5030    0.5030 c         1 F35      0.708100
     18 O2          4.5630   -2.5780    0.7870 o         1 F35     -0.623500
     19 N2          2.5310    0.8900   -0.0900 nd        1 F35     -0.614100
     20 C11         3.9150    0.8550   -0.3030 ca        1 F35      0.181400
     21 C12         4.6850   -0.3060   -0.0260 ca        1 F35     -0.189600
     22 C16         4.5810    1.9980   -0.8110 ca        1 F35     -0.122000
     23 C15         5.9500    1.9640   -1.0240 ca        1 F35     -0.095000
     24 C14         6.6970    0.8120   -0.7450 ca        1 F35     -0.153000
     25 C13         6.0680   -0.3200   -0.2470 ca        1 F35     -0.060000
     26 H          -6.2210   -0.7500   -2.3790 hn        1 F35      0.323500
     27 H11C       -5.2390    1.8000   -2.3320 h1        1 F35      0.090700
     28 H12C       -6.8170    1.4160   -1.4800 h1        1 F35      0.090700
     29 H31C       -4.0010    0.5790    2.1410 h1        1 F35      0.080200
     30 H32C       -4.0320   -1.2200    1.7520 h1        1 F35      0.080200
     31 H5         -1.9560    1.7430    2.0320 ha        1 F35      0.155000
     32 H9         -2.3160   -2.0820    0.0400 ha        1 F35      0.155000
     33 H6          0.5010    1.7330    1.6250 ha        1 F35      0.149500
     34 H8          0.1390   -2.1000   -0.3800 ha        1 F35      0.149500
     35 H3          2.1100   -2.1650    1.0520 hn        1 F35      0.339500
     36 H16         4.0040    2.9090   -1.0360 ha        1 F35      0.153000
     37 H13         6.6360   -1.2370   -0.0210 ha        1 F35      0.159000
     38 H15         6.4600    2.8570   -1.4190 ha        1 F35      0.137000
     39 H14         7.7830    0.8080   -0.9210 ha        1 F35      0.140000
@<TRIPOS>BOND
     1    1    2 2   
     2    2    3 1   
     3    2    7 1   
     4    3    4 1   
     5    3   26 1   
     6    4    5 1   
     7    4   27 1   
     8    4   28 1   
     9    5    6 2   
    10    5    7 1   
    11    7    8 1   
    12    8    9 1   
    13    8   29 1   
    14    8   30 1   
    15    9   10 ar  
    16    9   12 ar  
    17   10   11 ar  
    18   10   31 1   
    19   11   14 ar  
    20   11   33 1   
    21   12   13 ar  
    22   12   32 1   
    23   13   14 ar  
    24   13   34 1   
    25   14   15 1   
    26   15   16 1   
    27   15   19 2   
    28   16   17 1   
    29   16   35 1   
    30   17   18 2   
    31   17   21 1   
    32   19   20 1   
    33   20   21 ar  
    34   20   22 ar  
    35   21   25 ar  
    36   22   23 ar  
    37   22   36 1   
    38   23   24 ar  
    39   23   38 1   
    40   24   25 ar  
    41   24   39 1   
    42   25   37 1   
@<TRIPOS>SUBSTRUCTURE
     1 F35         1 TEMP              0 ****  ****    0 ROOT
