@<TRIPOS>MOLECULE
F36
   32    34     1     0     0
SMALL
bcc


@<TRIPOS>ATOM
      1 O1         -2.8930   -2.6020   -0.9740 o         1 F36     -0.620500
      2 C13        -2.4530   -1.5050   -0.5890 c         1 F36      0.708100
      3 N1         -1.0620   -1.3330   -0.4850 n         1 F36     -0.493400
      4 C6         -0.5190   -0.1140   -0.0570 cc        1 F36      0.536500
      5 C3          0.9670   -0.0450    0.0170 ca        1 F36     -0.120900
      6 C2          1.6890   -1.0720    0.6350 ca        1 F36     -0.110500
      7 C1          3.0790   -0.9980    0.7000 ca        1 F36     -0.089000
      8 O           5.8830   -0.8350    0.6470 o         1 F36     -0.528100
      9 C5          3.0280    1.1240   -0.4590 ca        1 F36     -0.089000
     10 C4          1.6370    1.0550   -0.5270 ca        1 F36     -0.110500
     11 N          -1.2340    0.9490    0.2740 nd        1 F36     -0.611100
     12 C7         -2.6290    0.8550    0.1980 ca        1 F36      0.179400
     13 C20         3.7590    0.1000    0.1530 ca        1 F36     -0.157600
     14 C8         -3.2760   -0.3380   -0.2230 ca        1 F36     -0.187600
     15 C12        -3.4330    1.9690    0.5490 ca        1 F36     -0.121000
     16 C11        -4.8130    1.8760    0.4740 ca        1 F36     -0.095000
     17 C10        -5.4380    0.6930    0.0570 ca        1 F36     -0.151000
     18 C9         -4.6730   -0.4110   -0.2910 ca        1 F36     -0.060000
     19 CAA         5.2370    0.1400    0.2420 c         1 F36      0.574700
     20 C           5.9160    1.4070   -0.1700 c3        1 F36     -0.199100
     21 H1         -0.4580   -2.0860   -0.7290 hn        1 F36      0.340500
     22 H4          1.0690    1.8700   -1.0030 ha        1 F36      0.151500
     23 H2          1.1710   -1.9320    1.0870 ha        1 F36      0.151500
     24 H5          3.5440    1.9960   -0.8920 ha        1 F36      0.152500
     25 HA          3.6590   -1.8030    1.1820 ha        1 F36      0.152500
     26 H12        -2.9540    2.9030    0.8800 ha        1 F36      0.153000
     27 H9         -5.1430   -1.3520   -0.6220 ha        1 F36      0.159000
     28 H11        -5.4310    2.7460    0.7490 ha        1 F36      0.138000
     29 H10        -6.5360    0.6420    0.0060 ha        1 F36      0.141000
     30 HC1         5.7690    1.5770   -1.2640 hc        1 F36      0.067033
     31 HC2         5.4910    2.2730    0.3930 hc        1 F36      0.067033
     32 HC3         7.0130    1.3430    0.0380 hc        1 F36      0.067033
@<TRIPOS>BOND
     1    1    2 2   
     2    2    3 1   
     3    2   14 1   
     4    3    4 1   
     5    3   21 1   
     6    4    5 1   
     7    4   11 2   
     8    5    6 ar  
     9    5   10 ar  
    10    6    7 ar  
    11    6   23 1   
    12    7   13 ar  
    13    7   25 1   
    14    8   19 2   
    15    9   10 ar  
    16    9   13 ar  
    17    9   24 1   
    18   10   22 1   
    19   11   12 1   
    20   12   14 ar  
    21   12   15 ar  
    22   13   19 1   
    23   14   18 ar  
    24   15   16 ar  
    25   15   26 1   
    26   16   17 ar  
    27   16   28 1   
    28   17   18 ar  
    29   17   29 1   
    30   18   27 1   
    31   19   20 1   
    32   20   30 1   
    33   20   31 1   
    34   20   32 1   
@<TRIPOS>SUBSTRUCTURE
     1 F36         1 TEMP              0 ****  ****    0 ROOT
