@<TRIPOS>MOLECULE
F36
   32    34     1     0     0
SMALL
bcc


@<TRIPOS>ATOM
      1 O1          0.1120    0.9340    0.0100 o         1 F36     -0.620500
      2 C13         1.2950    0.5570   -0.0580 c         1 F36      0.708100
      3 N1          2.0460    0.4680    1.1260 n         1 F36     -0.493400
      4 C6          3.3830    0.0490    1.0980 cc        1 F36      0.536500
      5 C3          4.0820   -0.0090    2.4130 ca        1 F36     -0.120900
      6 C2          3.4670   -0.6230    3.5100 ca        1 F36     -0.110500
      7 C1          4.1290   -0.6730    4.7340 ca        1 F36     -0.089000
      8 O           5.4740   -0.5870    7.1990 o         1 F36     -0.528100
      9 C5          6.0180    0.4900    3.7710 ca        1 F36     -0.089000
     10 C4          5.3590    0.5440    2.5430 ca        1 F36     -0.110500
     11 N           4.0400   -0.2860    0.0000 nd        1 F36     -0.611100
     12 C7          3.3580   -0.2250   -1.2220 ca        1 F36      0.179400
     13 C20         5.4080   -0.1170    4.8750 ca        1 F36     -0.156600
     14 C8          2.0000    0.1850   -1.2990 ca        1 F36     -0.187600
     15 C12         4.0230   -0.5800   -2.4210 ca        1 F36     -0.121000
     16 C11         3.3480   -0.5200   -3.6300 ca        1 F36     -0.095000
     17 C10         2.0090   -0.1130   -3.6920 ca        1 F36     -0.151000
     18 C9          1.3360    0.2390   -2.5310 ca        1 F36     -0.060000
     19 CAA         6.0780   -0.1920    6.1940 c         1 F36      0.574700
     20 C           7.5140    0.2220    6.2600 c3        1 F36     -0.199100
     21 H1          1.6220    0.7150    1.9920 hn        1 F36      0.340500
     22 H4          5.8490    1.0170    1.6770 ha        1 F36      0.151500
     23 H2          2.4710   -1.0820    3.4130 ha        1 F36      0.151500
     24 H5          7.0230    0.9310    3.8610 ha        1 F36      0.152500
     25 HA          3.6530   -1.1520    5.6070 ha        1 F36      0.152500
     26 H12         5.0750   -0.9030   -2.3860 ha        1 F36      0.153000
     27 H9          0.2820    0.5610   -2.5560 ha        1 F36      0.159000
     28 H11         3.8720   -0.7980   -4.5580 ha        1 F36      0.138000
     29 H10         1.4930   -0.0740   -4.6620 ha        1 F36      0.141000
     30 HC1         8.1130   -0.3450    5.5080 hc        1 F36      0.067033
     31 HC2         7.6030    1.3150    6.0470 hc        1 F36      0.067033
     32 HC3         7.9280    0.0210    7.2790 hc        1 F36      0.067033
@<TRIPOS>BOND
     1    1    2 2   
     2    2    3 1   
     3    2   14 1   
     4    3    4 1   
     5    3   21 1   
     6    4    5 1   
     7    4   11 2   
     8    5    6 ar  
     9    5   10 ar  
    10    6    7 ar  
    11    6   23 1   
    12    7   13 ar  
    13    7   25 1   
    14    8   19 2   
    15    9   10 ar  
    16    9   13 ar  
    17    9   24 1   
    18   10   22 1   
    19   11   12 1   
    20   12   14 ar  
    21   12   15 ar  
    22   13   19 1   
    23   14   18 ar  
    24   15   16 ar  
    25   15   26 1   
    26   16   17 ar  
    27   16   28 1   
    28   17   18 ar  
    29   17   29 1   
    30   18   27 1   
    31   19   20 1   
    32   20   30 1   
    33   20   31 1   
    34   20   32 1   
@<TRIPOS>SUBSTRUCTURE
     1 F36         1 TEMP              0 ****  ****    0 ROOT
