@<TRIPOS>MOLECULE
F36
   32    34     1     0     0
SMALL
bcc


@<TRIPOS>ATOM
      1 O1          0.1260    0.9900    0.0100 o         1 F36     -0.620500
      2 C13         1.3040    0.5950   -0.0580 c         1 F36      0.708100
      3 N1          2.0540    0.4950    1.1260 n         1 F36     -0.493400
      4 C6          3.3840    0.0560    1.0980 cc        1 F36      0.536500
      5 C3          4.0820   -0.0110    2.4130 ca        1 F36     -0.120900
      6 C2          3.4590   -0.6160    3.5100 ca        1 F36     -0.110500
      7 C1          4.1200   -0.6750    4.7340 ca        1 F36     -0.089000
      8 O           5.4680   -0.6120    7.1980 o         1 F36     -0.528100
      9 C5          6.0250    0.4610    3.7700 ca        1 F36     -0.089000
     10 C4          5.3680    0.5240    2.5420 ca        1 F36     -0.110500
     11 N           4.0360   -0.2890    0.0000 nd        1 F36     -0.611100
     12 C7          3.3540   -0.2180   -1.2220 ca        1 F36      0.179400
     13 C20         5.4070   -0.1360    4.8740 ca        1 F36     -0.157600
     14 C8          2.0030    0.2130   -1.2990 ca        1 F36     -0.187600
     15 C12         4.0140   -0.5830   -2.4210 ca        1 F36     -0.121000
     16 C11         3.3400   -0.5140   -3.6300 ca        1 F36     -0.095000
     17 C10         2.0070   -0.0870   -3.6920 ca        1 F36     -0.151000
     18 C9          1.3390    0.2760   -2.5310 ca        1 F36     -0.060000
     19 CAA         6.0760   -0.2200    6.1940 c         1 F36      0.574700
     20 C           7.5140    0.1820    6.2620 c3        1 F36     -0.199100
     21 H1          1.6330    0.7490    1.9920 hn        1 F36      0.340500
     22 H4          5.8640    0.9890    1.6760 ha        1 F36      0.151500
     23 H2          2.4560   -1.0610    3.4130 ha        1 F36      0.151500
     24 H5          7.0360    0.8870    3.8600 ha        1 F36      0.152500
     25 HA          3.6380   -1.1470    5.6070 ha        1 F36      0.152500
     26 H12         5.0610   -0.9220   -2.3860 ha        1 F36      0.153000
     27 H9          0.2900    0.6140   -2.5560 ha        1 F36      0.159000
     28 H11         3.8590   -0.8000   -4.5580 ha        1 F36      0.138000
     29 H10         1.4920   -0.0400   -4.6620 ha        1 F36      0.141000
     30 HC1         8.1110   -0.3910    5.5120 hc        1 F36      0.067033
     31 HC2         7.6130    1.2750    6.0460 hc        1 F36      0.067033
     32 HC3         7.9250   -0.0190    7.2820 hc        1 F36      0.067033
@<TRIPOS>BOND
     1    1    2 2   
     2    2    3 1   
     3    2   14 1   
     4    3    4 1   
     5    3   21 1   
     6    4    5 1   
     7    4   11 2   
     8    5    6 ar  
     9    5   10 ar  
    10    6    7 ar  
    11    6   23 1   
    12    7   13 ar  
    13    7   25 1   
    14    8   19 2   
    15    9   10 ar  
    16    9   13 ar  
    17    9   24 1   
    18   10   22 1   
    19   11   12 1   
    20   12   14 ar  
    21   12   15 ar  
    22   13   19 1   
    23   14   18 ar  
    24   15   16 ar  
    25   15   26 1   
    26   16   17 ar  
    27   16   28 1   
    28   17   18 ar  
    29   17   29 1   
    30   18   27 1   
    31   19   20 1   
    32   20   30 1   
    33   20   31 1   
    34   20   32 1   
@<TRIPOS>SUBSTRUCTURE
     1 F36         1 TEMP              0 ****  ****    0 ROOT
