@<TRIPOS>MOLECULE
F36
   32    34     1     0     0
SMALL
bcc


@<TRIPOS>ATOM
      1 O1          0.1270    0.9790    0.0010 o         1 F36     -0.620500
      2 C13         1.3050    0.5850   -0.0640 c         1 F36      0.708100
      3 N1          2.0540    0.4910    1.1210 ns        1 F36     -0.493400
      4 C6          3.3850    0.0540    1.0970 cc        1 F36      0.536500
      5 C3          4.0810   -0.0060    2.4130 ca        1 F36     -0.120900
      6 C2          3.4570   -0.6060    3.5130 ca        1 F36     -0.110500
      7 C1          4.1170   -0.6580    4.7370 ca        1 F36     -0.089000
      8 O           5.4620   -0.5790    7.2030 o         1 F36     -0.528100
      9 C5          6.0220    0.4740    3.7700 ca        1 F36     -0.089000
     10 C4          5.3660    0.5300    2.5410 ca        1 F36     -0.110500
     11 N           4.0380   -0.2960    0.0020 nd        1 F36     -0.611100
     12 C7          3.3580   -0.2330   -1.2210 ca        1 F36      0.179400
     13 C20         5.4040   -0.1180    4.8770 ca        1 F36     -0.157600
     14 C8          2.0060    0.1960   -1.3020 ca        1 F36     -0.187600
     15 C12         4.0190   -0.6030   -2.4180 ca        1 F36     -0.121000
     16 C11         3.3460   -0.5410   -3.6280 ca        1 F36     -0.095000
     17 C10         2.0120   -0.1150   -3.6930 ca        1 F36     -0.151000
     18 C9          1.3430    0.2520   -2.5350 ca        1 F36     -0.060000
     19 CAA         6.0710   -0.1940    6.1970 c         1 F36      0.574700
     20 C           7.5100    0.2070    6.2640 c3        1 F36     -0.199100
     21 H1          1.6320    0.7500    1.9860 hn        1 F36      0.340500
     22 H4          5.8640    0.9910    1.6730 ha        1 F36      0.151500
     23 H2          2.4550   -1.0520    3.4170 ha        1 F36      0.151500
     24 H5          7.0330    0.9020    3.8580 ha        1 F36      0.152500
     25 HA          3.6340   -1.1250    5.6120 ha        1 F36      0.152500
     26 H12         5.0660   -0.9410   -2.3800 ha        1 F36      0.153000
     27 H9          0.2940    0.5900   -2.5620 ha        1 F36      0.159000
     28 H11         3.8660   -0.8310   -4.5540 ha        1 F36      0.138000
     29 H10         1.4980   -0.0740   -4.6650 ha        1 F36      0.141000
     30 HC1         8.1060   -0.3700    5.5170 hc        1 F36      0.067033
     31 HC2         7.6090    1.2980    6.0430 hc        1 F36      0.067033
     32 HC3         7.9200    0.0100    7.2850 hc        1 F36      0.067033
@<TRIPOS>BOND
     1    1    2 2   
     2    2    3 1   
     3    2   14 1   
     4    3    4 1   
     5    3   21 1   
     6    4    5 1   
     7    4   11 2   
     8    5    6 ar  
     9    5   10 ar  
    10    6    7 ar  
    11    6   23 1   
    12    7   13 ar  
    13    7   25 1   
    14    8   19 2   
    15    9   10 ar  
    16    9   13 ar  
    17    9   24 1   
    18   10   22 1   
    19   11   12 1   
    20   12   14 ar  
    21   12   15 ar  
    22   13   19 1   
    23   14   18 ar  
    24   15   16 ar  
    25   15   26 1   
    26   16   17 ar  
    27   16   28 1   
    28   17   18 ar  
    29   17   29 1   
    30   18   27 1   
    31   19   20 1   
    32   20   30 1   
    33   20   31 1   
    34   20   32 1   
@<TRIPOS>SUBSTRUCTURE
     1 F36         1 TEMP              0 ****  ****    0 ROOT
