@<TRIPOS>MOLECULE
F36
   32    28     1     0     0
SMALL
bcc


@<TRIPOS>ATOM
      1 O1         -3.9530   -0.0030   -1.6590 o         1 F36     -0.345000
      2 C13        -2.7380   -0.0020   -1.6690 c1        1 F36      0.345000
      3 N1         -2.0270   -0.0110   -0.4600 n2        1 F36     -0.333000
      4 C6         -0.5990   -0.0550   -0.4720 c2        1 F36      0.158000
      5 C3          0.1670   -0.0690    0.8320 c2        1 F36     -0.037000
      6 C2          0.4500   -1.2730    1.4570 c1        1 F36     -0.126000
      7 C1          1.1410   -1.2850    2.6580 c1        1 F36     -0.079000
      8 O           2.4060   -1.4930    4.9400 o         1 F36     -0.289000
      9 C5          1.2680    1.1110    2.6100 c1        1 F36     -0.099000
     10 C4          0.5760    1.1240    1.4080 c2        1 F36     -0.095000
     11 N           0.1140   -0.0890   -1.7290 n1        1 F36     -0.184000
     12 C7         -0.6220   -0.0800   -2.9880 c1        1 F36      0.040000
     13 C20         1.5500   -0.0930    3.2340 c1        1 F36     -0.137000
     14 C8         -1.9950   -0.0380   -2.9800 c2        1 F36     -0.167000
     15 C12         0.0720   -0.1410   -4.2100 c1        1 F36     -0.121000
     16 C11        -0.6310   -0.1590   -5.4060 c1        1 F36     -0.123000
     17 C10        -2.0190   -0.1170   -5.3980 c1        1 F36     -0.123000
     18 C9         -2.7050   -0.0570   -4.1920 c1        1 F36     -0.060000
     19 CAA         2.2650   -0.3540    4.5420 c2        1 F36      0.265000
     20 C           2.8150    0.8020    5.3470 c3        1 F36     -0.267000
     21 H1         -2.4770   -0.0190    0.3330 hn        1 F36      0.254000
     22 H4          0.3770    1.9720    0.9680 ha        1 F36      0.157000
     23 H2          0.1620   -2.1130    1.0510 ha        1 F36      0.146000
     24 H5          1.5560    1.9510    3.0150 ha        1 F36      0.142000
     25 HA          1.3400   -2.1340    3.0980 ha        1 F36      0.163000
     26 H12         1.0470   -0.1710   -4.2160 ha        1 F36      0.153000
     27 H9         -3.6810   -0.0270   -4.1870 ha        1 F36      0.159000
     28 H11        -0.1490   -0.2010   -6.2540 ha        1 F36      0.139500
     29 H10        -2.5130   -0.1300   -6.2400 ha        1 F36      0.139500
     30 HC1         3.2180    0.4620    6.1730 hc        1 F36      0.106333
     31 HC2         2.0880    1.4210    5.5690 hc        1 F36      0.106333
     32 HC3         3.4950    1.2720    4.8210 hc        1 F36      0.106333
@<TRIPOS>BOND
     1    1    2 1   
     2    2   14 1   
     3    3    4 1   
     4    3   21 1   
     5    4    5 1   
     6    4   11 1   
     7    5    6 1   
     8    5   10 1   
     9    6   23 1   
    10    7   13 1   
    11    7   25 1   
    12    8   19 1   
    13    9   10 1   
    14    9   24 1   
    15   10   22 1   
    16   12   14 1   
    17   12   15 1   
    18   13   19 1   
    19   14   18 1   
    20   15   26 1   
    21   16   17 1   
    22   16   28 1   
    23   17   29 1   
    24   18   27 1   
    25   19   20 1   
    26   20   30 1   
    27   20   31 1   
    28   20   32 1   
@<TRIPOS>SUBSTRUCTURE
     1 F36         1 TEMP              0 ****  ****    0 ROOT
