@<TRIPOS>MOLECULE
F37
   39    42     1     0     0
SMALL
bcc


@<TRIPOS>ATOM
      1 O          -0.1850    0.0260   -0.2730 o         1 F37     -0.596500
      2 C2          1.0470   -0.0150   -0.1420 c         1 F37      0.781500
      3 N1          1.7250    0.0310    1.1080 n         1 F37     -0.609500
      4 C3          3.1110    0.0000    0.9160 c         1 F37      0.697500
      5 O1          3.9540   -0.0250    1.8150 o         1 F37     -0.578500
      6 N           1.9980   -0.1730   -1.1930 n         1 F37     -0.511900
      7 C1          3.3650   -0.0360   -0.6330 c3        1 F37      0.059700
      8 C           4.2280   -1.2670   -0.9300 c3        1 F37     -0.083100
      9 C4          4.0760    1.2020   -1.1270 ca        1 F37     -0.095300
     10 C5          4.1950    1.3970   -2.5100 ca        1 F37     -0.121000
     11 C6          4.8470    2.5210   -3.0130 ca        1 F37     -0.092500
     12 C9          4.6280    2.1420   -0.2530 ca        1 F37     -0.121000
     13 C8          5.2860    3.2660   -0.7510 ca        1 F37     -0.092500
     14 C7          5.3970    3.4580   -2.1310 ca        1 F37     -0.133900
     15 C10         6.0900    4.6610   -2.6710 cc        1 F37      0.537500
     16 N3          7.3320    4.9680   -2.1000 n         1 F37     -0.494400
     17 C17         8.0680    6.0830   -2.5360 c         1 F37      0.709100
     18 O2          9.1670    6.3200   -2.0040 o         1 F37     -0.619500
     19 N2          5.5160    5.3590   -3.6360 nd        1 F37     -0.611100
     20 C11         6.1880    6.4870   -4.1230 ca        1 F37      0.178400
     21 C12         7.4520    6.8840   -3.6090 ca        1 F37     -0.187600
     22 C16         5.6060    7.2660   -5.1540 ca        1 F37     -0.121000
     23 C15         6.2700    8.3830   -5.6360 ca        1 F37     -0.095000
     24 C14         7.5160    8.7620   -5.1200 ca        1 F37     -0.150000
     25 C13         8.1060    8.0160   -4.1100 ca        1 F37     -0.060000
     26 H1          1.2590   -0.0030    1.9790 hn        1 F37      0.360500
     27 H           1.8050    0.3150   -2.0390 hn        1 F37      0.320500
     28 HC1         4.4500   -1.3270   -2.0220 hc        1 F37      0.061367
     29 HC2         3.7070   -2.2030   -0.6160 hc        1 F37      0.061367
     30 HC3         5.1850   -1.1740   -0.3610 hc        1 F37      0.061367
     31 H5          3.7830    0.6570   -3.2140 ha        1 F37      0.152500
     32 H9          4.5620    2.0020    0.8390 ha        1 F37      0.152500
     33 H6          4.9240    2.6710   -4.1010 ha        1 F37      0.153000
     34 H8          5.7000    4.0030   -0.0450 ha        1 F37      0.153000
     35 H3          7.7070    4.3860   -1.3840 hn        1 F37      0.339500
     36 H16         4.6260    6.9790   -5.5670 ha        1 F37      0.153000
     37 H13         9.0860    8.2960   -3.6890 ha        1 F37      0.160000
     38 H15         5.8110    8.9840   -6.4370 ha        1 F37      0.139000
     39 H14         8.0250    9.6530   -5.5180 ha        1 F37      0.141000
@<TRIPOS>BOND
     1    1    2 2   
     2    2    3 1   
     3    2    6 1   
     4    3    4 1   
     5    3   26 1   
     6    4    5 2   
     7    4    7 1   
     8    6    7 1   
     9    6   27 1   
    10    7    8 1   
    11    7    9 1   
    12    8   28 1   
    13    8   29 1   
    14    8   30 1   
    15    9   10 ar  
    16    9   12 ar  
    17   10   11 ar  
    18   10   31 1   
    19   11   14 ar  
    20   11   33 1   
    21   12   13 ar  
    22   12   32 1   
    23   13   14 ar  
    24   13   34 1   
    25   14   15 1   
    26   15   16 1   
    27   15   19 2   
    28   16   17 1   
    29   16   35 1   
    30   17   18 2   
    31   17   21 1   
    32   19   20 1   
    33   20   21 ar  
    34   20   22 ar  
    35   21   25 ar  
    36   22   23 ar  
    37   22   36 1   
    38   23   24 ar  
    39   23   38 1   
    40   24   25 ar  
    41   24   39 1   
    42   25   37 1   
@<TRIPOS>SUBSTRUCTURE
     1 F37         1 TEMP              0 ****  ****    0 ROOT
