@<TRIPOS>MOLECULE
F37
   39    42     1     0     0
SMALL
bcc


@<TRIPOS>ATOM
      1 O          -5.7720   -2.1080   -1.6000 o         1 F37     -0.596500
      2 C2         -5.2500   -1.2070   -0.9270 c         1 F37      0.781500
      3 N1         -5.4030    0.1830   -1.1880 n         1 F37     -0.609500
      4 C3         -4.6610    0.9390   -0.2730 c         1 F37      0.697500
      5 O1         -4.6390    2.1700   -0.2170 o         1 F37     -0.578500
      6 N          -4.4600   -1.3870    0.2460 n         1 F37     -0.511900
      7 C1         -3.9140   -0.0730    0.6680 c3        1 F37      0.059700
      8 C          -4.3010    0.2670    2.1110 c3        1 F37     -0.083100
      9 C4         -2.4130    0.0090    0.5220 ca        1 F37     -0.095300
     10 C5         -1.6260   -0.9660    1.1520 ca        1 F37     -0.121000
     11 C6         -0.2370   -0.9290    1.0500 ca        1 F37     -0.092500
     12 C9         -1.7900    1.0280   -0.2030 ca        1 F37     -0.121000
     13 C8         -0.4000    1.0730   -0.3040 ca        1 F37     -0.092500
     14 C7          0.3790    0.0950    0.3230 ca        1 F37     -0.133900
     15 C10         1.8640    0.1310    0.2110 cc        1 F37      0.537500
     16 N3          2.4730    1.3710    0.4450 n         1 F37     -0.494400
     17 C17         3.8690    1.5140    0.3640 c         1 F37      0.709100
     18 O2          4.3700    2.6310    0.5800 o         1 F37     -0.619500
     19 N2          2.5160   -0.9790   -0.0920 nd        1 F37     -0.611100
     20 C11         3.9120   -0.9170   -0.1930 ca        1 F37      0.178400
     21 C12         4.6230    0.2940    0.0240 ca        1 F37     -0.187600
     22 C16         4.6490   -2.0820   -0.5200 ca        1 F37     -0.121000
     23 C15         6.0300   -2.0210   -0.6210 ca        1 F37     -0.095000
     24 C14         6.7190   -0.8200   -0.4040 ca        1 F37     -0.150000
     25 C13         6.0190    0.3340   -0.0830 ca        1 F37     -0.060000
     26 H1         -6.0240    0.5420   -1.8680 hn        1 F37      0.360500
     27 H          -3.8290   -2.1570    0.2390 hn        1 F37      0.320500
     28 HC1        -5.4030    0.1710    2.2600 hc        1 F37      0.061367
     29 HC2        -3.7800   -0.4180    2.8210 hc        1 F37      0.061367
     30 HC3        -3.9950    1.3210    2.3200 hc        1 F37      0.061367
     31 H5         -2.0990   -1.7650    1.7440 ha        1 F37      0.152500
     32 H9         -2.3860    1.8150   -0.6940 ha        1 F37      0.152500
     33 H6          0.3710   -1.7060    1.5390 ha        1 F37      0.153000
     34 H8          0.0710    1.8750   -0.8930 ha        1 F37      0.153000
     35 H3          1.9150    2.1610    0.6820 hn        1 F37      0.339500
     36 H16         4.1190   -3.0310   -0.6950 ha        1 F37      0.153000
     37 H13         6.5410    1.2900    0.0910 ha        1 F37      0.160000
     38 H15         6.5960   -2.9300   -0.8760 ha        1 F37      0.139000
     39 H14         7.8160   -0.7950   -0.4900 ha        1 F37      0.141000
@<TRIPOS>BOND
     1    1    2 2   
     2    2    3 1   
     3    2    6 1   
     4    3    4 1   
     5    3   26 1   
     6    4    5 2   
     7    4    7 1   
     8    6    7 1   
     9    6   27 1   
    10    7    8 1   
    11    7    9 1   
    12    8   28 1   
    13    8   29 1   
    14    8   30 1   
    15    9   10 ar  
    16    9   12 ar  
    17   10   11 ar  
    18   10   31 1   
    19   11   14 ar  
    20   11   33 1   
    21   12   13 ar  
    22   12   32 1   
    23   13   14 ar  
    24   13   34 1   
    25   14   15 1   
    26   15   16 1   
    27   15   19 2   
    28   16   17 1   
    29   16   35 1   
    30   17   18 2   
    31   17   21 1   
    32   19   20 1   
    33   20   21 ar  
    34   20   22 ar  
    35   21   25 ar  
    36   22   23 ar  
    37   22   36 1   
    38   23   24 ar  
    39   23   38 1   
    40   24   25 ar  
    41   24   39 1   
    42   25   37 1   
@<TRIPOS>SUBSTRUCTURE
     1 F37         1 TEMP              0 ****  ****    0 ROOT
