@<TRIPOS>MOLECULE
F37
   39    36     1     0     0
SMALL
bcc


@<TRIPOS>ATOM
      1 O           0.6740   -6.0810    1.7790 o         1 F37     -0.321000
      2 C2         -0.0550   -5.2320    1.3050 c1        1 F37      0.372000
      3 N1         -0.5010   -5.1820   -0.0040 n2        1 F37     -0.388000
      4 C3         -1.5800   -4.3140   -0.0540 c2        1 F37      0.306000
      5 O1         -2.3760   -4.2160   -0.9670 o         1 F37     -0.302000
      6 N          -0.5680   -4.0890    1.9910 n3        1 F37     -0.321000
      7 C1         -1.5960   -3.5310    1.2010 c3        1 F37      0.065000
      8 C          -2.9290   -3.2330    1.8520 c3        1 F37     -0.201000
      9 C4         -1.1090   -2.2520    0.8320 c2        1 F37     -0.088000
     10 C5         -1.6550   -1.5910   -0.2570 c1        1 F37     -0.114000
     11 C6         -1.2080   -0.3230   -0.5930 c1        1 F37     -0.075000
     12 C9         -0.1160   -1.6450    1.5840 c2        1 F37     -0.127000
     13 C8          0.3310   -0.3770    1.2480 c1        1 F37     -0.110000
     14 C7         -0.2150    0.2840    0.1590 c1        1 F37     -0.051000
     15 C10         0.2770    1.6650   -0.2120 c2        1 F37      0.159000
     16 N3         -0.2710    2.8150    0.4350 n         1 F37     -0.334000
     17 C17         0.2020    4.0940    0.1100 c2        1 F37      0.346000
     18 O2         -0.2900    5.0750    0.6300 o         1 F37     -0.345000
     19 N2          1.3190    1.8180   -1.2010 n1        1 F37     -0.182000
     20 C11         1.8140    3.1470   -1.5410 c1        1 F37      0.039000
     21 C12         1.2890    4.2540   -0.9220 c2        1 F37     -0.166000
     22 C16         2.8250    3.2950   -2.5080 c1        1 F37     -0.120000
     23 C15         3.2920    4.5590   -2.8340 c1        1 F37     -0.122500
     24 C14         2.7610    5.6800   -2.2070 c1        1 F37     -0.122500
     25 C13         1.7630    5.5340   -1.2540 c1        1 F37     -0.060000
     26 H1         -0.1740   -5.6700   -0.7010 hn        1 F37      0.274000
     27 H          -0.3310   -3.8170    2.8290 hn        1 F37      0.233000
     28 HC1        -3.5800   -2.9800    1.1640 hc        1 F37      0.100333
     29 HC2        -3.2470   -4.0310    2.3250 hc        1 F37      0.100333
     30 HC3        -2.8240   -2.4960    2.4900 hc        1 F37      0.100333
     31 H5         -2.3540   -2.0190   -0.7870 ha        1 F37      0.162000
     32 H9          0.2690   -2.1100    2.3500 ha        1 F37      0.142000
     33 H6         -1.5930    0.1430   -1.3600 ha        1 F37      0.161000
     34 H8          1.0310    0.0510    1.7780 ha        1 F37      0.145000
     35 H3         -0.9430    2.7190    1.0440 hn        1 F37      0.252000
     36 H16         3.1980    2.5080   -2.9480 ha        1 F37      0.154000
     37 H13         1.3900    6.3220   -0.8130 ha        1 F37      0.159000
     38 H15         3.9940    4.6620   -3.5050 ha        1 F37      0.140000
     39 H14         3.0900    6.5690   -2.4370 ha        1 F37      0.140000
@<TRIPOS>BOND
     1    1    2 1   
     2    2    6 1   
     3    3    4 1   
     4    3   26 1   
     5    4    5 1   
     6    4    7 1   
     7    6    7 1   
     8    6   27 1   
     9    7    8 1   
    10    7    9 1   
    11    8   28 1   
    12    8   29 1   
    13    8   30 1   
    14    9   10 1   
    15    9   12 1   
    16   10   31 1   
    17   11   14 1   
    18   11   33 1   
    19   12   13 1   
    20   12   32 1   
    21   13   34 1   
    22   14   15 1   
    23   15   16 1   
    24   15   19 1   
    25   16   17 1   
    26   16   35 1   
    27   17   18 1   
    28   17   21 1   
    29   20   21 1   
    30   20   22 1   
    31   21   25 1   
    32   22   36 1   
    33   23   24 1   
    34   23   38 1   
    35   24   39 1   
    36   25   37 1   
@<TRIPOS>SUBSTRUCTURE
     1 F37         1 TEMP              0 ****  ****    0 ROOT
