@<TRIPOS>MOLECULE
F37
   39    42     1     0     0
SMALL
bcc


@<TRIPOS>ATOM
      1 O          -0.1940    0.0520   -0.2520 o         1 F37     -0.596500
      2 C2          1.0400   -0.0010   -0.1340 c         1 F37      0.781500
      3 N1          1.7310    0.0270    1.1090 n         1 F37     -0.609500
      4 C3          3.1140   -0.0130    0.9030 c         1 F37      0.697500
      5 O1          3.9670   -0.0540    1.7920 o         1 F37     -0.578500
      6 N           1.9780   -0.1560   -1.1960 n         1 F37     -0.511900
      7 C1          3.3520   -0.0370   -0.6490 c3        1 F37      0.059700
      8 C           4.2010   -1.2720   -0.9670 c3        1 F37     -0.083100
      9 C4          4.0690    1.2000   -1.1380 ca        1 F37     -0.095300
     10 C5          4.1740    1.4090   -2.5210 ca        1 F37     -0.121000
     11 C6          4.8310    2.5310   -3.0190 ca        1 F37     -0.092500
     12 C9          4.6380    2.1260   -0.2610 ca        1 F37     -0.121000
     13 C8          5.3010    3.2490   -0.7540 ca        1 F37     -0.092500
     14 C7          5.3990    3.4540   -2.1340 ca        1 F37     -0.133900
     15 C10         6.0960    4.6570   -2.6680 cc        1 F37      0.537500
     16 N3          7.3470    4.9480   -2.1080 n         1 F37     -0.494400
     17 C17         8.0880    6.0610   -2.5410 c         1 F37      0.709100
     18 O2          9.1940    6.2830   -2.0190 o         1 F37     -0.619500
     19 N2          5.5170    5.3700   -3.6200 nd        1 F37     -0.611100
     20 C11         6.1930    6.4980   -4.1040 ca        1 F37      0.178400
     21 C12         7.4660    6.8780   -3.5990 ca        1 F37     -0.187600
     22 C16         5.6070    7.2920   -5.1200 ca        1 F37     -0.121000
     23 C15         6.2750    8.4080   -5.5970 ca        1 F37     -0.095000
     24 C14         7.5310    8.7710   -5.0910 ca        1 F37     -0.150000
     25 C13         8.1250    8.0100   -4.0960 ca        1 F37     -0.060000
     26 H1          1.2730   -0.0110    1.9850 hn        1 F37      0.360500
     27 H           1.7800    0.3420   -2.0350 hn        1 F37      0.320500
     28 HC1         3.6760   -2.2060   -0.6560 hc        1 F37      0.061367
     29 HC2         4.4110   -1.3230   -2.0620 hc        1 F37      0.061367
     30 HC3         5.1650   -1.1920   -0.4080 hc        1 F37      0.061367
     31 H5          3.7490    0.6780   -3.2270 ha        1 F37      0.152500
     32 H9          4.5820    1.9760    0.8310 ha        1 F37      0.152500
     33 H6          4.8980    2.6920   -4.1070 ha        1 F37      0.153000
     34 H8          5.7290    3.9760   -0.0460 ha        1 F37      0.153000
     35 H3          7.7250    4.3550   -1.4030 hn        1 F37      0.339500
     36 H16         4.6200    7.0180   -5.5250 ha        1 F37      0.153000
     37 H13         9.1120    8.2770   -3.6830 ha        1 F37      0.160000
     38 H15         5.8130    9.0210   -6.3870 ha        1 F37      0.139000
     39 H14         8.0430    9.6620   -5.4850 ha        1 F37      0.141000
@<TRIPOS>BOND
     1    1    2 2   
     2    2    3 1   
     3    2    6 1   
     4    3    4 1   
     5    3   26 1   
     6    4    5 2   
     7    4    7 1   
     8    6    7 1   
     9    6   27 1   
    10    7    8 1   
    11    7    9 1   
    12    8   28 1   
    13    8   29 1   
    14    8   30 1   
    15    9   10 ar  
    16    9   12 ar  
    17   10   11 ar  
    18   10   31 1   
    19   11   14 ar  
    20   11   33 1   
    21   12   13 ar  
    22   12   32 1   
    23   13   14 ar  
    24   13   34 1   
    25   14   15 1   
    26   15   16 1   
    27   15   19 2   
    28   16   17 1   
    29   16   35 1   
    30   17   18 2   
    31   17   21 1   
    32   19   20 1   
    33   20   21 ar  
    34   20   22 ar  
    35   21   25 ar  
    36   22   23 ar  
    37   22   36 1   
    38   23   24 ar  
    39   23   38 1   
    40   24   25 ar  
    41   24   39 1   
    42   25   37 1   
@<TRIPOS>SUBSTRUCTURE
     1 F37         1 TEMP              0 ****  ****    0 ROOT
