@<TRIPOS>MOLECULE
F38
   36    38     1     0     0
SMALL
bcc


@<TRIPOS>ATOM
      1 OAD         0.5560   -0.1750    0.8000 o         1 F38     -0.540800
      2 OAB         2.9500    0.1280    0.9380 o         1 F38     -0.540800
      3 CAF         2.6060    3.3560   -0.2240 ca        1 F38     -0.098000
      4 CAG         2.4110    4.6500    0.2520 ca        1 F38     -0.089500
      5 CAJ         0.2040    3.0570   -0.3970 ca        1 F38     -0.098000
      6 CAI         0.0090    4.3510    0.0780 ca        1 F38     -0.089500
      7 CAH         1.1120    5.1510    0.4030 ca        1 F38     -0.075900
      8 CAK         0.9110    6.5310    0.9290 cc        1 F38      0.505500
      9 CAT         1.3810    8.1970    2.4970 ca        1 F38      0.160400
     10 CAS         2.0800    8.6330    3.6470 ca        1 F38     -0.111000
     11 CAR         1.8740    9.9160    4.1350 ca        1 F38     -0.091000
     12 CAQ         0.9820   10.7930    3.5070 ca        1 F38     -0.133000
     13 CAP         0.2850   10.3870    2.3770 ca        1 F38     -0.059000
     14 CAO         0.4780    9.0970    1.8680 ca        1 F38     -0.175600
     15 CAM        -0.2550    8.6560    0.6680 c         1 F38      0.711100
     16 N10         2.0350   -1.4970   -0.7890 n4        1 F38     -0.795500
     17 N1          0.0010    7.3390    0.2380 n         1 F38     -0.498400
     18 OAN        -1.0650    9.3400    0.0210 o         1 F38     -0.599500
     19 N           1.5880    6.9010    2.0010 nd        1 F38     -0.593100
     20 C           1.7130    1.1720   -1.0680 c3        1 F38     -0.298300
     21 S           1.7730    0.1140    0.2270 s6        1 F38      1.367900
     22 C1          1.5030    2.5490   -0.5360 ca        1 F38     -0.162300
     23 HAF         3.6320    2.9740   -0.3490 ha        1 F38      0.149500
     24 HAG         3.2810    5.2770    0.5130 ha        1 F38      0.174500
     25 HAJ        -0.6690    2.4380   -0.6570 ha        1 F38      0.149500
     26 HAI        -1.0180    4.7320    0.2050 ha        1 F38      0.174500
     27 H1         -0.4510    6.9990   -0.5800 hn        1 F38      0.336500
     28 HAS         2.7830    7.9530    4.1520 ha        1 F38      0.155000
     29 HAR         2.4210   10.2490    5.0320 ha        1 F38      0.148000
     30 HAQ         0.8340   11.8060    3.9110 ha        1 F38      0.151000
     31 HAP        -0.4220   11.0640    1.8680 ha        1 F38      0.167000
     32 H101        2.9070   -1.9470   -0.5070 hn        1 F38      0.459467
     33 H102        1.2770   -2.1530   -0.6020 hn        1 F38      0.459467
     34 HC1         2.6520    1.1880   -1.6950 h1        1 F38      0.159200
     35 HC2         0.8820    0.9590   -1.8020 h1        1 F38      0.159200
     36 H103        2.0750   -1.3500   -1.7920 hn        1 F38      0.459467
@<TRIPOS>BOND
     1    1   21 2   
     2    2   21 2   
     3    3    4 ar  
     4    3   22 ar  
     5    3   23 1   
     6    4    7 ar  
     7    4   24 1   
     8    5    6 ar  
     9    5   22 ar  
    10    5   25 1   
    11    6    7 ar  
    12    6   26 1   
    13    7    8 1   
    14    8   17 1   
    15    8   19 2   
    16    9   10 ar  
    17    9   14 ar  
    18    9   19 1   
    19   10   11 ar  
    20   10   28 1   
    21   11   12 ar  
    22   11   29 1   
    23   12   13 ar  
    24   12   30 1   
    25   13   14 ar  
    26   13   31 1   
    27   14   15 1   
    28   15   17 1   
    29   15   18 2   
    30   16   21 1   
    31   16   32 1   
    32   16   33 1   
    33   16   36 1   
    34   17   27 1   
    35   20   21 1   
    36   20   22 1   
    37   20   34 1   
    38   20   35 1   
@<TRIPOS>SUBSTRUCTURE
     1 F38         1 TEMP              0 ****  ****    0 ROOT
