@<TRIPOS>MOLECULE
F38
   36    38     1     0     0
SMALL
bcc


@<TRIPOS>ATOM
      1 OAD         0.5460   -0.1740    0.8060 o         1 F38     -0.540800
      2 OAB         2.9400    0.1250    0.9500 o         1 F38     -0.540800
      3 CAF         2.6060    3.3500   -0.2150 ca        1 F38     -0.098500
      4 CAG         2.4130    4.6460    0.2580 ca        1 F38     -0.089500
      5 CAJ         0.2040    3.0580   -0.4000 ca        1 F38     -0.098500
      6 CAI         0.0100    4.3540    0.0720 ca        1 F38     -0.089500
      7 CAH         1.1140    5.1500    0.4020 ca        1 F38     -0.075900
      8 CAK         0.9140    6.5320    0.9250 cc        1 F38      0.505500
      9 CAT         1.3820    8.1990    2.4930 ca        1 F38      0.160400
     10 CAS         2.0750    8.6340    3.6470 ca        1 F38     -0.111000
     11 CAR         1.8710    9.9180    4.1320 ca        1 F38     -0.091000
     12 CAQ         0.9840   10.7970    3.4990 ca        1 F38     -0.133000
     13 CAP         0.2920   10.3920    2.3650 ca        1 F38     -0.059000
     14 CAO         0.4840    9.1010    1.8590 ca        1 F38     -0.175600
     15 CAM        -0.2440    8.6610    0.6560 c         1 F38      0.711100
     16 N10         2.0270   -1.5010   -0.7760 nz        1 F38     -0.795500
     17 N1          0.0100    7.3420    0.2280 ns        1 F38     -0.498400
     18 OAN        -1.0490    9.3450    0.0040 o         1 F38     -0.599500
     19 N           1.5870    6.9020    2.0000 nd        1 F38     -0.593100
     20 C           1.7110    1.1680   -1.0610 c3        1 F38     -0.298300
     21 S           1.7650    0.1130    0.2360 s6        1 F38      1.367900
     22 C1          1.5020    2.5460   -0.5320 ca        1 F38     -0.162300
     23 HAF         3.6310    2.9660   -0.3350 ha        1 F38      0.149500
     24 HAG         3.2830    5.2710    0.5220 ha        1 F38      0.174500
     25 HAJ        -0.6700    2.4420   -0.6630 ha        1 F38      0.149500
     26 HAI        -1.0160    4.7380    0.1940 ha        1 F38      0.174500
     27 H1         -0.4390    7.0020   -0.5920 hn        1 F38      0.336500
     28 HAS         2.7750    7.9530    4.1560 ha        1 F38      0.155000
     29 HAR         2.4140   10.2510    5.0310 ha        1 F38      0.148000
     30 HAQ         0.8370   11.8120    3.9010 ha        1 F38      0.151000
     31 HAP        -0.4110   11.0700    1.8510 ha        1 F38      0.167000
     32 H101        2.8970   -1.9520   -0.4910 hn        1 F38      0.459467
     33 H102        1.2670   -2.1550   -0.5900 hn        1 F38      0.459467
     34 HC1         2.6520    1.1820   -1.6850 h1        1 F38      0.159200
     35 HC2         0.8810    0.9550   -1.7970 h1        1 F38      0.159200
     36 H103        2.0700   -1.3550   -1.7800 hn        1 F38      0.459467
@<TRIPOS>BOND
     1    1   21 2   
     2    2   21 2   
     3    3    4 ar  
     4    3   22 ar  
     5    3   23 1   
     6    4    7 ar  
     7    4   24 1   
     8    5    6 ar  
     9    5   22 ar  
    10    5   25 1   
    11    6    7 ar  
    12    6   26 1   
    13    7    8 1   
    14    8   17 1   
    15    8   19 2   
    16    9   10 ar  
    17    9   14 ar  
    18    9   19 1   
    19   10   11 ar  
    20   10   28 1   
    21   11   12 ar  
    22   11   29 1   
    23   12   13 ar  
    24   12   30 1   
    25   13   14 ar  
    26   13   31 1   
    27   14   15 1   
    28   15   17 1   
    29   15   18 2   
    30   16   21 1   
    31   16   32 1   
    32   16   33 1   
    33   16   36 1   
    34   17   27 1   
    35   20   21 1   
    36   20   22 1   
    37   20   34 1   
    38   20   35 1   
@<TRIPOS>SUBSTRUCTURE
     1 F38         1 TEMP              0 ****  ****    0 ROOT
