@<TRIPOS>MOLECULE
F38
   35    31     1     0     0
SMALL
bcc


@<TRIPOS>ATOM
      1 OAD        -4.7050   -1.3360   -2.1130 o         1 F38     -0.646300
      2 OAB        -4.5120   -2.6070   -0.3110 o         1 F38     -0.646300
      3 CAF        -2.4120    0.6400   -0.9260 c1        1 F38     -0.055250
      4 CAG        -1.0310    0.8030   -0.9070 c1        1 F38     -0.055250
      5 CAJ        -2.3050   -0.2910    1.2930 c1        1 F38     -0.057500
      6 CAI        -0.9560   -0.1320    1.3130 c1        1 F38     -0.052500
      7 CAH        -0.3010    0.4170    0.2160 cg        1 F38     -0.089200
      8 CAK         1.2480    0.6030    0.2460 ce        1 F38      0.488800
      9 CAT         3.5750   -0.3060   -0.1300 ch        1 F38      0.094000
     10 CAS         4.4100   -1.3190   -0.5860 c1        1 F38     -0.063500
     11 CAR         5.7910   -1.1480   -0.5620 c1        1 F38     -0.055250
     12 CAQ         6.3450    0.0530   -0.0750 c1        1 F38     -0.055250
     13 CAP         5.5210    1.0540    0.3760 c1        1 F38     -0.002500
     14 CAO         4.1190    0.8780    0.3510 cg        1 F38     -0.138200
     15 CAM         3.2200    1.9780    0.8060 c         1 F38      0.620300
     16 N10        -6.7590   -1.5210   -0.6750 n3        1 F38     -1.033700
     17 N1          1.8080    1.8170    0.7430 n         1 F38     -0.494400
     18 OAN         3.6910    2.9910    1.2820 o         1 F38     -0.589100
     19 N           2.1150   -0.4680   -0.1920 nf        1 F38     -0.522700
     20 C          -4.5680    0.0510    0.1850 c3        1 F38     -0.291500
     21 S          -5.1490   -1.3990   -0.7610 s6        1 F38      1.462900
     22 C1         -3.0490    0.1010    0.1540 c1        1 F38     -0.012100
     23 HAF        -2.9150    0.9040   -1.6940 ha        1 F38      0.092000
     24 HAG        -0.5830    1.1820   -1.6640 ha        1 F38      0.092000
     25 HAJ        -2.7510   -0.6680    2.0480 ha        1 F38      0.082500
     26 HAI        -0.4250   -0.4140    2.1340 ha        1 F38      0.083500
     27 H1          1.2730    2.4380    1.1050 hn        1 F38      0.338500
     28 HAS         4.0090   -2.1940   -0.9390 ha        1 F38      0.096500
     29 HAR         6.3790   -1.8670   -0.8850 ha        1 F38      0.092000
     30 HAQ         7.2600    0.1660   -0.0590 ha        1 F38      0.092000
     31 HAP         5.9040    1.8860    0.7130 ha        1 F38      0.100500
     32 H101       -7.2810   -0.8630   -1.0180 hn        1 F38      0.450800
     33 H102       -7.1570   -2.3110   -0.3260 hn        1 F38      0.450800
     34 HC1        -4.9410    0.8970   -0.2350 h1        1 F38      0.111200
     35 HC2        -4.8690   -0.0160    1.0920 h1        1 F38      0.111200
@<TRIPOS>BOND
     1    1   21 2   
     2    2   21 2   
     3    3    4 3   
     4    3   23 1   
     5    4   24 1   
     6    5   22 3   
     7    5   25 1   
     8    6    7 3   
     9    6   26 1   
    10    7    8 1   
    11    8   17 1   
    12    8   19 2   
    13    9   10 3   
    14    9   19 1   
    15   10   28 1   
    16   11   12 3   
    17   11   29 1   
    18   12   30 1   
    19   13   14 3   
    20   13   31 1   
    21   14   15 1   
    22   15   17 1   
    23   15   18 2   
    24   16   21 1   
    25   16   32 1   
    26   16   33 1   
    27   17   27 1   
    28   20   21 1   
    29   20   22 1   
    30   20   34 1   
    31   20   35 1   
@<TRIPOS>SUBSTRUCTURE
     1 F38         1 TEMP              0 ****  ****    0 ROOT
