@<TRIPOS>MOLECULE
F38
   36    38     1     0     0
SMALL
bcc


@<TRIPOS>ATOM
      1 OAD         0.5660   -0.1760    0.8170 o         1 F38     -0.540800
      2 OAB         2.9610    0.1320    0.9370 o         1 F38     -0.540800
      3 CAF         2.6020    3.3540   -0.2260 ca        1 F38     -0.098500
      4 CAG         2.4090    4.6500    0.2470 ca        1 F38     -0.089500
      5 CAJ         0.2000    3.0540   -0.3890 ca        1 F38     -0.098500
      6 CAI         0.0050    4.3490    0.0840 ca        1 F38     -0.089500
      7 CAH         1.1090    5.1500    0.4030 ca        1 F38     -0.075900
      8 CAK         0.9090    6.5310    0.9270 cc        1 F38      0.505500
      9 CAT         1.3850    8.2000    2.4900 ca        1 F38      0.160400
     10 CAS         2.0870    8.6380    3.6380 ca        1 F38     -0.111000
     11 CAR         1.8820    9.9220    4.1240 ca        1 F38     -0.091000
     12 CAQ         0.9880   10.7980    3.4980 ca        1 F38     -0.133000
     13 CAP         0.2870   10.3890    2.3700 ca        1 F38     -0.059000
     14 CAO         0.4790    9.0990    1.8630 ca        1 F38     -0.175600
     15 CAM        -0.2590    8.6550    0.6660 c         1 F38      0.711100
     16 N10         2.0370   -1.4990   -0.7790 n4        1 F38     -0.795500
     17 N1         -0.0030    7.3370    0.2380 n         1 F38     -0.498400
     18 OAN        -1.0710    9.3370    0.0210 o         1 F38     -0.599500
     19 N           1.5910    6.9030    1.9960 nd        1 F38     -0.593100
     20 C           1.7070    1.1680   -1.0620 c3        1 F38     -0.298300
     21 S           1.7780    0.1140    0.2350 s6        1 F38      1.367900
     22 C1          1.4980    2.5460   -0.5320 ca        1 F38     -0.162300
     23 HAF         3.6270    2.9730   -0.3550 ha        1 F38      0.149500
     24 HAG         3.2790    5.2780    0.5030 ha        1 F38      0.174500
     25 HAJ        -0.6750    2.4340   -0.6450 ha        1 F38      0.149500
     26 HAI        -1.0210    4.7300    0.2140 ha        1 F38      0.174500
     27 H1         -0.4580    6.9960   -0.5780 hn        1 F38      0.336500
     28 HAS         2.7930    7.9590    4.1410 ha        1 F38      0.155000
     29 HAR         2.4330   10.2570    5.0180 ha        1 F38      0.148000
     30 HAQ         0.8410   11.8120    3.9000 ha        1 F38      0.151000
     31 HAP        -0.4220   11.0650    1.8620 ha        1 F38      0.167000
     32 H101        2.9110   -1.9460   -0.5020 hn        1 F38      0.459467
     33 H102        1.2810   -2.1560   -0.5850 hn        1 F38      0.459467
     34 HC1         2.6420    1.1850   -1.6960 h1        1 F38      0.159200
     35 HC2         0.8710    0.9520   -1.7900 h1        1 F38      0.159200
     36 H103        2.0690   -1.3540   -1.7830 hn        1 F38      0.459467
@<TRIPOS>BOND
     1    1   21 2   
     2    2   21 2   
     3    3    4 ar  
     4    3   22 ar  
     5    3   23 1   
     6    4    7 ar  
     7    4   24 1   
     8    5    6 ar  
     9    5   22 ar  
    10    5   25 1   
    11    6    7 ar  
    12    6   26 1   
    13    7    8 1   
    14    8   17 1   
    15    8   19 2   
    16    9   10 ar  
    17    9   14 ar  
    18    9   19 1   
    19   10   11 ar  
    20   10   28 1   
    21   11   12 ar  
    22   11   29 1   
    23   12   13 ar  
    24   12   30 1   
    25   13   14 ar  
    26   13   31 1   
    27   14   15 1   
    28   15   17 1   
    29   15   18 2   
    30   16   21 1   
    31   16   32 1   
    32   16   33 1   
    33   16   36 1   
    34   17   27 1   
    35   20   21 1   
    36   20   22 1   
    37   20   34 1   
    38   20   35 1   
@<TRIPOS>SUBSTRUCTURE
     1 F38         1 TEMP              0 ****  ****    0 ROOT
