@<TRIPOS>MOLECULE
F38
   35    37     1     0     0
SMALL
bcc


@<TRIPOS>ATOM
      1 OAD         4.9030    1.2350   -1.0140 o         1 F38     -0.647800
      2 OAB         4.7980   -1.1800   -1.1470 o         1 F38     -0.647800
      3 CAF         2.0210   -1.0710    0.1550 ca        1 F38     -0.121500
      4 CAG         0.6460   -1.0290   -0.0620 ca        1 F38     -0.091500
      5 CAJ         1.9250    1.0990    1.2200 ca        1 F38     -0.121500
      6 CAI         0.5500    1.1470    1.0010 ca        1 F38     -0.091500
      7 CAH        -0.0910    0.0830    0.3580 ca        1 F38     -0.143900
      8 CAK        -1.5620    0.1260    0.1260 cc        1 F38      0.543500
      9 CAT        -3.6790   -0.8570    0.2110 ca        1 F38      0.181400
     10 CAS        -4.5060   -1.9620    0.5330 ca        1 F38     -0.122000
     11 CAR        -5.8710   -1.8930    0.3080 ca        1 F38     -0.095000
     12 CAQ        -6.4580   -0.7430   -0.2370 ca        1 F38     -0.153000
     13 CAP        -5.6700    0.3520   -0.5600 ca        1 F38     -0.060000
     14 CAO        -4.2870    0.3030   -0.3400 ca        1 F38     -0.189600
     15 CAM        -3.4390    1.4600   -0.6810 c         1 F38      0.708100
     16 N10         6.5740   -0.1140    0.1780 n3        1 F38     -1.033700
     17 N1         -2.0660    1.3120   -0.4230 n         1 F38     -0.493400
     18 OAN        -3.8470    2.5300   -1.1680 o         1 F38     -0.623500
     19 N          -2.2990   -0.9260    0.4410 nd        1 F38     -0.614100
     20 C           4.1290   -0.0720    1.0520 c3        1 F38     -0.257300
     21 S           5.0850   -0.0180   -0.4030 s6        1 F38      1.461900
     22 C1          2.6710   -0.0070    0.7960 ca        1 F38     -0.047300
     23 HAF         2.6060   -1.9390   -0.1940 ha        1 F38      0.151000
     24 HAG         0.1430   -1.8730   -0.5610 ha        1 F38      0.150000
     25 HAJ         2.4240    1.9390    1.7270 ha        1 F38      0.151000
     26 HAI        -0.0230    2.0190    1.3520 ha        1 F38      0.150000
     27 H1         -1.4440    2.0550   -0.6540 hn        1 F38      0.340500
     28 HAS        -4.0570   -2.8710    0.9620 ha        1 F38      0.153000
     29 HAR        -6.5080   -2.7560    0.5600 ha        1 F38      0.137000
     30 HAQ        -7.5440   -0.7100   -0.4070 ha        1 F38      0.140000
     31 HAP        -6.1090    1.2670   -0.9900 ha        1 F38      0.159000
     32 H101        7.1360    0.6770    0.3730 hn        1 F38      0.451300
     33 H102        7.0590   -0.9660    0.3030 hn        1 F38      0.451300
     34 HC1         4.3330   -1.0180    1.6230 h1        1 F38      0.111700
     35 HC2         4.4150    0.7650    1.7440 h1        1 F38      0.111700
@<TRIPOS>BOND
     1    1   21 2   
     2    2   21 2   
     3    3    4 ar  
     4    3   22 ar  
     5    3   23 1   
     6    4    7 ar  
     7    4   24 1   
     8    5    6 ar  
     9    5   22 ar  
    10    5   25 1   
    11    6    7 ar  
    12    6   26 1   
    13    7    8 1   
    14    8   17 1   
    15    8   19 2   
    16    9   10 ar  
    17    9   14 ar  
    18    9   19 1   
    19   10   11 ar  
    20   10   28 1   
    21   11   12 ar  
    22   11   29 1   
    23   12   13 ar  
    24   12   30 1   
    25   13   14 ar  
    26   13   31 1   
    27   14   15 1   
    28   15   17 1   
    29   15   18 2   
    30   16   21 1   
    31   16   32 1   
    32   16   33 1   
    33   17   27 1   
    34   20   21 1   
    35   20   22 1   
    36   20   34 1   
    37   20   35 1   
@<TRIPOS>SUBSTRUCTURE
     1 F38         1 TEMP              0 ****  ****    0 ROOT
