@<TRIPOS>MOLECULE
F3B
   12    10     1     0     0
SMALL
bcc


@<TRIPOS>ATOM
      1 CL6        -3.1300    0.0010   -0.0000 cl        1 F3B     -0.025400
      2 C6         -1.3860    0.0010   -0.0000 ce        1 F3B     -0.129700
      3 C1         -0.6930    0.0010    1.2000 c1        1 F3B      0.280200
      4 F1         -1.3630   -0.0050    2.3600 f         1 F3B     -0.062000
      5 C5         -0.6930    0.0010   -1.2000 ce        1 F3B      0.153400
      6 F5         -1.3630   -0.0040   -2.3600 f         1 F3B     -0.124500
      7 C4          0.6930    0.0010   -1.2000 c1        1 F3B     -0.024800
      8 CL4         1.5650    0.0030   -2.7100 cl        1 F3B      0.059000
      9 C3          1.3860    0.0010    0.0000 ce        1 F3B      0.153400
     10 F3          2.7250   -0.0020    0.0000 f         1 F3B     -0.124500
     11 C2          0.6930    0.0010    1.2000 ce        1 F3B     -0.129700
     12 CL2         1.5650    0.0030    2.7100 cl        1 F3B     -0.025400
@<TRIPOS>BOND
     1    1    2 1   
     2    2    3 2   
     3    2    5 1   
     4    3   11 2   
     5    5    6 1   
     6    5    7 2   
     7    7    9 2   
     8    9   10 1   
     9    9   11 1   
    10   11   12 1   
@<TRIPOS>SUBSTRUCTURE
     1 F3B         1 TEMP              0 ****  ****    0 ROOT
