@<TRIPOS>MOLECULE
F3F
   33    26     1     0     0
SMALL
bcc


@<TRIPOS>ATOM
      1 CAA         5.4020    1.1210   -0.6430 c1        1 F3F     -0.093000
      2 CAB         6.7790    1.2770   -0.6110 c1        1 F3F     -0.118000
      3 CAC         7.3400    2.3560    0.0530 c1        1 F3F     -0.118000
      4 CAD         6.5230    3.2810    0.6860 c1        1 F3F     -0.118000
      5 CAE         5.1460    3.1250    0.6540 c1        1 F3F     -0.118000
      6 CAF         4.5850    2.0460   -0.0100 c1        1 F3F     -0.001000
      7 CAG         3.0810    1.9230   -0.1180 c1        1 F3F     -0.016000
      8 CAH         1.8960    1.8270   -0.2030 c1        1 F3F     -0.134000
      9 CAI         0.3910    1.7060   -0.3110 c1        1 F3F     -0.003000
     10 OAM        -0.3350    0.5500   -0.1860 os        1 F3F     -0.078000
     11 CAJ        -0.4930    2.7430   -0.5290 c1        1 F3F     -0.134000
     12 CAK        -1.7580    2.2240   -0.5370 c1        1 F3F     -0.134000
     13 CAL        -1.6620    0.8640   -0.3250 c1        1 F3F     -0.003000
     14 CAN        -2.8210   -0.1030   -0.2190 c1        1 F3F      0.130000
     15 OAY        -3.9600    0.2950   -0.3620 o         1 F3F     -0.315000
     16 SAO        -2.5200   -1.8100    0.1560 ss        1 F3F      0.480000
     17 CAP        -3.9930   -2.7500   -0.1450 c2        1 F3F     -0.280000
     18 NAT        -4.6120   -3.5520    0.7370 n2        1 F3F     -0.148000
     19 CAS        -5.7150   -4.0430    0.1500 c1        1 F3F     -0.194000
     20 CAU        -6.7200   -4.9780    0.7860 c2        1 F3F      0.526000
     21 FAW        -6.0830   -5.8350    1.5950 f         1 F3F     -0.148000
     22 FAX        -7.3620   -5.6610   -0.1700 f         1 F3F     -0.148000
     23 FAV        -7.6040   -4.2670    1.4970 f         1 F3F     -0.148000
     24 NAR        -5.7780   -3.5450   -1.0930 n2        1 F3F     -0.007000
     25 NAQ        -4.7130   -2.7460   -1.2760 n2        1 F3F     -0.049000
     26 HAA         5.0070    0.3610   -1.1110 ha        1 F3F      0.145000
     27 HAB         7.3540    0.6260   -1.0570 ha        1 F3F      0.139500
     28 HAC         8.3090    2.4660    0.0750 ha        1 F3F      0.139500
     29 HAD         6.9180    4.0410    1.1540 ha        1 F3F      0.139500
     30 HAE         4.5720    3.7760    1.1000 ha        1 F3F      0.139500
     31 HAJ        -0.2570    3.6810   -0.6550 DU        1 F3F      0.221333
     32 HAK        -2.5830    2.7270   -0.6700 DU        1 F3F      0.221333
     33 HAT        -4.3340   -3.7280    1.5880 DU        1 F3F      0.221333
@<TRIPOS>BOND
     1    1    6 1   
     2    1   26 1   
     3    2    3 1   
     4    2   27 1   
     5    3   28 1   
     6    4    5 1   
     7    4   29 1   
     8    5   30 1   
     9    6    7 1   
    10    7    8 1   
    11    9   10 1   
    12    9   11 1   
    13   10   13 1   
    14   11   12 1   
    15   12   13 1   
    16   14   15 1   
    17   14   16 1   
    18   16   17 1   
    19   17   18 1   
    20   17   25 1   
    21   18   19 1   
    22   19   24 1   
    23   20   21 1   
    24   20   22 1   
    25   20   23 1   
    26   24   25 1   
@<TRIPOS>SUBSTRUCTURE
     1 F3F         1 TEMP              0 ****  ****    0 ROOT
