@<TRIPOS>MOLECULE
F3F
   33    35     1     0     0
SMALL
bcc


@<TRIPOS>ATOM
      1 CAA         0.3670   -0.7550    0.9890 ca        1 F3F     -0.094500
      2 CAB         1.7500   -0.5930    0.9880 ca        1 F3F     -0.134000
      3 CAC         2.3280    0.5220    1.5970 ca        1 F3F     -0.108000
      4 CAD         1.5200    1.4800    2.2090 ca        1 F3F     -0.134000
      5 CAE         0.1360    1.3290    2.2160 ca        1 F3F     -0.094500
      6 CAF        -0.4510    0.2080    1.6050 ca        1 F3F     -0.005000
      7 CAG        -1.8480    0.0490    1.6080 cg        1 F3F     -0.012000
      8 CAH        -3.0400   -0.0840    1.6130 ch        1 F3F     -0.241000
      9 CAI        -4.4210   -0.2230    1.6270 cd        1 F3F      0.438700
     10 OAM        -4.9530   -1.3650    1.0080 os        1 F3F     -0.336800
     11 CAJ        -5.4450    0.5620    2.1470 cc        1 F3F     -0.258300
     12 CAK        -6.6780   -0.1110    1.8450 cc        1 F3F     -0.140300
     13 CAL        -6.3460   -1.2710    1.1560 cd        1 F3F      0.141200
     14 CAN        -7.1920   -2.3210    0.6120 c         1 F3F      0.462200
     15 OAY        -8.4270   -2.2530    0.7340 o         1 F3F     -0.554100
     16 SAO        -6.2940   -3.5670   -0.1640 ss        1 F3F     -0.029900
     17 CAP        -7.4280   -4.6870   -0.7300 cc        1 F3F      0.398800
     18 NAT        -8.8190   -4.6720   -0.6270 na        1 F3F     -0.374700
     19 CAS        -9.2390   -5.8400   -1.2680 cc        1 F3F      0.251800
     20 CAU       -10.6850   -6.2780   -1.4220 c3        1 F3F      0.645600
     21 FAW       -11.5880   -5.4070   -0.8620 f         1 F3F     -0.219300
     22 FAX       -10.9540   -7.4870   -0.8390 f         1 F3F     -0.219300
     23 FAV       -11.0810   -6.4070   -2.7260 f         1 F3F     -0.219300
     24 NAR        -8.1350   -6.5140   -1.7290 nd        1 F3F     -0.270000
     25 NAQ        -7.0660   -5.8400   -1.4150 nd        1 F3F     -0.312000
     26 HAA        -0.0890   -1.6340    0.5090 ha        1 F3F      0.143000
     27 HAB         2.3880   -1.3490    0.5050 ha        1 F3F      0.139500
     28 HAC         3.4220    0.6450    1.5930 ha        1 F3F      0.138000
     29 HAD         1.9760    2.3590    2.6890 ha        1 F3F      0.139500
     30 HAE        -0.5010    2.0850    2.7000 ha        1 F3F      0.143000
     31 HAJ        -5.3410    1.5040    2.6800 ha        1 F3F      0.178000
     32 HAK        -7.6810    0.2230    2.1040 ha        1 F3F      0.182000
     33 HAT        -9.3880   -3.9800   -0.1920 hn        1 F3F      0.353700
@<TRIPOS>BOND
     1    1    2 ar  
     2    1    6 ar  
     3    1   26 1   
     4    2    3 ar  
     5    2   27 1   
     6    3    4 ar  
     7    3   28 1   
     8    4    5 ar  
     9    4   29 1   
    10    5    6 ar  
    11    5   30 1   
    12    6    7 1   
    13    7    8 3   
    14    8    9 1   
    15    9   10 1   
    16    9   11 2   
    17   10   13 1   
    18   11   12 1   
    19   11   31 1   
    20   12   13 2   
    21   12   32 1   
    22   13   14 1   
    23   14   15 2   
    24   14   16 1   
    25   16   17 1   
    26   17   18 1   
    27   17   25 2   
    28   18   19 1   
    29   18   33 1   
    30   19   20 1   
    31   19   24 2   
    32   20   21 1   
    33   20   22 1   
    34   20   23 1   
    35   24   25 1   
@<TRIPOS>SUBSTRUCTURE
     1 F3F         1 TEMP              0 ****  ****    0 ROOT
