@<TRIPOS>MOLECULE
F3F
   33    35     1     0     0
SMALL
bcc


@<TRIPOS>ATOM
      1 CAA         0.3680   -0.7370    0.9020 ca        1 F3F     -0.094500
      2 CAB         1.7500   -0.5660    0.8690 ca        1 F3F     -0.134000
      3 CAC         2.3370    0.5340    1.4940 ca        1 F3F     -0.108000
      4 CAD         1.5400    1.4690    2.1560 ca        1 F3F     -0.134000
      5 CAE         0.1570    1.3090    2.1960 ca        1 F3F     -0.094500
      6 CAF        -0.4390    0.2020    1.5670 ca        1 F3F     -0.005000
      7 CAG        -1.8340    0.0330    1.6030 cg        1 F3F     -0.012000
      8 CAH        -3.0260   -0.1080    1.6350 ch        1 F3F     -0.241000
      9 CAI        -4.4050   -0.2570    1.6820 cd        1 F3F      0.438700
     10 OAM        -4.9470   -1.3790    1.0370 os        1 F3F     -0.336800
     11 CAJ        -5.4190    0.5030    2.2570 cc        1 F3F     -0.258300
     12 CAK        -6.6550   -0.1670    1.9640 cc        1 F3F     -0.140300
     13 CAL        -6.3350   -1.3010    1.2260 cd        1 F3F      0.141200
     14 CAN        -7.1900   -2.3360    0.6680 c         1 F3F      0.462200
     15 OAY        -8.4220   -2.2810    0.8270 o         1 F3F     -0.554100
     16 SAO        -6.3070   -3.5480   -0.1760 ss        1 F3F     -0.029900
     17 CAP        -7.4490   -4.6550   -0.7500 cc        1 F3F      0.398800
     18 NAT        -8.8370   -4.6520   -0.6080 na        1 F3F     -0.374700
     19 CAS        -9.2680   -5.8000   -1.2790 cc        1 F3F      0.251800
     20 CAU       -10.7160   -6.2420   -1.4090 c3        1 F3F      0.645600
     21 FAW       -11.6080   -5.3980   -0.7930 f         1 F3F     -0.219300
     22 FAX       -10.9610   -7.4730   -0.8630 f         1 F3F     -0.219300
     23 FAV       -11.1470   -6.3270   -2.7050 f         1 F3F     -0.219300
     24 NAR        -8.1740   -6.4500   -1.7940 nd        1 F3F     -0.270000
     25 NAQ        -7.1000   -5.7800   -1.4850 nd        1 F3F     -0.312000
     26 HAA        -0.0950   -1.6050    0.4090 ha        1 F3F      0.143000
     27 HAB         2.3780   -1.3030    0.3480 ha        1 F3F      0.139500
     28 HAC         3.4290    0.6650    1.4660 ha        1 F3F      0.138000
     29 HAD         2.0030    2.3370    2.6490 ha        1 F3F      0.139500
     30 HAE        -0.4710    2.0460    2.7170 ha        1 F3F      0.143000
     31 HAJ        -5.3050    1.4260    2.8200 ha        1 F3F      0.178000
     32 HAK        -7.6530    0.1500    2.2630 ha        1 F3F      0.182000
     33 HAT        -9.3980   -3.9810   -0.1330 hn        1 F3F      0.353700
@<TRIPOS>BOND
     1    1    2 ar  
     2    1    6 ar  
     3    1   26 1   
     4    2    3 ar  
     5    2   27 1   
     6    3    4 ar  
     7    3   28 1   
     8    4    5 ar  
     9    4   29 1   
    10    5    6 ar  
    11    5   30 1   
    12    6    7 1   
    13    7    8 3   
    14    8    9 1   
    15    9   10 1   
    16    9   11 2   
    17   10   13 1   
    18   11   12 1   
    19   11   31 1   
    20   12   13 2   
    21   12   32 1   
    22   13   14 1   
    23   14   15 2   
    24   14   16 1   
    25   16   17 1   
    26   17   18 1   
    27   17   25 2   
    28   18   19 1   
    29   18   33 1   
    30   19   20 1   
    31   19   24 2   
    32   20   21 1   
    33   20   22 1   
    34   20   23 1   
    35   24   25 1   
@<TRIPOS>SUBSTRUCTURE
     1 F3F         1 TEMP              0 ****  ****    0 ROOT
