@<TRIPOS>MOLECULE
F3F
   33    35     1     0     0
SMALL
bcc


@<TRIPOS>ATOM
      1 CAA         7.4910    0.1420   -0.1160 ca        1 F3F     -0.094500
      2 CAB         8.6950   -0.5110    0.1360 ca        1 F3F     -0.134000
      3 CAC         8.6970   -1.8040    0.6590 ca        1 F3F     -0.108000
      4 CAD         7.4900   -2.4490    0.9310 ca        1 F3F     -0.134000
      5 CAE         6.2790   -1.8070    0.6830 ca        1 F3F     -0.094500
      6 CAF         6.2720   -0.5030    0.1560 ca        1 F3F     -0.005000
      7 CAG         5.0530    0.1480   -0.0950 cg        1 F3F     -0.012000
      8 CAH         4.0140    0.7090   -0.3120 ch        1 F3F     -0.241000
      9 CAI         2.8200    1.3690   -0.5670 cd        1 F3F      0.438700
     10 OAM         1.6340    0.6780   -0.2760 os        1 F3F     -0.336800
     11 CAJ         2.5290    2.6320   -1.0750 cc        1 F3F     -0.258300
     12 CAK         1.0970    2.7450   -1.1070 cc        1 F3F     -0.140300
     13 CAL         0.5870    1.5480   -0.6170 cd        1 F3F      0.141200
     14 CAN        -0.7890    1.1150   -0.4290 c         1 F3F      0.462200
     15 OAY        -1.7280    1.8740   -0.7260 o         1 F3F     -0.554100
     16 SAO        -0.9050   -0.4760    0.2160 ss        1 F3F     -0.029900
     17 CAP        -2.5570   -0.8070    0.3660 cc        1 F3F      0.398800
     18 NAT        -3.6550   -0.0060    0.0530 na        1 F3F     -0.374700
     19 CAS        -4.7700   -0.7820    0.3780 cc        1 F3F      0.251800
     20 CAU        -6.2160   -0.3450    0.2160 c3        1 F3F      0.645600
     21 FAW        -6.9370   -1.1460   -0.6280 f         1 F3F     -0.219300
     22 FAX        -6.3540    0.9230   -0.2960 f         1 F3F     -0.219300
     23 FAV        -6.9170   -0.3290    1.3910 f         1 F3F     -0.219300
     24 NAR        -4.3410   -1.9940    0.8640 nd        1 F3F     -0.270000
     25 NAQ        -3.0380   -2.0130    0.8590 nd        1 F3F     -0.312000
     26 HAA         7.4900    1.1620   -0.5280 ha        1 F3F      0.143000
     27 HAB         9.6460   -0.0020   -0.0790 ha        1 F3F      0.139500
     28 HAC         9.6510   -2.3160    0.8560 ha        1 F3F      0.138000
     29 HAD         7.4920   -3.4690    1.3430 ha        1 F3F      0.139500
     30 HAE         5.3280   -2.3160    0.8980 ha        1 F3F      0.143000
     31 HAJ         3.2410    3.3910   -1.3890 ha        1 F3F      0.178000
     32 HAK         0.5200    3.6030   -1.4480 ha        1 F3F      0.182000
     33 HAT        -3.6470    0.9170   -0.3200 hn        1 F3F      0.353700
@<TRIPOS>BOND
     1    1    2 ar  
     2    1    6 ar  
     3    1   26 1   
     4    2    3 ar  
     5    2   27 1   
     6    3    4 ar  
     7    3   28 1   
     8    4    5 ar  
     9    4   29 1   
    10    5    6 ar  
    11    5   30 1   
    12    6    7 1   
    13    7    8 3   
    14    8    9 1   
    15    9   10 1   
    16    9   11 2   
    17   10   13 1   
    18   11   12 1   
    19   11   31 1   
    20   12   13 2   
    21   12   32 1   
    22   13   14 1   
    23   14   15 2   
    24   14   16 1   
    25   16   17 1   
    26   17   18 1   
    27   17   25 2   
    28   18   19 1   
    29   18   33 1   
    30   19   20 1   
    31   19   24 2   
    32   20   21 1   
    33   20   22 1   
    34   20   23 1   
    35   24   25 1   
@<TRIPOS>SUBSTRUCTURE
     1 F3F         1 TEMP              0 ****  ****    0 ROOT
