@<TRIPOS>MOLECULE
F3G
   59    59     1     0     0
SMALL
bcc


@<TRIPOS>ATOM
      1 C21        -3.7440   -0.8780   -0.6890 c         1 F3G      0.727100
      2 O22        -3.6800   -2.1180   -0.7240 o         1 F3G     -0.590000
      3 O23        -4.8730   -0.2930   -0.1440 os        1 F3G     -0.440900
      4 C24        -5.8940   -1.2220    0.2640 c3        1 F3G      0.195700
      5 C25        -7.0230   -0.4340    0.8370 ca        1 F3G     -0.090300
      6 C26        -6.8060    0.7820    1.4920 ca        1 F3G     -0.112500
      7 C27        -7.8800    1.4770    2.0480 ca        1 F3G     -0.133500
      8 C28        -9.1710    0.9610    1.9560 ca        1 F3G     -0.130000
      9 C29        -9.3910   -0.2520    1.3030 ca        1 F3G     -0.133500
     10 C30        -8.3220   -0.9470    0.7400 ca        1 F3G     -0.112500
     11 N1         -2.8610    0.0530   -1.2160 n         1 F3G     -0.485900
     12 C2         -1.4770   -0.3340   -1.4020 c3        1 F3G      0.019700
     13 C6         -0.5860    0.1250   -0.2130 c         1 F3G      0.627100
     14 O7         -0.9110    1.1080    0.4840 o         1 F3G     -0.617100
     15 C3         -0.8690    0.2630   -2.6930 c3        1 F3G     -0.062700
     16 C4         -1.4740   -0.3890   -3.9170 c3        1 F3G     -0.096600
     17 C5         -1.0140    1.7680   -2.7550 c3        1 F3G     -0.096600
     18 N8          0.5370   -0.6240    0.0370 n         1 F3G     -0.539900
     19 C9          1.5790   -0.1770    0.9380 c3        1 F3G      0.029700
     20 C11         2.9790   -0.3970    0.3040 c         1 F3G      0.633100
     21 O12         3.1340   -1.2130   -0.6380 o         1 F3G     -0.676100
     22 C10         1.5550   -0.9060    2.2820 c3        1 F3G     -0.101100
     23 N13         4.0240    0.2750    0.8790 n         1 F3G     -0.512900
     24 C14         5.3280    0.3000    0.2440 c3        1 F3G      0.029700
     25 C19         6.0960   -1.0020    0.5030 c         1 F3G      0.534100
     26 O20         6.5200   -1.3430    1.6060 o         1 F3G     -0.513100
     27 C15         6.1900    1.4760    0.7150 c3        1 F3G     -0.217400
     28 C16         5.4610    2.8240    0.5490 c         1 F3G      0.910600
     29 O18         4.4200    3.0220    1.2480 o         1 F3G     -0.835300
     30 O17         5.9420    3.6600   -0.2590 o         1 F3G     -0.835300
     31 C31         6.2820   -1.8410   -0.7480 c3        1 F3G      0.042900
     32 H241       -6.2140   -1.8200   -0.6310 h1        1 F3G      0.062700
     33 H242       -5.4600   -1.9160    1.0340 h1        1 F3G      0.062700
     34 H26        -5.7840    1.1880    1.5580 ha        1 F3G      0.141500
     35 H27        -7.7040    2.4350    2.5590 ha        1 F3G      0.130000
     36 H28       -10.0170    1.5090    2.3970 ha        1 F3G      0.127000
     37 H29       -10.4090   -0.6600    1.2280 ha        1 F3G      0.130000
     38 H30        -8.4980   -1.9010    0.2200 ha        1 F3G      0.141500
     39 HN1        -2.9920    1.0000   -0.9170 hn        1 F3G      0.329500
     40 H2         -1.4440   -1.4630   -1.4870 h1        1 F3G      0.099700
     41 H3          0.2310    0.0120   -2.6670 hc        1 F3G      0.066700
     42 H41        -2.5650   -0.1610   -3.9930 hc        1 F3G      0.042200
     43 H42        -0.9690   -0.0050   -4.8360 hc        1 F3G      0.042200
     44 H43        -1.3460   -1.4970   -3.8760 hc        1 F3G      0.042200
     45 H51        -0.7260    2.2290   -1.7780 hc        1 F3G      0.042200
     46 H52        -0.3500    2.1800   -3.5530 hc        1 F3G      0.042200
     47 H53        -2.0660    2.0600   -2.9920 hc        1 F3G      0.042200
     48 HN8         0.8020   -1.3370   -0.6080 hn        1 F3G      0.328500
     49 H9          1.4280    0.9320    1.1290 h1        1 F3G      0.110700
     50 H101        2.3330   -0.4650    2.9500 hc        1 F3G      0.049033
     51 H102        0.5570   -0.7870    2.7680 hc        1 F3G      0.049033
     52 H103        1.7650   -1.9940    2.1510 hc        1 F3G      0.049033
     53 H13         3.8310    1.0830    1.4560 hn        1 F3G      0.374500
     54 H14         5.1780    0.3950   -0.8760 h1        1 F3G      0.062700
     55 H151        6.4570    1.3440    1.7930 hc        1 F3G      0.051700
     56 H152        7.1290    1.4830    0.1090 hc        1 F3G      0.051700
     57 H311        5.2530   -2.1140   -1.1250 h1        1 F3G      0.078700
     58 H312        6.8080   -1.2180   -1.5250 h1        1 F3G      0.078700
     59 F1          7.0110   -2.9950   -0.5370 f         1 F3G     -0.244300
@<TRIPOS>BOND
     1    1    2 2   
     2    1    3 1   
     3    1   11 1   
     4    3    4 1   
     5    4    5 1   
     6    4   32 1   
     7    4   33 1   
     8    5    6 ar  
     9    5   10 ar  
    10    6    7 ar  
    11    6   34 1   
    12    7    8 ar  
    13    7   35 1   
    14    8    9 ar  
    15    8   36 1   
    16    9   10 ar  
    17    9   37 1   
    18   10   38 1   
    19   11   12 1   
    20   11   39 1   
    21   12   13 1   
    22   12   15 1   
    23   12   40 1   
    24   13   14 2   
    25   13   18 1   
    26   15   16 1   
    27   15   17 1   
    28   15   41 1   
    29   16   42 1   
    30   16   43 1   
    31   16   44 1   
    32   17   45 1   
    33   17   46 1   
    34   17   47 1   
    35   18   19 1   
    36   18   48 1   
    37   19   20 1   
    38   19   22 1   
    39   19   49 1   
    40   20   21 2   
    41   20   23 1   
    42   22   50 1   
    43   22   51 1   
    44   22   52 1   
    45   23   24 1   
    46   23   53 1   
    47   24   25 1   
    48   24   27 1   
    49   24   54 1   
    50   25   26 2   
    51   25   31 1   
    52   27   28 1   
    53   27   55 1   
    54   27   56 1   
    55   28   29 1   
    56   28   30 1   
    57   31   57 1   
    58   31   58 1   
    59   31   59 1   
@<TRIPOS>SUBSTRUCTURE
     1 F3G         1 TEMP              0 ****  ****    0 ROOT
