@<TRIPOS>MOLECULE
F3G
   59    56     1     0     0
SMALL
bcc


@<TRIPOS>ATOM
      1 C21         1.3970   -2.1670    2.3230 c1        1 F3G      0.385000
      2 O22         2.5580   -1.9270    2.3010 o         1 F3G     -0.409000
      3 O23         0.7790   -2.5560    3.5350 o         1 F3G     -0.274000
      4 C24         1.7060   -2.8920    4.5730 c3        1 F3G      0.037000
      5 C25         0.9570   -2.9790    5.9270 c2        1 F3G     -0.115000
      6 C26         0.6730   -4.2120    6.4840 c1        1 F3G     -0.109000
      7 C27        -0.0520   -4.2870    7.6540 c1        1 F3G     -0.131000
      8 C28        -0.4950   -3.1310    8.2700 c1        1 F3G     -0.131000
      9 C29        -0.2120   -1.9040    7.7150 c1        1 F3G     -0.135000
     10 C30         0.5150   -1.8260    6.5420 c2        1 F3G     -0.103000
     11 N1          0.6230   -2.0510    1.1300 n3        1 F3G     -0.301000
     12 C2          1.1710   -1.3550   -0.0200 c3        1 F3G     -0.003000
     13 C6          0.0930   -0.6000   -0.7040 c2        1 F3G      0.270000
     14 O7         -0.9730   -1.1430   -0.9460 o         1 F3G     -0.380000
     15 C3          1.7740   -2.3610   -0.9860 c3        1 F3G     -0.104000
     16 C4          3.3350   -2.2860   -0.9130 c3        1 F3G     -0.213500
     17 C5          1.2930   -3.8140   -0.5960 c3        1 F3G     -0.213500
     18 N8          0.3340    0.7980   -1.1510 n         1 F3G     -0.338000
     19 C9         -0.7760    1.6780   -1.3670 c3        1 F3G     -0.011000
     20 C11        -0.5990    2.4050   -2.6840 c2        1 F3G      0.276000
     21 O12         0.5250    2.6770   -3.0870 o         1 F3G     -0.387000
     22 C10        -0.8490    2.6810   -0.2540 c3        1 F3G     -0.221000
     23 N13        -1.7150    2.6810   -3.4820 n         1 F3G     -0.331000
     24 C14        -1.6040    3.5920   -4.5910 c3        1 F3G     -0.027000
     25 C19        -2.7570    4.5380   -4.5740 c2        1 F3G      0.196000
     26 O20        -3.9010    4.1040   -4.5440 o         1 F3G     -0.330000
     27 C15        -1.6120    2.8030   -5.8980 c3        1 F3G     -0.241000
     28 C16        -1.5650    3.7630   -7.0700 c2        1 F3G      0.322000
     29 O18        -2.5530    3.8550   -7.8470 o         1 F3G     -0.568500
     30 O17        -0.5190    4.3880   -7.3190 o         1 F3G     -0.568500
     31 C31        -2.4980    6.0870   -4.4350 c3        1 F3G     -0.058000
     32 H241        2.1300   -3.7730    4.3680 h1        1 F3G      0.109000
     33 H242        2.4130   -2.1850    4.6290 h1        1 F3G      0.109000
     34 H26         0.9930   -5.0480    6.0400 ha        1 F3G      0.129000
     35 H27        -0.2620   -5.1910    8.0640 ha        1 F3G      0.128000
     36 H28        -0.9930   -3.1860    9.1420 ha        1 F3G      0.128000
     37 H29        -0.5960   -1.0520    8.1370 ha        1 F3G      0.133000
     38 H30         0.7200   -0.9340    6.1400 ha        1 F3G      0.160000
     39 HN1        -0.2280   -2.3560    1.1110 hn        1 F3G      0.245000
     40 H2          1.8370   -0.7570    0.2670 h1        1 F3G      0.141000
     41 H3          1.4740   -2.1480   -1.9210 hc        1 F3G      0.111000
     42 H41         3.6350   -2.5050    0.0100 hc        1 F3G      0.081333
     43 H42         3.7190   -2.9190   -1.5380 hc        1 F3G      0.081333
     44 H43         3.6350   -1.3600   -1.1510 hc        1 F3G      0.081333
     45 H51         1.3090   -4.4050   -1.4120 hc        1 F3G      0.081333
     46 H52         0.3610   -3.7700   -0.2350 hc        1 F3G      0.081333
     47 H53         1.9050   -4.1930    0.1030 hc        1 F3G      0.081333
     48 HN8         1.2210    1.1300   -1.2080 hn        1 F3G      0.239000
     49 H9         -1.6080    1.1540   -1.3910 h1        1 F3G      0.136000
     50 H101       -0.0140    3.2230   -0.2420 hc        1 F3G      0.091000
     51 H102       -1.6190    3.2710   -0.3970 hc        1 F3G      0.091000
     52 H103       -0.9500    2.2080    0.6120 hc        1 F3G      0.091000
     53 H13        -2.5490    2.2550   -3.2960 hn        1 F3G      0.217000
     54 H14        -0.7730    4.0940   -4.5190 h1        1 F3G      0.180000
     55 H151       -0.8320    2.2150   -5.9260 hc        1 F3G      0.083500
     56 H152       -2.4180    2.2710   -5.9490 hc        1 F3G      0.083500
     57 H311       -2.5610    6.3410   -3.5080 h1        1 F3G      0.151500
     58 H312       -1.5950    6.3020   -4.7750 h1        1 F3G      0.151500
     59 F1         -3.4080    6.7570   -5.1410 f         1 F3G     -0.182000
@<TRIPOS>BOND
     1    1    2 1   
     2    1   11 1   
     3    3    4 1   
     4    4    5 1   
     5    4   32 1   
     6    4   33 1   
     7    5    6 1   
     8    5   10 1   
     9    6   34 1   
    10    7    8 1   
    11    7   35 1   
    12    8   36 1   
    13    9   10 1   
    14    9   37 1   
    15   10   38 1   
    16   11   12 1   
    17   11   39 1   
    18   12   13 1   
    19   12   15 1   
    20   12   40 1   
    21   13   14 1   
    22   13   18 1   
    23   15   16 1   
    24   15   17 1   
    25   15   41 1   
    26   16   42 1   
    27   16   43 1   
    28   16   44 1   
    29   17   45 1   
    30   17   46 1   
    31   17   47 1   
    32   18   19 1   
    33   18   48 1   
    34   19   20 1   
    35   19   22 1   
    36   19   49 1   
    37   20   21 1   
    38   20   23 1   
    39   22   50 1   
    40   22   51 1   
    41   22   52 1   
    42   23   24 1   
    43   23   53 1   
    44   24   25 1   
    45   24   27 1   
    46   24   54 1   
    47   25   26 1   
    48   25   31 1   
    49   27   28 1   
    50   27   55 1   
    51   27   56 1   
    52   28   29 1   
    53   28   30 1   
    54   31   57 1   
    55   31   58 1   
    56   31   59 1   
@<TRIPOS>SUBSTRUCTURE
     1 F3G         1 TEMP              0 ****  ****    0 ROOT
