@<TRIPOS>MOLECULE
F3H
   37    38     1     0     0
SMALL
bcc


@<TRIPOS>ATOM
      1 P           4.6590    0.1200   -0.1850 p5        1 F3H      1.431800
      2 N1         -2.7130    0.2220   -0.5470 n         1 F3H     -0.324000
      3 C2         -4.1210    0.3520   -0.5720 c         1 F3H      0.794500
      4 O2         -4.7050    1.4350   -0.8150 o         1 F3H     -0.678500
      5 N3         -4.9040   -0.7960   -0.3480 n         1 F3H     -0.594500
      6 C4         -4.3540   -2.0660   -0.0960 c         1 F3H      0.724700
      7 O4         -5.1460   -3.0130    0.0960 o         1 F3H     -0.680500
      8 C5         -2.8950   -2.1430   -0.0900 cc        1 F3H     -0.330400
      9 C6         -2.1480   -1.0120   -0.2970 cd        1 F3H      0.099600
     10 C1'        -1.8850    1.4180   -0.7060 c3        1 F3H      0.023700
     11 C2'        -1.2610    1.9370    0.6310 c3        1 F3H      0.061600
     12 F2'        -0.9650    3.2790    0.4550 f         1 F3H     -0.258300
     13 C3'         0.0110    1.0950    1.1170 c3        1 F3H      0.409800
     14 O3'         0.5560    1.6250    2.1730 o         1 F3H     -0.830500
     15 C4'         0.9740    0.9340   -0.1010 c3        1 F3H      0.038100
     16 O4'         0.2740    0.3840   -1.2420 os        1 F3H     -0.431600
     17 C5'         2.0880   -0.0720    0.2110 c3        1 F3H      0.208400
     18 O5'         3.1110    0.0080   -0.7340 os        1 F3H     -0.589200
     19 C5M        -2.2740   -3.4590    0.1510 c3        1 F3H     -0.010900
     20 C6'        -0.7400    1.2320   -1.7210 c3        1 F3H      0.137400
     21 OP1         5.5720    0.0320   -1.3430 o         1 F3H     -0.850500
     22 OP2         4.6160    1.6620    0.3550 oh        1 F3H     -0.787400
     23 OP3         4.7630   -0.7130    1.0350 o         1 F3H     -0.850500
     24 HN3        -5.8910   -0.6750   -0.3510 hn        1 F3H      0.328500
     25 H6         -1.0290   -1.0270   -0.2890 h4        1 F3H      0.237000
     26 H1'        -2.5680    2.2270   -1.1090 h1        1 F3H      0.069700
     27 H2'        -2.0300    1.8690    1.4500 h1        1 F3H      0.024700
     28 H3'        -0.4480    0.0570    1.2910 h1        1 F3H     -0.111300
     29 HO3'        4.0730    1.7670    1.1280 ho        1 F3H      0.431000
     30 H4'         1.4090    1.9260   -0.3870 h1        1 F3H      0.050700
     31 H5'         2.4790    0.1390    1.2450 h1        1 F3H      0.033200
     32 H5'A        1.6460   -1.1090    0.1810 h1        1 F3H      0.033200
     33 H5M        -2.7730   -3.9680    1.0140 hc        1 F3H      0.038033
     34 H5MA       -2.3900   -4.1140   -0.7480 hc        1 F3H      0.038033
     35 H5MB       -1.1840   -3.3510    0.3760 hc        1 F3H      0.038033
     36 H6'        -1.0980    0.7540   -2.6710 h1        1 F3H      0.037700
     37 H6'A       -0.3340    2.2580   -1.9360 h1        1 F3H      0.037700
@<TRIPOS>BOND
     1    1   18 1   
     2    1   21 1   
     3    1   22 1   
     4    1   23 1   
     5    2    3 1   
     6    2    9 1   
     7    2   10 1   
     8    3    4 2   
     9    3    5 1   
    10    5    6 1   
    11    5   24 1   
    12    6    7 2   
    13    6    8 1   
    14    8    9 2   
    15    8   19 1   
    16    9   25 1   
    17   10   11 1   
    18   10   20 1   
    19   10   26 1   
    20   11   12 1   
    21   11   13 1   
    22   11   27 1   
    23   13   14 1   
    24   13   15 1   
    25   13   28 1   
    26   15   16 1   
    27   15   17 1   
    28   15   30 1   
    29   16   20 1   
    30   17   18 1   
    31   17   31 1   
    32   17   32 1   
    33   19   33 1   
    34   19   34 1   
    35   19   35 1   
    36   20   36 1   
    37   20   37 1   
    38   22   29 1   
@<TRIPOS>SUBSTRUCTURE
     1 F3H         1 TEMP              0 ****  ****    0 ROOT
