@<TRIPOS>MOLECULE
F3H
   37    37     1     0     0
SMALL
bcc


@<TRIPOS>ATOM
      1 P          -5.0080   -1.8550   -0.6850 p4        1 F3H      1.714200
      2 N1          1.5650    0.1300    0.0300 n         1 F3H     -0.324000
      3 C2          0.9300   -0.1750   -1.2520 c         1 F3H      0.794500
      4 O2         -0.0600   -0.8810   -1.2870 o         1 F3H     -0.678500
      5 N3          1.5020    0.3450   -2.4970 n         1 F3H     -0.594500
      6 C4          2.6280    1.2150   -2.4550 c         1 F3H      0.724700
      7 O4          3.0970    1.6570   -3.4890 o         1 F3H     -0.680500
      8 C5          3.2140    1.5940   -1.1600 cc        1 F3H     -0.330400
      9 C6          2.6410    1.0580    0.0870 cd        1 F3H      0.099600
     10 C1'         1.1680   -0.5980    1.2300 c3        1 F3H      0.023700
     11 C2'         0.2520    0.2470    2.0210 c3        1 F3H      0.061600
     12 F2'         0.0470   -0.3510    3.2620 f         1 F3H     -0.258300
     13 C3'        -1.0620    0.4300    1.3520 c3        1 F3H      0.320100
     14 O3'        -1.9500    1.1040    2.2520 oh        1 F3H     -0.941800
     15 C4'        -1.6920   -0.8940    0.9400 c3        1 F3H      0.038100
     16 O4'        -0.7770   -1.7320    0.1620 os        1 F3H     -0.431600
     17 C5'        -2.9060   -0.6160    0.1210 c3        1 F3H      0.208400
     18 O5'        -3.4740   -1.8320   -0.3040 os        1 F3H     -0.589200
     19 C5M         4.4880    2.4330   -1.1160 c3        1 F3H     -0.009900
     20 C6'         0.5250   -1.9200    0.8170 c3        1 F3H      0.137400
     21 OP1        -5.3880   -3.2380   -1.1630 os        1 F3H     -1.151000
     22 OP2        -5.8330   -1.4970    0.5290 o         1 F3H     -0.685000
     23 OP3        -5.2680   -0.8550   -1.7820 o         1 F3H     -0.733800
     24 HN3         1.1030    0.1530   -3.2980 hn        1 F3H      0.328500
     25 H6          2.9440    1.3980    0.9470 h4        1 F3H      0.237000
     26 H1'         1.9620   -0.7860    1.7630 h1        1 F3H      0.069700
     27 H2'         0.6640    1.1220    2.1550 h1        1 F3H      0.024700
     28 H3'        -0.9380    0.9830    0.5560 h1        1 F3H     -0.111300
     29 HO3'       -2.0100    1.9630    2.0230 ho        1 F3H      0.431000
     30 H4'        -1.9580   -1.3800    1.7440 h1        1 F3H      0.050700
     31 H5'        -3.5580   -0.1210    0.6610 h1        1 F3H      0.033200
     32 H5'A       -2.6560   -0.0810   -0.6600 h1        1 F3H      0.033200
     33 H5M         4.2640    3.3770   -1.2750 hc        1 F3H      0.038033
     34 H5MA        4.9090    2.3410   -0.2370 hc        1 F3H      0.038033
     35 H5MB        5.1100    2.1220   -1.8110 hc        1 F3H      0.038033
     36 H6'         0.4010   -2.4750    1.6150 h1        1 F3H      0.037700
     37 H6'A        1.1240   -2.3820    0.2020 h1        1 F3H      0.037700
@<TRIPOS>BOND
     1    1   18 1   
     2    1   22 1   
     3    1   23 2   
     4    2    3 1   
     5    2    9 1   
     6    2   10 1   
     7    3    4 2   
     8    3    5 1   
     9    5    6 1   
    10    5   24 1   
    11    6    7 2   
    12    6    8 1   
    13    8    9 2   
    14    8   19 1   
    15    9   25 1   
    16   10   11 1   
    17   10   20 1   
    18   10   26 1   
    19   11   12 1   
    20   11   13 1   
    21   11   27 1   
    22   13   14 1   
    23   13   15 1   
    24   13   28 1   
    25   14   29 1   
    26   15   16 1   
    27   15   17 1   
    28   15   30 1   
    29   16   20 1   
    30   17   18 1   
    31   17   31 1   
    32   17   32 1   
    33   19   33 1   
    34   19   34 1   
    35   19   35 1   
    36   20   36 1   
    37   20   37 1   
@<TRIPOS>SUBSTRUCTURE
     1 F3H         1 TEMP              0 ****  ****    0 ROOT
