@<TRIPOS>MOLECULE
F3M
   23    22     1     0     0
SMALL
bcc


@<TRIPOS>ATOM
      1 N          -1.4150    1.9750   -0.2770 n3        1 F3M     -0.910800
      2 C1          2.5510   -0.0510    0.5250 c         1 F3M      0.636100
      3 F1         -2.7040   -0.4390   -1.2660 f         1 F3M     -0.230633
      4 O1          3.6380    0.4590   -0.1280 os        1 F3M     -0.438900
      5 C2          1.3310    0.8040    0.3730 c3        1 F3M     -0.167400
      6 F2         -3.5730    0.1630    0.6330 f         1 F3M     -0.230633
      7 O2          2.6790   -1.0980    1.1610 o         1 F3M     -0.527000
      8 C3          0.1280   -0.0340   -0.0570 c3        1 F3M      0.097100
      9 F3         -2.2230   -1.5290    0.5600 f         1 F3M     -0.230633
     10 O3          0.1640   -0.3430   -1.4330 oh        1 F3M     -0.567800
     11 C4         -1.1820    0.6950    0.3370 c3        1 F3M      0.106500
     12 C5         -2.4060   -0.2670    0.0590 c3        1 F3M      0.637900
     13 CA          4.8520   -0.2900   -0.0350 c3        1 F3M      0.124700
     14 HN         -0.6610    2.6040   -0.0910 hn        1 F3M      0.371300
     15 HNA        -1.5670    1.8890   -1.2630 hn        1 F3M      0.371300
     16 H2          1.1320    1.2800    1.3710 hc        1 F3M      0.084200
     17 H2A         1.5320    1.6170   -0.3740 hc        1 F3M      0.084200
     18 H3          0.1550   -1.0450    0.4510 h1        1 F3M      0.127700
     19 HO3         0.2240    0.4820   -1.9300 ho        1 F3M      0.398000
     20 H4         -1.1670    0.8460    1.4580 h1        1 F3M      0.100700
     21 HA          5.1730   -0.3610    1.0320 h1        1 F3M      0.055033
     22 HAA         4.7010   -1.3110   -0.4600 h1        1 F3M      0.055033
     23 HAB         5.5760    0.3070   -0.6430 h1        1 F3M      0.055033
@<TRIPOS>BOND
     1    1   11 1   
     2    1   14 1   
     3    1   15 1   
     4    2    4 1   
     5    2    5 1   
     6    2    7 2   
     7    3   12 1   
     8    4   13 1   
     9    5    8 1   
    10    5   16 1   
    11    5   17 1   
    12    6   12 1   
    13    8   10 1   
    14    8   11 1   
    15    8   18 1   
    16    9   12 1   
    17   10   19 1   
    18   11   12 1   
    19   11   20 1   
    20   13   21 1   
    21   13   22 1   
    22   13   23 1   
@<TRIPOS>SUBSTRUCTURE
     1 F3M         1 TEMP              0 ****  ****    0 ROOT
