@<TRIPOS>MOLECULE
F3M
   23    21     1     0     0
SMALL
bcc


@<TRIPOS>ATOM
      1 N          -2.1670    1.1460    1.3280 n3        1 F3M     -0.324000
      2 C1          0.9540   -0.6140   -1.5040 c1        1 F3M      0.306000
      3 F1         -0.7260    0.0060    3.3680 f         1 F3M     -0.163333
      4 O1          0.6100   -1.0980   -2.7790 o         1 F3M     -0.276000
      5 C2          0.0890    0.4310   -0.8330 c3        1 F3M     -0.160000
      6 F2          1.0650    1.1370    2.8280 f         1 F3M     -0.163333
      7 O2          1.9290   -1.0570   -0.9300 o         1 F3M     -0.346000
      8 C3         -0.1840    0.0170    0.5960 c3        1 F3M     -0.012000
      9 F3         -0.7410    2.1900    3.4680 f         1 F3M     -0.163333
     10 O3         -1.1150   -1.0390    0.6080 oh        1 F3M     -0.326000
     11 C4         -0.7450    1.1920    1.3620 c3        1 F3M     -0.089000
     12 C5         -0.2730    1.1300    2.7970 c3        1 F3M      0.410000
     13 CA          1.5830   -1.9440   -3.3510 c3        1 F3M     -0.064000
     14 HN         -2.5030    1.5010    2.1030 hn        1 F3M      0.167500
     15 HNA        -2.4710    1.6300    0.6130 hn        1 F3M      0.167500
     16 H2         -0.7570    0.5140   -1.3160 hc        1 F3M      0.132500
     17 H2A         0.5540    1.2920   -0.8390 hc        1 F3M      0.132500
     18 H3          0.6480   -0.2780    1.0150 h1        1 F3M      0.130000
     19 HO3        -0.7380   -1.7620    0.9630 ho        1 F3M      0.223000
     20 H4         -0.4370    2.0250    0.9540 h1        1 F3M      0.137000
     21 HA          2.4130   -1.4400   -3.4910 h1        1 F3M      0.093333
     22 HAA         1.7560   -2.6980   -2.7470 h1        1 F3M      0.093333
     23 HAB         1.2560   -2.2830   -4.2130 h1        1 F3M      0.093333
@<TRIPOS>BOND
     1    1   11 1   
     2    1   14 1   
     3    1   15 1   
     4    2    5 1   
     5    2    7 1   
     6    3   12 1   
     7    4   13 1   
     8    5    8 1   
     9    5   16 1   
    10    5   17 1   
    11    6   12 1   
    12    8   10 1   
    13    8   11 1   
    14    8   18 1   
    15    9   12 1   
    16   10   19 1   
    17   11   12 1   
    18   11   20 1   
    19   13   21 1   
    20   13   22 1   
    21   13   23 1   
@<TRIPOS>SUBSTRUCTURE
     1 F3M         1 TEMP              0 ****  ****    0 ROOT
