@<TRIPOS>MOLECULE
F3P
   40    39     1     0     0
SMALL
bcc


@<TRIPOS>ATOM
      1 C1         -2.0370   -0.6160   -2.5460 c3        1 F3P     -0.110100
      2 C2         -2.6440   -0.0460   -1.2830 c3        1 F3P      0.109600
      3 C3         -1.5800    0.0530   -0.2120 c3        1 F3P      0.267800
      4 C4         -0.5540    1.0940   -0.6140 c3        1 F3P     -0.074400
      5 C5          0.7420    0.8350    0.1230 c3        1 F3P     -0.101400
      6 C6          1.6260    2.0640    0.0400 c3        1 F3P     -0.058400
      7 C7          3.0770    1.6530    0.1690 c3        1 F3P     -0.072700
      8 C8          3.8810    2.2820   -0.9480 c3        1 F3P     -0.086600
      9 C9          3.6160    2.1190    1.5040 c3        1 F3P     -0.086600
     10 C10        -2.2190    0.4530    1.0980 c3        1 F3P     -0.200100
     11 F          -3.1380    1.1740   -1.5350 f         1 F3P     -0.310300
     12 O1         -0.9480   -1.1960   -0.0630 os        1 F3P     -0.553200
     13 PA         -1.7280   -2.3520    0.6870 p5        1 F3P      1.584800
     14 O1A        -1.7710   -2.0520    2.1670 o         1 F3P     -0.927500
     15 O2A        -3.1370   -2.4400    0.1500 o         1 F3P     -0.927500
     16 O3A        -0.9860   -3.7290    0.4500 os        1 F3P     -0.796800
     17 PB         -1.3820   -5.0750    1.1810 p5        1 F3P      1.458900
     18 O2B        -1.1670   -4.9220    2.6680 o         1 F3P     -0.957833
     19 O3B        -2.8350   -5.3870    0.9110 o         1 F3P     -0.957833
     20 O1B        -0.5210   -6.2020    0.6610 o         1 F3P     -0.957833
     21 H11        -2.7520   -0.8560   -3.1720 hc        1 F3P      0.037700
     22 H12        -1.4530    0.0540   -2.9590 hc        1 F3P      0.037700
     23 H13        -1.5140   -1.4150   -2.3260 hc        1 F3P      0.037700
     24 H2         -3.3650   -0.6310   -0.9740 h1        1 F3P      0.065700
     25 H41        -0.8870    1.9850   -0.3850 hc        1 F3P     -0.000800
     26 H42        -0.3970    1.0420   -1.5770 hc        1 F3P     -0.000800
     27 H51         1.2030    0.0740   -0.2840 hc        1 F3P      0.097700
     28 H52         0.5500    0.6350    1.0620 hc        1 F3P      0.097700
     29 H61         1.3960    2.6810    0.7630 hc        1 F3P      0.003200
     30 H62         1.4880    2.5070   -0.8220 hc        1 F3P      0.003200
     31 H7          3.1460    0.6800    0.1120 hc        1 F3P      0.069700
     32 H81         3.4970    2.0250   -1.8120 hc        1 F3P      0.022033
     33 H82         3.8590    3.2570   -0.8570 hc        1 F3P      0.022033
     34 H83         4.8090    1.9700   -0.8970 hc        1 F3P      0.022033
     35 H91         4.5750    1.9230    1.5560 hc        1 F3P      0.022033
     36 H92         3.1480    1.6520    2.2270 hc        1 F3P      0.022033
     37 H93         3.4750    3.0850    1.5940 hc        1 F3P      0.022033
     38 H101       -2.4970    1.3920    1.0520 hc        1 F3P      0.059367
     39 H102       -3.0010   -0.1120    1.2660 hc        1 F3P      0.059367
     40 H103       -1.5720    0.3400    1.8250 hc        1 F3P      0.059367
@<TRIPOS>BOND
     1    1    2 1   
     2    1   21 1   
     3    1   22 1   
     4    1   23 1   
     5    2    3 1   
     6    2   11 1   
     7    2   24 1   
     8    3    4 1   
     9    3   10 1   
    10    3   12 1   
    11    4    5 1   
    12    4   25 1   
    13    4   26 1   
    14    5    6 1   
    15    5   27 1   
    16    5   28 1   
    17    6    7 1   
    18    6   29 1   
    19    6   30 1   
    20    7    8 1   
    21    7    9 1   
    22    7   31 1   
    23    8   32 1   
    24    8   33 1   
    25    8   34 1   
    26    9   35 1   
    27    9   36 1   
    28    9   37 1   
    29   10   38 1   
    30   10   39 1   
    31   10   40 1   
    32   12   13 1   
    33   13   14 1   
    34   13   15 1   
    35   13   16 1   
    36   16   17 1   
    37   17   18 1   
    38   17   19 1   
    39   17   20 1   
@<TRIPOS>SUBSTRUCTURE
     1 F3P         1 TEMP              0 ****  ****    0 ROOT
