@<TRIPOS>MOLECULE
F3P
   40    39     1     0     0
SMALL
bcc


@<TRIPOS>ATOM
      1 C1          0.4360   -0.1430   -0.3810 c3        1 F3P     -0.097100
      2 C2          1.9340   -0.3880   -0.2110 c3        1 F3P      0.069600
      3 C3          2.3830   -0.3980    1.2960 c3        1 F3P      0.288800
      4 C4          1.6770    0.7790    2.0000 c3        1 F3P     -0.140400
      5 C5          2.2410    1.0770    3.3710 c3        1 F3P     -0.083400
      6 C6          1.8730    2.4790    3.8080 c3        1 F3P     -0.098400
      7 C7          2.7190    2.9540    4.9810 c3        1 F3P     -0.076700
      8 C8          2.3520    2.2450    6.2670 c3        1 F3P     -0.076100
      9 C9          2.5820    4.4530    5.1500 c3        1 F3P     -0.076100
     10 C10         1.8920   -1.7100    1.9500 c3        1 F3P     -0.097100
     11 F           2.2820   -1.5800   -0.8440 f         1 F3P     -0.297300
     12 O1          3.7590   -0.4260    1.3970 os        1 F3P     -0.617200
     13 PA          4.9950    0.7260    1.1750 p5        1 F3P      1.609800
     14 O1A         5.3770    1.0630    2.5760 o         1 F3P     -0.914500
     15 O2A         6.0050    0.0160    0.3480 o         1 F3P     -0.914500
     16 O3A         4.2010    1.8590    0.4360 os        1 F3P     -0.827800
     17 PB          3.2650    3.1360   -0.3120 p5        1 F3P      1.465900
     18 O2B         4.2600    4.1220   -0.8490 o         1 F3P     -0.955500
     19 O3B         2.4140    3.6390    0.8300 o         1 F3P     -0.955500
     20 O1B         2.4680    2.3760   -1.3430 o         1 F3P     -0.955500
     21 H11         0.2420    0.9420   -0.2020 hc        1 F3P      0.014700
     22 H12         0.1310   -0.3930   -1.4260 hc        1 F3P      0.014700
     23 H13        -0.1780   -0.7620    0.3160 hc        1 F3P      0.014700
     24 H2          2.4720    0.4930   -0.7280 h1        1 F3P      0.194700
     25 H41         1.7990    1.7080    1.3480 hc        1 F3P      0.067200
     26 H42         0.5830    0.5490    2.0840 hc        1 F3P      0.067200
     27 H51         1.8790    0.3250    4.1220 hc        1 F3P      0.045200
     28 H52         3.3710    0.9910    3.2980 hc        1 F3P      0.045200
     29 H61         0.7880    2.5340    4.0850 hc        1 F3P      0.069200
     30 H62         2.0500    3.1680    2.9190 hc        1 F3P      0.069200
     31 H7          3.7950    2.7180    4.7290 hc        1 F3P      0.099700
     32 H81         2.4870    1.1440    6.1420 hc        1 F3P      0.007533
     33 H82         1.2870    2.4420    6.5410 hc        1 F3P      0.007533
     34 H83         2.9970    2.5910    7.1110 hc        1 F3P      0.007533
     35 H91         1.5270    4.7300    5.3940 hc        1 F3P      0.007533
     36 H92         2.8730    4.9610    4.1980 hc        1 F3P      0.007533
     37 H93         3.2380    4.8220    5.9760 hc        1 F3P      0.007533
     38 H101        2.1970   -1.7210    3.0220 hc        1 F3P      0.001033
     39 H102        2.3590   -2.5790    1.4330 hc        1 F3P      0.001033
     40 H103        0.7830   -1.7970    1.8850 hc        1 F3P      0.001033
@<TRIPOS>BOND
     1    1    2 1   
     2    1   21 1   
     3    1   22 1   
     4    1   23 1   
     5    2    3 1   
     6    2   11 1   
     7    2   24 1   
     8    3    4 1   
     9    3   10 1   
    10    3   12 1   
    11    4    5 1   
    12    4   25 1   
    13    4   26 1   
    14    5    6 1   
    15    5   27 1   
    16    5   28 1   
    17    6    7 1   
    18    6   29 1   
    19    6   30 1   
    20    7    8 1   
    21    7    9 1   
    22    7   31 1   
    23    8   32 1   
    24    8   33 1   
    25    8   34 1   
    26    9   35 1   
    27    9   36 1   
    28    9   37 1   
    29   10   38 1   
    30   10   39 1   
    31   10   40 1   
    32   12   13 1   
    33   13   14 1   
    34   13   15 1   
    35   13   16 1   
    36   16   17 1   
    37   17   18 1   
    38   17   19 1   
    39   17   20 1   
@<TRIPOS>SUBSTRUCTURE
     1 F3P         1 TEMP              0 ****  ****    0 ROOT
