@<TRIPOS>MOLECULE
F3P
   40    39     1     0     0
SMALL
bcc


@<TRIPOS>ATOM
      1 C1          0.4660   -0.1320   -0.4080 c3        1 F3P     -0.097100
      2 C2          1.9540   -0.4090   -0.2010 c3        1 F3P      0.069600
      3 C3          2.3680   -0.4100    1.3170 c3        1 F3P      0.288800
      4 C4          1.6730    0.7920    1.9900 c3        1 F3P     -0.140400
      5 C5          2.2120    1.0940    3.3700 c3        1 F3P     -0.083400
      6 C6          1.8670    2.5090    3.7810 c3        1 F3P     -0.098400
      7 C7          2.6950    2.9800    4.9680 c3        1 F3P     -0.076700
      8 C8          2.2800    2.2950    6.2540 c3        1 F3P     -0.076100
      9 C9          2.5890    4.4830    5.1160 c3        1 F3P     -0.076100
     10 C10         1.8310   -1.7020    1.9750 c3        1 F3P     -0.097100
     11 F           2.2890   -1.6170   -0.8110 f         1 F3P     -0.297300
     12 O1          3.7390   -0.4690    1.4510 os        1 F3P     -0.617200
     13 PA          5.0080    0.6510    1.2440 p5        1 F3P      1.609800
     14 O1A         5.3650    0.9970    2.6490 o         1 F3P     -0.914500
     15 O2A         6.0190   -0.0920    0.4490 o         1 F3P     -0.914500
     16 O3A         4.2570    1.7940    0.4720 os        1 F3P     -0.827800
     17 PB          3.3690    3.0820   -0.3120 p5        1 F3P      1.465900
     18 O2B         4.3990    4.0380   -0.8380 o         1 F3P     -0.955500
     19 O3B         2.5030    3.6190    0.8030 o         1 F3P     -0.955500
     20 O1B         2.5790    2.3280   -1.3520 o         1 F3P     -0.955500
     21 H11         0.2940    0.9600   -0.2470 hc        1 F3P      0.014700
     22 H12         0.1800   -0.3880   -1.4570 hc        1 F3P      0.014700
     23 H13        -0.1780   -0.7280    0.2810 hc        1 F3P      0.014700
     24 H2          2.5240    0.4530   -0.7150 h1        1 F3P      0.194700
     25 H41         1.8320    1.7090    1.3300 hc        1 F3P      0.067200
     26 H42         0.5730    0.5880    2.0510 hc        1 F3P      0.067200
     27 H51         1.8160    0.3590    4.1210 hc        1 F3P      0.045200
     28 H52         3.3410    0.9810    3.3240 hc        1 F3P      0.045200
     29 H61         0.7760    2.5920    4.0310 hc        1 F3P      0.069200
     30 H62         2.0810    3.1820    2.8890 hc        1 F3P      0.069200
     31 H7          3.7710    2.7150    4.7460 hc        1 F3P      0.099700
     32 H81         2.3930    1.1900    6.1460 hc        1 F3P      0.007533
     33 H82         1.2140    2.5210    6.5000 hc        1 F3P      0.007533
     34 H83         2.9130    2.6370    7.1090 hc        1 F3P      0.007533
     35 H91         1.5360    4.7880    5.3310 hc        1 F3P      0.007533
     36 H92         2.9150    4.9720    4.1650 hc        1 F3P      0.007533
     37 H93         3.2330    4.8470    5.9540 hc        1 F3P      0.007533
     38 H101        2.1110   -1.7070    3.0540 hc        1 F3P      0.001033
     39 H102        2.2900   -2.5890    1.4800 hc        1 F3P      0.001033
     40 H103        0.7220   -1.7650    1.8850 hc        1 F3P      0.001033
@<TRIPOS>BOND
     1    1    2 1   
     2    1   21 1   
     3    1   22 1   
     4    1   23 1   
     5    2    3 1   
     6    2   11 1   
     7    2   24 1   
     8    3    4 1   
     9    3   10 1   
    10    3   12 1   
    11    4    5 1   
    12    4   25 1   
    13    4   26 1   
    14    5    6 1   
    15    5   27 1   
    16    5   28 1   
    17    6    7 1   
    18    6   29 1   
    19    6   30 1   
    20    7    8 1   
    21    7    9 1   
    22    7   31 1   
    23    8   32 1   
    24    8   33 1   
    25    8   34 1   
    26    9   35 1   
    27    9   36 1   
    28    9   37 1   
    29   10   38 1   
    30   10   39 1   
    31   10   40 1   
    32   12   13 1   
    33   13   14 1   
    34   13   15 1   
    35   13   16 1   
    36   16   17 1   
    37   17   18 1   
    38   17   19 1   
    39   17   20 1   
@<TRIPOS>SUBSTRUCTURE
     1 F3P         1 TEMP              0 ****  ****    0 ROOT
