@<TRIPOS>MOLECULE
F3P
   40    39     1     0     0
SMALL
bcc


@<TRIPOS>ATOM
      1 C1         -3.4820    0.0490   -3.9060 c3        1 F3P     -0.097100
      2 C2         -3.4720    1.1370   -4.9790 c3        1 F3P      0.069600
      3 C3         -2.0570    1.3290   -5.6370 c3        1 F3P      0.288800
      4 C4         -1.0090    1.3080   -4.5040 c3        1 F3P     -0.140400
      5 C5          0.3570    1.7810   -4.9490 c3        1 F3P     -0.083400
      6 C6          1.1940    2.1940   -3.7560 c3        1 F3P     -0.098400
      7 C7          2.4050    3.0200   -4.1650 c3        1 F3P     -0.076700
      8 C8          3.4550    2.1790   -4.8600 c3        1 F3P     -0.076100
      9 C9          3.0010    3.7080   -2.9550 c3        1 F3P     -0.076100
     10 C10        -1.7760    0.1290   -6.5690 c3        1 F3P     -0.097100
     11 F          -4.4350    0.8450   -5.9430 f         1 F3P     -0.297300
     12 O1         -2.0430    2.4420   -6.4520 os        1 F3P     -0.617200
     13 PA         -1.9960    4.1230   -6.1770 p5        1 F3P      1.609800
     14 O1A        -0.5800    4.4630   -6.4960 o         1 F3P     -0.914500
     15 O2A        -3.0450    4.6670   -7.0780 o         1 F3P     -0.914500
     16 O3A        -2.3380    4.1720   -4.6460 os        1 F3P     -0.827800
     17 PB         -2.6390    4.1820   -2.9210 p5        1 F3P      1.465900
     18 O2B        -1.3570    3.6210   -2.3540 o         1 F3P     -0.955500
     19 O3B        -3.7980    3.2250   -2.8010 o         1 F3P     -0.955500
     20 O1B        -2.9280    5.6090   -2.5570 o         1 F3P     -0.955500
     21 H11        -2.9580   -0.8790   -4.2360 hc        1 F3P      0.014700
     22 H12        -2.9920    0.4620   -2.9920 hc        1 F3P      0.014700
     23 H13        -4.5370   -0.2200   -3.6550 hc        1 F3P      0.014700
     24 H2         -3.7450    2.1250   -4.4480 h1        1 F3P      0.194700
     25 H41        -1.3760    1.9940   -3.6680 hc        1 F3P      0.067200
     26 H42        -0.9340    0.2670   -4.0980 hc        1 F3P      0.067200
     27 H51         0.8810    0.9830   -5.5380 hc        1 F3P      0.045200
     28 H52         0.2000    2.6790   -5.6260 hc        1 F3P      0.045200
     29 H61         0.5290    2.8210   -3.0770 hc        1 F3P      0.069200
     30 H62         1.5340    1.2930   -3.1820 hc        1 F3P      0.069200
     31 H7          2.0380    3.8110   -4.8840 hc        1 F3P      0.099700
     32 H81         3.0150    1.7020   -5.7690 hc        1 F3P      0.007533
     33 H82         3.8320    1.3730   -4.1840 hc        1 F3P      0.007533
     34 H83         4.3260    2.8060   -5.1720 hc        1 F3P      0.007533
     35 H91         2.2180    4.3380   -2.4640 hc        1 F3P      0.007533
     36 H92         3.3710    2.9580   -2.2140 hc        1 F3P      0.007533
     37 H93         3.8600    4.3590   -3.2500 hc        1 F3P      0.007533
     38 H101       -2.5440    0.0990   -7.3760 hc        1 F3P      0.001033
     39 H102       -1.8030   -0.8310   -6.0020 hc        1 F3P      0.001033
     40 H103       -0.7700    0.2520   -7.0330 hc        1 F3P      0.001033
@<TRIPOS>BOND
     1    1    2 1   
     2    1   21 1   
     3    1   22 1   
     4    1   23 1   
     5    2    3 1   
     6    2   11 1   
     7    2   24 1   
     8    3    4 1   
     9    3   10 1   
    10    3   12 1   
    11    4    5 1   
    12    4   25 1   
    13    4   26 1   
    14    5    6 1   
    15    5   27 1   
    16    5   28 1   
    17    6    7 1   
    18    6   29 1   
    19    6   30 1   
    20    7    8 1   
    21    7    9 1   
    22    7   31 1   
    23    8   32 1   
    24    8   33 1   
    25    8   34 1   
    26    9   35 1   
    27    9   36 1   
    28    9   37 1   
    29   10   38 1   
    30   10   39 1   
    31   10   40 1   
    32   12   13 1   
    33   13   14 1   
    34   13   15 1   
    35   13   16 1   
    36   16   17 1   
    37   17   18 1   
    38   17   19 1   
    39   17   20 1   
@<TRIPOS>SUBSTRUCTURE
     1 F3P         1 TEMP              0 ****  ****    0 ROOT
