@<TRIPOS>MOLECULE
F3T
   19    18     1     0     0
SMALL
bcc


@<TRIPOS>ATOM
      1 N          -1.0710    1.9450   -0.5290 n3        1 F3T     -0.897800
      2 C1          2.9620   -0.0230    0.1420 c         1 F3T      0.910600
      3 F1         -2.4970   -0.6690   -0.8380 f         1 F3T     -0.254633
      4 O1          3.8620    0.0860    1.0180 o         1 F3T     -0.840800
      5 C2          1.6830    0.8170    0.3100 c3        1 F3T     -0.235400
      6 F2         -3.2180    0.4300    0.8710 f         1 F3T     -0.254633
      7 O2          3.0520   -0.7690   -0.8810 o         1 F3T     -0.840800
      8 C3          0.4420    0.0090   -0.0230 c3        1 F3T      0.174100
      9 F3         -1.9200   -1.2730    1.1720 f         1 F3T     -0.254633
     10 O3          0.3620   -0.3330   -1.3960 oh        1 F3T     -0.660800
     11 C4         -0.8390    0.8130    0.3230 c3        1 F3T      0.162500
     12 C5         -2.0850   -0.1750    0.3700 c3        1 F3T      0.566900
     13 HN         -0.7460    1.7610   -1.4600 hn        1 F3T      0.366800
     14 HNA        -2.0390    2.1950   -0.5440 hn        1 F3T      0.366800
     15 H2          1.6230    1.1900    1.3610 hc        1 F3T      0.044700
     16 H2A         1.7590    1.6970   -0.3770 hc        1 F3T      0.044700
     17 H3          0.4280   -0.9400    0.5870 h1        1 F3T      0.048700
     18 HO3         1.2570   -0.6210   -1.6640 ho        1 F3T      0.472000
     19 H4         -0.7440    1.1840    1.3860 h1        1 F3T      0.080700
@<TRIPOS>BOND
     1    1   11 1   
     2    1   13 1   
     3    1   14 1   
     4    2    4 1   
     5    2    5 1   
     6    2    7 1   
     7    3   12 1   
     8    5    8 1   
     9    5   15 1   
    10    5   16 1   
    11    6   12 1   
    12    8   10 1   
    13    8   11 1   
    14    8   17 1   
    15    9   12 1   
    16   10   18 1   
    17   11   12 1   
    18   11   19 1   
@<TRIPOS>SUBSTRUCTURE
     1 F3T         1 TEMP              0 ****  ****    0 ROOT
