@<TRIPOS>MOLECULE
F3T
   19    17     1     0     0
SMALL
bcc


@<TRIPOS>ATOM
      1 N          -1.7970    0.7910    0.5940 n3        1 F3T     -0.325000
      2 C1          1.2860   -1.2420   -2.1490 c1        1 F3T      0.334000
      3 F1          1.4650    0.6960    2.0200 f         1 F3T     -0.178000
      4 O1          2.5130   -1.4100   -1.9210 os        1 F3T     -0.553000
      5 C2          0.5530   -0.0760   -1.5230 c3        1 F3T     -0.272000
      6 F2         -0.2380    1.9290    2.6220 f         1 F3T     -0.178000
      7 O2          0.6690   -2.0440   -2.8980 o         1 F3T     -0.592000
      8 C3          0.1290   -0.4430   -0.1190 c3        1 F3T      0.029000
      9 F3         -0.3930   -0.2520    2.6770 f         1 F3T     -0.178000
     10 O3         -0.8980   -1.4050   -0.1740 oh        1 F3T     -0.384000
     11 C4         -0.3750    0.7910    0.5940 c3        1 F3T     -0.063000
     12 C5          0.1290    0.7910    2.0190 c3        1 F3T      0.413000
     13 HN         -2.1010    1.2170   -0.1530 hn        1 F3T      0.157000
     14 HNA        -2.1010    1.2240    1.3360 hn        1 F3T      0.157000
     15 H2          1.1430    0.7010   -1.4930 hc        1 F3T      0.076000
     16 H2A        -0.2370    0.1360   -2.0560 hc        1 F3T      0.076000
     17 H3          0.8930   -0.8100    0.3660 h1        1 F3T      0.093000
     18 HO3        -0.5910   -2.1820    0.1250 ho        1 F3T      0.268000
     19 H4         -0.0490    1.5880    0.1340 h1        1 F3T      0.121000
@<TRIPOS>BOND
     1    1   11 1   
     2    1   13 1   
     3    1   14 1   
     4    2    5 1   
     5    2    7 1   
     6    3   12 1   
     7    5    8 1   
     8    5   15 1   
     9    5   16 1   
    10    6   12 1   
    11    8   10 1   
    12    8   11 1   
    13    8   17 1   
    14    9   12 1   
    15   10   18 1   
    16   11   12 1   
    17   11   19 1   
@<TRIPOS>SUBSTRUCTURE
     1 F3T         1 TEMP              0 ****  ****    0 ROOT
