@<TRIPOS>MOLECULE
F40
   27    29     1     0     0
SMALL
bcc


@<TRIPOS>ATOM
      1 O          -1.6830   -2.6810   -0.8620 o         1 F40     -0.624500
      2 C          -1.2930   -1.5490   -0.5210 c         1 F40      0.708100
      3 N           0.0870   -1.3030   -0.4440 n         1 F40     -0.493400
      4 C1          0.5740   -0.0450   -0.0630 cc        1 F40      0.544500
      5 C8          2.0550    0.0990   -0.0170 ca        1 F40     -0.149900
      6 C9          2.6620    1.2140   -0.6060 ca        1 F40     -0.094500
      7 C10         4.0500    1.3470   -0.5640 ca        1 F40     -0.134500
      8 C11         4.8290    0.3780    0.0680 ca        1 F40     -0.109000
      9 C12         4.2210   -0.7280    0.6630 ca        1 F40     -0.134500
     10 C13         2.8350   -0.8720    0.6230 ca        1 F40     -0.094500
     11 N1         -0.1910    0.9900    0.2440 nd        1 F40     -0.615100
     12 C2         -1.5800    0.8230    0.1900 ca        1 F40      0.182400
     13 C3         -2.1710   -0.4140   -0.1820 ca        1 F40     -0.189600
     14 C7         -2.4360    1.9060    0.5130 ca        1 F40     -0.123000
     15 C6         -3.8100    1.7420    0.4610 ca        1 F40     -0.095000
     16 C5         -4.3790    0.5150    0.0920 ca        1 F40     -0.153000
     17 C4         -3.5630   -0.5600   -0.2280 ca        1 F40     -0.060000
     18 H           0.7260   -2.0320   -0.6730 hn        1 F40      0.339500
     19 H9          2.0470    1.9840   -1.0960 ha        1 F40      0.146000
     20 H13         2.3640   -1.7380    1.1110 ha        1 F40      0.146000
     21 H10         4.5270    2.2230   -1.0280 ha        1 F40      0.139500
     22 H11         5.9230    0.4870    0.1000 ha        1 F40      0.137000
     23 H12         4.8350   -1.4880    1.1680 ha        1 F40      0.139500
     24 H7         -2.0010    2.8750    0.8060 ha        1 F40      0.153000
     25 H4         -3.9880   -1.5340   -0.5210 ha        1 F40      0.158000
     26 H6         -4.4680    2.5880    0.7140 ha        1 F40      0.137000
     27 H5         -5.4730    0.4080    0.0580 ha        1 F40      0.140000
@<TRIPOS>BOND
     1    1    2 2   
     2    2    3 1   
     3    2   13 1   
     4    3    4 1   
     5    3   18 1   
     6    4    5 1   
     7    4   11 2   
     8    5    6 ar  
     9    5   10 ar  
    10    6    7 ar  
    11    6   19 1   
    12    7    8 ar  
    13    7   21 1   
    14    8    9 ar  
    15    8   22 1   
    16    9   10 ar  
    17    9   23 1   
    18   10   20 1   
    19   11   12 1   
    20   12   13 ar  
    21   12   14 ar  
    22   13   17 ar  
    23   14   15 ar  
    24   14   24 1   
    25   15   16 ar  
    26   15   26 1   
    27   16   17 ar  
    28   16   27 1   
    29   17   25 1   
@<TRIPOS>SUBSTRUCTURE
     1 F40         1 TEMP              0 ****  ****    0 ROOT
