@<TRIPOS>MOLECULE
F40
   27    29     1     0     0
SMALL
bcc


@<TRIPOS>ATOM
      1 O           0.0750   -0.8460    0.0090 o         1 F40     -0.624500
      2 C           1.2730   -0.5120   -0.0520 c         1 F40      0.708100
      3 N           2.0150   -0.4340    1.1370 n         1 F40     -0.493400
      4 C1          3.3660   -0.0620    1.1190 cc        1 F40      0.544500
      5 C8          4.0510   -0.0140    2.4410 ca        1 F40     -0.149900
      6 C9          5.3080   -0.6110    2.5920 ca        1 F40     -0.094500
      7 C10         5.9480   -0.5670    3.8300 ca        1 F40     -0.134500
      8 C11         5.3430    0.0730    4.9120 ca        1 F40     -0.109000
      9 C12         4.0930    0.6750    4.7560 ca        1 F40     -0.134500
     10 C13         3.4440    0.6340    3.5230 ca        1 F40     -0.094500
     11 N1          4.0450    0.2360    0.0230 nd        1 F40     -0.615100
     12 C2          3.3730    0.1810   -1.2040 ca        1 F40      0.182400
     13 C3          2.0020   -0.1830   -1.2900 ca        1 F40     -0.189600
     14 C7          4.0620    0.4950   -2.4020 ca        1 F40     -0.123000
     15 C6          3.3970    0.4420   -3.6170 ca        1 F40     -0.095000
     16 C5          2.0450    0.0810   -3.6870 ca        1 F40     -0.153000
     17 C4          1.3490   -0.2310   -2.5290 ca        1 F40     -0.060000
     18 H           1.5750   -0.6580    2.0020 hn        1 F40      0.339500
     19 H9          5.7920   -1.1070    1.7360 ha        1 F40      0.146000
     20 H13         2.4670    1.1270    3.4060 ha        1 F40      0.146000
     21 H10         6.9360   -1.0360    3.9500 ha        1 F40      0.139500
     22 H11         5.8510    0.1070    5.8870 ha        1 F40      0.137000
     23 H12         3.6190    1.1870    5.6060 ha        1 F40      0.139500
     24 H7          5.1240    0.7810   -2.3600 ha        1 F40      0.153000
     25 H4          0.2850   -0.5170   -2.5600 ha        1 F40      0.158000
     26 H6          3.9400    0.6880   -4.5430 ha        1 F40      0.137000
     27 H5          1.5380    0.0450   -4.6630 ha        1 F40      0.140000
@<TRIPOS>BOND
     1    1    2 2   
     2    2    3 1   
     3    2   13 1   
     4    3    4 1   
     5    3   18 1   
     6    4    5 1   
     7    4   11 2   
     8    5    6 ar  
     9    5   10 ar  
    10    6    7 ar  
    11    6   19 1   
    12    7    8 ar  
    13    7   21 1   
    14    8    9 ar  
    15    8   22 1   
    16    9   10 ar  
    17    9   23 1   
    18   10   20 1   
    19   11   12 1   
    20   12   13 ar  
    21   12   14 ar  
    22   13   17 ar  
    23   14   15 ar  
    24   14   24 1   
    25   15   16 ar  
    26   15   26 1   
    27   16   17 ar  
    28   16   27 1   
    29   17   25 1   
@<TRIPOS>SUBSTRUCTURE
     1 F40         1 TEMP              0 ****  ****    0 ROOT
