@<TRIPOS>MOLECULE
F40
   27    29     1     0     0
SMALL
bcc


@<TRIPOS>ATOM
      1 O           0.0690   -0.8210    0.0090 o         1 F40     -0.624500
      2 C           1.2690   -0.4960   -0.0520 c         1 F40      0.708100
      3 N           2.0120   -0.4250    1.1370 n         1 F40     -0.493400
      4 C1          3.3660   -0.0620    1.1190 cc        1 F40      0.544500
      5 C8          4.0520   -0.0210    2.4410 ca        1 F40     -0.149900
      6 C9          5.3040   -0.6250    2.5900 ca        1 F40     -0.094500
      7 C10         5.9460   -0.5870    3.8290 ca        1 F40     -0.134500
      8 C11         5.3450    0.0550    4.9110 ca        1 F40     -0.109000
      9 C12         4.1000    0.6650    4.7570 ca        1 F40     -0.134500
     10 C13         3.4500    0.6300    3.5240 ca        1 F40     -0.094500
     11 N1          4.0460    0.2320    0.0230 nd        1 F40     -0.615100
     12 C2          3.3730    0.1830   -1.2040 ca        1 F40      0.182400
     13 C3          2.0000   -0.1710   -1.2900 ca        1 F40     -0.189600
     14 C7          4.0640    0.4940   -2.4020 ca        1 F40     -0.123000
     15 C6          3.3990    0.4470   -3.6160 ca        1 F40     -0.095000
     16 C5          2.0440    0.0950   -3.6870 ca        1 F40     -0.153000
     17 C4          1.3460   -0.2120   -2.5280 ca        1 F40     -0.059000
     18 H           1.5710   -0.6460    2.0020 hn        1 F40      0.339500
     19 H9          5.7850   -1.1240    1.7340 ha        1 F40      0.146000
     20 H13         2.4760    1.1300    3.4080 ha        1 F40      0.146000
     21 H10         6.9310   -1.0630    3.9470 ha        1 F40      0.139500
     22 H11         5.8540    0.0840    5.8860 ha        1 F40      0.137000
     23 H12         3.6290    1.1790    5.6080 ha        1 F40      0.139500
     24 H7          5.1280    0.7720   -2.3600 ha        1 F40      0.153000
     25 H4          0.2800   -0.4910   -2.5590 ha        1 F40      0.158000
     26 H6          3.9430    0.6890   -4.5430 ha        1 F40      0.137000
     27 H5          1.5360    0.0650   -4.6620 ha        1 F40      0.140000
@<TRIPOS>BOND
     1    1    2 2   
     2    2    3 1   
     3    2   13 1   
     4    3    4 1   
     5    3   18 1   
     6    4    5 1   
     7    4   11 2   
     8    5    6 ar  
     9    5   10 ar  
    10    6    7 ar  
    11    6   19 1   
    12    7    8 ar  
    13    7   21 1   
    14    8    9 ar  
    15    8   22 1   
    16    9   10 ar  
    17    9   23 1   
    18   10   20 1   
    19   11   12 1   
    20   12   13 ar  
    21   12   14 ar  
    22   13   17 ar  
    23   14   15 ar  
    24   14   24 1   
    25   15   16 ar  
    26   15   26 1   
    27   16   17 ar  
    28   16   27 1   
    29   17   25 1   
@<TRIPOS>SUBSTRUCTURE
     1 F40         1 TEMP              0 ****  ****    0 ROOT
