@<TRIPOS>MOLECULE
F40
   27    23     1     0     0
SMALL
bcc


@<TRIPOS>ATOM
      1 O          -3.4410    0.0890   -0.6600 o         1 F40     -0.349000
      2 C          -2.2270    0.0310   -0.6610 c1        1 F40      0.345000
      3 N          -1.5250    0.0250    0.5530 n2        1 F40     -0.333000
      4 C1         -0.0960    0.0180    0.5510 c2        1 F40      0.166000
      5 C8          0.6610   -0.0090    1.8610 c2        1 F40     -0.066000
      6 C9          1.1210    1.1730    2.4200 c1        1 F40     -0.078000
      7 C10         1.8470    1.1450    3.6000 c1        1 F40     -0.123250
      8 C11         2.1130   -0.0650    4.2220 c1        1 F40     -0.123250
      9 C12         1.6530   -1.2470    3.6630 c1        1 F40     -0.133000
     10 C13         0.9260   -1.2190    2.4830 c2        1 F40     -0.111000
     11 N1          0.6260    0.0180   -0.7000 n1        1 F40     -0.188000
     12 C2         -0.1010    0.0250   -1.9640 c1        1 F40      0.043000
     13 C3         -1.4740    0.0310   -1.9660 c2        1 F40     -0.169000
     14 C7          0.6030    0.0200   -3.1820 c1        1 F40     -0.123000
     15 C6         -0.0890    0.0220   -4.3840 c1        1 F40     -0.123250
     16 C5         -1.4790    0.0280   -4.3850 c1        1 F40     -0.123250
     17 C4         -2.1740    0.0330   -3.1840 c1        1 F40     -0.060000
     18 H          -1.9800    0.0130    1.3430 hn        1 F40      0.253000
     19 H9          0.9340    2.0250    1.9820 ha        1 F40      0.153000
     20 H13         0.6020   -2.0510    2.0900 ha        1 F40      0.139000
     21 H10         2.1720    1.9780    3.9930 ha        1 F40      0.138500
     22 H11         2.6250   -0.0840    5.0530 ha        1 F40      0.138500
     23 H12         1.8400   -2.0990    4.1010 ha        1 F40      0.139000
     24 H7          1.5790    0.0150   -3.1810 ha        1 F40      0.153000
     25 H4         -3.1510    0.0380   -3.1860 ha        1 F40      0.158000
     26 H6          0.4000    0.0180   -5.2290 ha        1 F40      0.138500
     27 H5         -1.9650    0.0290   -5.2310 ha        1 F40      0.138500
@<TRIPOS>BOND
     1    1    2 1   
     2    2   13 1   
     3    3    4 1   
     4    3   18 1   
     5    4    5 1   
     6    4   11 1   
     7    5    6 1   
     8    5   10 1   
     9    6   19 1   
    10    7    8 1   
    11    7   21 1   
    12    8   22 1   
    13    9   10 1   
    14    9   23 1   
    15   10   20 1   
    16   12   13 1   
    17   12   14 1   
    18   13   17 1   
    19   14   24 1   
    20   15   16 1   
    21   15   26 1   
    22   16   27 1   
    23   17   25 1   
@<TRIPOS>SUBSTRUCTURE
     1 F40         1 TEMP              0 ****  ****    0 ROOT
