@<TRIPOS>MOLECULE
F41
   37    39     1     0     0
SMALL
bcc


@<TRIPOS>ATOM
      1 C1          1.7670   -0.0780    0.0310 c3        1 F41     -0.080400
      2 C2          2.1760    0.6540    1.2910 c3        1 F41     -0.077400
      3 C3          1.1490    0.4560    2.4050 c3        1 F41      0.167300
      4 N4          0.8540   -0.9490    2.6650 n3        1 F41     -0.742600
      5 C5          0.4840   -1.6870    1.4620 c3        1 F41      0.167300
      6 C6          1.4990   -1.5370    0.3310 c3        1 F41     -0.077400
      7 C7         -0.1210   -1.1110    3.7290 c3        1 F41      0.092800
      8 C8         -0.1320   -2.5210    4.3470 c         1 F41      0.662100
      9 O9         -1.2240   -3.0750    4.5640 o         1 F41     -0.593100
     10 N10         1.0940   -3.0630    4.6910 ns        1 F41     -0.457100
     11 C11         1.3370   -4.3290    5.2510 ca        1 F41      0.072600
     12 C12         0.2860   -5.1190    5.8010 ca        1 F41     -0.137000
     13 C13         0.6560   -6.3290    6.3440 ca        1 F41      0.078100
     14 C14         1.9980   -6.7850    6.3700 ca        1 F41      0.024100
     15 C15         3.0230   -6.0310    5.8420 ca        1 F41     -0.085000
     16 C16         2.6720   -4.7950    5.2800 ca        1 F41     -0.193000
     17 O17        -0.1630   -7.2830    6.9410 os        1 F41     -0.331900
     18 C18         0.6950   -8.3730    7.3520 c3        1 F41      0.321200
     19 O19         2.0510   -8.0360    6.9820 os        1 F41     -0.334900
     20 H1          0.8440    0.3940   -0.3970 hc        1 F41      0.043200
     21 H1A         2.5770    0.0090   -0.7380 hc        1 F41      0.043200
     22 H2          2.2640    1.7520    1.0880 hc        1 F41      0.049450
     23 H2A         3.1790    0.2870    1.6310 hc        1 F41      0.049450
     24 H3          1.5590    0.8990    3.3560 h1        1 F41      0.035700
     25 H3A         0.2130    1.0280    2.1350 h1        1 F41      0.035700
     26 H5         -0.5280   -1.3620    1.0780 h1        1 F41      0.035700
     27 H5A         0.4070   -2.7740    1.7480 h1        1 F41      0.035700
     28 H6          1.0910   -2.0510   -0.5770 hc        1 F41      0.049450
     29 H6A         2.4580   -2.0470    0.6110 hc        1 F41      0.049450
     30 H7          0.1160   -0.3880    4.5610 h1        1 F41      0.068200
     31 H7A        -1.1790   -0.9120    3.3840 h1        1 F41      0.068200
     32 HN10        1.9070   -2.5660    4.3940 hn        1 F41      0.333500
     33 H12        -0.7640   -4.7910    5.7920 ha        1 F41      0.194000
     34 H15         4.0660   -6.3730    5.8560 ha        1 F41      0.154000
     35 H16         3.4810   -4.1820    4.8530 ha        1 F41      0.136000
     36 H18         0.3910   -9.2940    6.7970 h2        1 F41      0.070700
     37 H18A        0.6410   -8.4680    8.4640 h2        1 F41      0.070700
@<TRIPOS>BOND
     1    1    2 1   
     2    1    6 1   
     3    1   20 1   
     4    1   21 1   
     5    2    3 1   
     6    2   22 1   
     7    2   23 1   
     8    3    4 1   
     9    3   24 1   
    10    3   25 1   
    11    4    5 1   
    12    4    7 1   
    13    5    6 1   
    14    5   26 1   
    15    5   27 1   
    16    6   28 1   
    17    6   29 1   
    18    7    8 1   
    19    7   30 1   
    20    7   31 1   
    21    8    9 2   
    22    8   10 1   
    23   10   11 1   
    24   10   32 1   
    25   11   12 ar  
    26   11   16 ar  
    27   12   13 ar  
    28   12   33 1   
    29   13   14 ar  
    30   13   17 1   
    31   14   15 ar  
    32   14   19 1   
    33   15   16 ar  
    34   15   34 1   
    35   16   35 1   
    36   17   18 1   
    37   18   19 1   
    38   18   36 1   
    39   18   37 1   
@<TRIPOS>SUBSTRUCTURE
     1 F41         1 TEMP              0 ****  ****    0 ROOT
