@<TRIPOS>MOLECULE
F41
   37    39     1     0     0
SMALL
bcc


@<TRIPOS>ATOM
      1 C1         -5.4620    0.6040    0.7980 c3        1 F41     -0.080400
      2 C2         -5.2160   -0.8830    0.6590 c3        1 F41     -0.077400
      3 C3         -4.3320   -1.1880   -0.5480 c3        1 F41      0.167300
      4 N4         -3.0860   -0.4290   -0.5500 n3        1 F41     -0.742600
      5 C5         -3.2920    1.0060   -0.3890 c3        1 F41      0.167300
      6 C6         -4.1490    1.3570    0.8250 c3        1 F41     -0.077400
      7 C7         -2.2630   -0.7390   -1.7060 c3        1 F41      0.092800
      8 C8         -0.7860   -0.3370   -1.5370 c         1 F41      0.662100
      9 O9         -0.2060    0.2360   -2.4770 o         1 F41     -0.593100
     10 N10        -0.1670   -0.7070   -0.3550 n         1 F41     -0.457100
     11 C11         1.1580   -0.4420    0.0290 ca        1 F41      0.072600
     12 C12         2.1310    0.0180   -0.9030 ca        1 F41     -0.137000
     13 C13         3.4020    0.2160   -0.4090 ca        1 F41      0.078100
     14 C14         3.7480   -0.0200    0.9450 ca        1 F41      0.024100
     15 C15         2.8160   -0.4660    1.8570 ca        1 F41     -0.085000
     16 C16         1.5140   -0.6710    1.3800 ca        1 F41     -0.193000
     17 O17         4.5270    0.6560   -1.0990 os        1 F41     -0.331900
     18 C18         5.6130    0.6980   -0.1440 c3        1 F41      0.321200
     19 O19         5.0970    0.2680    1.1360 os        1 F41     -0.334900
     20 H1         -6.0850    0.9650   -0.0620 hc        1 F41      0.043200
     21 H1A        -6.0360    0.8070    1.7390 hc        1 F41      0.043200
     22 H2         -4.7300   -1.2730    1.5910 hc        1 F41      0.049450
     23 H2A        -6.1880   -1.4250    0.5280 hc        1 F41      0.049450
     24 H3         -4.0640   -2.2820   -0.5330 h1        1 F41      0.035700
     25 H3A        -4.9290   -0.9950   -1.4880 h1        1 F41      0.035700
     26 H5         -2.2750    1.4780   -0.2720 h1        1 F41      0.035700
     27 H5A        -3.7720    1.4560   -1.3080 h1        1 F41      0.035700
     28 H6         -4.3360    2.4610    0.8160 hc        1 F41      0.049450
     29 H6A        -3.5920    1.1120    1.7660 hc        1 F41      0.049450
     30 H7         -2.2820   -1.8510   -1.8870 h1        1 F41      0.068200
     31 H7A        -2.6220   -0.2250   -2.6460 h1        1 F41      0.068200
     32 HN10       -0.7500   -1.0860    0.3600 hn        1 F41      0.333500
     33 H12         1.8900    0.2130   -1.9590 ha        1 F41      0.194000
     34 H15         3.0720   -0.6510    2.9080 ha        1 F41      0.154000
     35 H16         0.7580   -1.0260    2.0980 ha        1 F41      0.136000
     36 H18         6.4030   -0.0210   -0.4720 h2        1 F41      0.070700
     37 H18A        5.9650    1.7550   -0.0510 h2        1 F41      0.070700
@<TRIPOS>BOND
     1    1    2 1   
     2    1    6 1   
     3    1   20 1   
     4    1   21 1   
     5    2    3 1   
     6    2   22 1   
     7    2   23 1   
     8    3    4 1   
     9    3   24 1   
    10    3   25 1   
    11    4    5 1   
    12    4    7 1   
    13    5    6 1   
    14    5   26 1   
    15    5   27 1   
    16    6   28 1   
    17    6   29 1   
    18    7    8 1   
    19    7   30 1   
    20    7   31 1   
    21    8    9 2   
    22    8   10 1   
    23   10   11 1   
    24   10   32 1   
    25   11   12 ar  
    26   11   16 ar  
    27   12   13 ar  
    28   12   33 1   
    29   13   14 ar  
    30   13   17 1   
    31   14   15 ar  
    32   14   19 1   
    33   15   16 ar  
    34   15   34 1   
    35   16   35 1   
    36   17   18 1   
    37   18   19 1   
    38   18   36 1   
    39   18   37 1   
@<TRIPOS>SUBSTRUCTURE
     1 F41         1 TEMP              0 ****  ****    0 ROOT
