@<TRIPOS>MOLECULE
F41
   37    39     1     0     0
SMALL
bcc


@<TRIPOS>ATOM
      1 C1          1.7190   -0.0610    0.0380 c3        1 F41     -0.080400
      2 C2          2.1230    0.6730    1.2980 c3        1 F41     -0.077400
      3 C3          1.1030    0.4590    2.4150 c3        1 F41      0.167300
      4 N4          0.8250   -0.9500    2.6720 n3        1 F41     -0.742600
      5 C5          0.4610   -1.6890    1.4680 c3        1 F41      0.167300
      6 C6          1.4700   -1.5240    0.3350 c3        1 F41     -0.077400
      7 C7         -0.1450   -1.1270    3.7380 c3        1 F41      0.092800
      8 C8         -0.1360   -2.5390    4.3530 c         1 F41      0.662100
      9 O9         -1.2210   -3.1080    4.5700 o         1 F41     -0.593100
     10 N10         1.0970   -3.0660    4.6920 n         1 F41     -0.457100
     11 C11         1.3580   -4.3300    5.2470 ca        1 F41      0.072600
     12 C12         0.3190   -5.1370    5.7950 ca        1 F41     -0.137000
     13 C13         0.7060   -6.3440    6.3340 ca        1 F41      0.078100
     14 C14         2.0540   -6.7820    6.3570 ca        1 F41      0.024100
     15 C15         3.0680   -6.0110    5.8320 ca        1 F41     -0.085000
     16 C16         2.7000   -4.7790    5.2740 ca        1 F41     -0.193000
     17 O17        -0.1000   -7.3110    6.9280 os        1 F41     -0.331900
     18 C18         0.7740   -8.3900    7.3340 c3        1 F41      0.321200
     19 O19         2.1260   -8.0330    6.9650 os        1 F41     -0.334900
     20 H1          0.7890    0.4010   -0.3860 hc        1 F41      0.043200
     21 H1A         2.5260    0.0390   -0.7340 hc        1 F41      0.043200
     22 H2          3.1310    0.3170    1.6350 hc        1 F41      0.049450
     23 H2A         2.1980    1.7730    1.0980 hc        1 F41      0.049450
     24 H3          0.1580    1.0200    2.1500 h1        1 F41      0.035700
     25 H3A         1.5090    0.9050    3.3660 h1        1 F41      0.035700
     26 H5          0.3970   -2.7780    1.7510 h1        1 F41      0.035700
     27 H5A        -0.5570   -1.3750    1.0880 h1        1 F41      0.035700
     28 H6          2.4350   -2.0230    0.6100 hc        1 F41      0.049450
     29 H6A         1.0660   -2.0390   -0.5740 hc        1 F41      0.049450
     30 H7          0.0860   -0.4040    4.5720 h1        1 F41      0.068200
     31 H7A        -1.2060   -0.9400    3.3970 h1        1 F41      0.068200
     32 HN10        1.9030   -2.5580    4.3950 hn        1 F41      0.333500
     33 H12        -0.7360   -4.8240    5.7880 ha        1 F41      0.194000
     34 H15         4.1160   -6.3390    5.8440 ha        1 F41      0.154000
     35 H16         3.5000   -4.1520    4.8480 ha        1 F41      0.136000
     36 H18         0.7220   -8.4900    8.4460 h2        1 F41      0.070700
     37 H18A        0.4830   -9.3140    6.7760 h2        1 F41      0.070700
@<TRIPOS>BOND
     1    1    2 1   
     2    1    6 1   
     3    1   20 1   
     4    1   21 1   
     5    2    3 1   
     6    2   22 1   
     7    2   23 1   
     8    3    4 1   
     9    3   24 1   
    10    3   25 1   
    11    4    5 1   
    12    4    7 1   
    13    5    6 1   
    14    5   26 1   
    15    5   27 1   
    16    6   28 1   
    17    6   29 1   
    18    7    8 1   
    19    7   30 1   
    20    7   31 1   
    21    8    9 2   
    22    8   10 1   
    23   10   11 1   
    24   10   32 1   
    25   11   12 ar  
    26   11   16 ar  
    27   12   13 ar  
    28   12   33 1   
    29   13   14 ar  
    30   13   17 1   
    31   14   15 ar  
    32   14   19 1   
    33   15   16 ar  
    34   15   34 1   
    35   16   35 1   
    36   17   18 1   
    37   18   19 1   
    38   18   36 1   
    39   18   37 1   
@<TRIPOS>SUBSTRUCTURE
     1 F41         1 TEMP              0 ****  ****    0 ROOT
