@<TRIPOS>MOLECULE
F41
   38    40     1     0     0
SMALL
bcc


@<TRIPOS>ATOM
      1 C1          2.0050    0.3570    1.3550 c3        1 F41     -0.085400
      2 C2          2.5220   -0.4090    2.5530 c3        1 F41     -0.079400
      3 C3          1.3830   -0.8050    3.4910 c3        1 F41      0.166800
      4 N4          0.3080   -1.5190    2.8060 n3        1 F41     -0.786600
      5 C5         -0.1940   -0.8210    1.6240 c3        1 F41      0.166800
      6 C6          0.9150   -0.4240    0.6530 c3        1 F41     -0.079400
      7 C7         -0.7360   -1.9740    3.6880 c3        1 F41      0.119800
      8 C8         -1.0130   -3.4710    3.5760 c         1 F41      0.540100
      9 O9         -2.0470   -4.0350    3.8920 o         1 F41     -0.422100
     10 N10         0.0840   -4.3710    3.0390 n4        1 F41     -0.533200
     11 C11         0.9980   -4.8030    4.0980 ca        1 F41     -0.068400
     12 C12         0.5320   -5.7790    5.0230 ca        1 F41     -0.106000
     13 C13         1.4410   -6.1690    5.9780 ca        1 F41      0.082100
     14 C14         2.7630   -5.6320    6.0410 ca        1 F41      0.121100
     15 C15         3.2060   -4.6820    5.1420 ca        1 F41     -0.112000
     16 C16         2.2930   -4.2680    4.1580 ca        1 F41     -0.088000
     17 O17         1.2730   -7.0920    6.9940 os        1 F41     -0.308900
     18 C18         2.5270   -7.1520    7.7260 c3        1 F41      0.319200
     19 O19         3.4380   -6.2100    7.0930 os        1 F41     -0.303900
     20 H1          1.6030    1.3510    1.6870 hc        1 F41      0.062700
     21 H1A         2.8460    0.5570    0.6420 hc        1 F41      0.062700
     22 H2          3.0690   -1.3260    2.2100 hc        1 F41      0.058450
     23 H2A         3.2450    0.2230    3.1320 hc        1 F41      0.058450
     24 H3          0.9900    0.1270    3.9930 h1        1 F41      0.045950
     25 H3A         1.7890   -1.4850    4.2930 h1        1 F41      0.045950
     26 H5         -0.7640    0.1090    1.9190 h1        1 F41      0.045950
     27 H5A        -0.9130   -1.5120    1.0990 h1        1 F41      0.045950
     28 H6          1.3520   -1.3390    0.1750 hc        1 F41      0.058450
     29 H6A         0.4570    0.1980   -0.1600 hc        1 F41      0.058450
     30 H7         -0.4820   -1.8000    4.7770 h1        1 F41      0.113700
     31 H7A        -1.7350   -1.4780    3.4840 h1        1 F41      0.113700
     32 HN10        0.6150   -3.8680    2.3150 hn        1 F41      0.469800
     33 H12        -0.4850   -6.1970    4.9860 ha        1 F41      0.186000
     34 H15         4.2240   -4.2680    5.1860 ha        1 F41      0.189000
     35 H16         2.6260   -3.5060    3.4300 ha        1 F41      0.164000
     36 H18         2.3430   -6.8160    8.7760 h2        1 F41      0.104200
     37 H18A        2.9520   -8.1800    7.6230 h2        1 F41      0.104200
     38 H102       -0.3440   -5.2100    2.6220 hn        1 F41      0.469800
@<TRIPOS>BOND
     1    1    2 1   
     2    1    6 1   
     3    1   20 1   
     4    1   21 1   
     5    2    3 1   
     6    2   22 1   
     7    2   23 1   
     8    3    4 1   
     9    3   24 1   
    10    3   25 1   
    11    4    5 1   
    12    4    7 1   
    13    5    6 1   
    14    5   26 1   
    15    5   27 1   
    16    6   28 1   
    17    6   29 1   
    18    7    8 1   
    19    7   30 1   
    20    7   31 1   
    21    8    9 2   
    22    8   10 1   
    23   10   11 1   
    24   10   32 1   
    25   10   38 1   
    26   11   12 ar  
    27   11   16 ar  
    28   12   13 ar  
    29   12   33 1   
    30   13   14 ar  
    31   13   17 1   
    32   14   15 ar  
    33   14   19 1   
    34   15   16 ar  
    35   15   34 1   
    36   16   35 1   
    37   17   18 1   
    38   18   19 1   
    39   18   36 1   
    40   18   37 1   
@<TRIPOS>SUBSTRUCTURE
     1 F41         1 TEMP              0 ****  ****    0 ROOT
