@<TRIPOS>MOLECULE
F46
   72    66     1     0     0
SMALL
bcc


@<TRIPOS>ATOM
      1 OAA         5.2690    7.8310    0.7170 o         1 F46     -0.346000
      2 OAB        -1.7760   -0.8610    1.2080 o         1 F46     -0.288000
      3 FAC         7.2910    5.4730    0.5720 f         1 F46     -0.114000
      4 CAD         5.7620   11.4150   -2.5990 c1        1 F46     -0.121000
      5 CAE         5.7350   10.2880   -3.4140 c1        1 F46     -0.121000
      6 CAF         5.6620   11.2790   -1.2190 c1        1 F46     -0.121000
      7 CAG         5.6050    8.9980   -2.8360 c1        1 F46     -0.121000
      8 CAH         5.5320    9.9920   -0.6410 c1        1 F46     -0.076000
      9 CAI         5.0830    2.9000    1.1950 c1        1 F46     -0.200000
     10 CAJ         2.0450    0.6240    1.6090 c1        1 F46     -0.121000
     11 CAK         6.1390    3.7950    1.1880 c1        1 F46     -0.113000
     12 CAL        -3.1080   -4.2100   -1.5910 c1        1 F46     -0.197000
     13 CAM        -2.6140   -3.0600   -2.2050 c1        1 F46     -0.075000
     14 CAN         1.1470   -0.4590    1.7160 c1        1 F46     -0.121000
     15 CAO         3.7810    4.4160   -0.2000 c1        1 F46     -0.190000
     16 CAP         1.7850    0.6100   -0.7990 c1        1 F46     -0.200000
     17 CAQ        -1.6490   -3.8340    0.2930 c1        1 F46     -0.115000
     18 CAR        -7.3140   -7.8910    3.0650 c3        1 F46     -0.023500
     19 CAS        -6.8620   -9.1510    1.1040 c3        1 F46     -0.023500
     20 CAT        -4.3110   -5.9010    0.6990 c3        1 F46     -0.064000
     21 CAU        -6.6140   -6.6780    2.4430 c3        1 F46     -0.105000
     22 CAV        -6.1590   -7.9340    0.4810 c3        1 F46     -0.105000
     23 CAW        -5.8350   -5.5990    0.4850 c3        1 F46     -0.093000
     24 CAX        -0.6930   -1.2890   -2.2200 c3        1 F46      0.020000
     25 NAY         5.0150    6.4010   -1.0500 n         1 F46     -0.321000
     26 NAZ         2.6800    2.5340    0.8970 n3        1 F46     -0.264000
     27 OBA        -6.8380   -9.1200    2.5360 os        1 F46     -0.272000
     28 OBB        -3.5800   -4.6840    0.6920 os        1 F46     -0.208000
     29 OBC         0.6090   -1.4330   -1.7300 os        1 F46     -0.205000
     30 CBD         5.2280    7.6730   -0.5180 c2        1 F46      0.359000
     31 CBE        -0.9060   -1.4530    0.6090 c1        1 F46      0.318000
     32 CBF         3.8900    3.2080    0.4960 c1        1 F46      0.109000
     33 CBG         2.3590    1.1540    0.3490 c1        1 F46      0.109000
     34 CBH         6.0270    5.0160    0.4840 c2        1 F46      0.005000
     35 CBI        -2.6260   -4.5950   -0.3460 c1        1 F46      0.085000
     36 CBJ         5.5050    8.8620   -1.4550 c1        1 F46     -0.129000
     37 CBK        -1.6340   -2.2950   -1.5650 c2        1 F46     -0.127000
     38 CBL         4.8510    5.3210   -0.2060 c2        1 F46      0.080000
     39 CBM         0.8770   -0.4840   -0.6940 c1        1 F46      0.167000
     40 CBN         0.5650   -1.0100    0.5530 c1        1 F46     -0.251000
     41 CBO        -1.1530   -2.6880   -0.3120 c2        1 F46     -0.084000
     42 NBP        -6.6370   -6.7060    1.0110 n3        1 F46     -0.252000
     43 HAD         5.8550   12.3330   -3.0090 ha        1 F46      0.142000
     44 HAE         5.8060   10.3840   -4.3950 ha        1 F46      0.142000
     45 HAF         5.6820   12.0900   -0.6380 ha        1 F46      0.142000
     46 HAG         5.5850    8.1590   -3.4420 ha        1 F46      0.142000
     47 HAH         5.4650    9.9010    0.2820 ha        1 F46      0.155000
     48 HAI         5.1650    2.0180    1.7050 ha        1 F46      0.159000
     49 HAJ         2.4420    1.0020    2.4040 ha        1 F46      0.142000
     50 HAK         6.9570    3.5830    1.6700 ha        1 F46      0.152000
     51 HAL        -3.7950   -4.7500   -2.0380 ha        1 F46      0.141000
     52 HAM        -2.9690   -2.7740   -3.1210 ha        1 F46      0.138000
     53 HAN         0.9110   -0.8560    2.6570 ha        1 F46      0.142000
     54 HAO         2.9360    4.6370   -0.6950 ha        1 F46      0.178000
     55 HAP         2.0090    0.9870   -1.6940 ha        1 F46      0.159000
     56 HAQ        -1.3190   -4.1040    1.1570 ha        1 F46      0.165000
     57 HAR        -7.1620   -7.8810    4.0090 h1        1 F46      0.093500
     58 HARA       -8.3240   -7.8220    2.8890 h1        1 F46      0.093500
     59 HAS        -7.8320   -9.1690    0.7920 h1        1 F46      0.093500
     60 HASA       -6.3960  -10.0020    0.7830 h1        1 F46      0.093500
     61 HAT        -3.9740   -6.5050   -0.0570 h1        1 F46      0.103500
     62 HATA       -4.1820   -6.3640    1.5840 h1        1 F46      0.103500
     63 HAU        -7.0720   -5.8390    2.7610 h1        1 F46      0.083750
     64 HAUA       -5.6850   -6.6640    2.7430 h1        1 F46      0.083750
     65 HAV        -5.2060   -8.0000    0.6520 h1        1 F46      0.083750
     66 HAVA       -6.3110   -7.9410   -0.4990 h1        1 F46      0.083750
     67 HAW        -6.0650   -4.8000    0.9380 h1        1 F46      0.102000
     68 HAWA       -6.0190   -5.4920   -0.4940 h1        1 F46      0.102000
     69 HAX        -0.6900   -1.4360   -3.2070 h1        1 F46      0.109000
     70 HAXA       -1.0070   -0.3900   -2.0340 h1        1 F46      0.109000
     71 HNAY        4.9690    6.2890   -1.9270 hn        1 F46      0.245000
     72 HNAZ        2.0940    2.9510    1.4250 hn        1 F46      0.232000
@<TRIPOS>BOND
     1    1   30 1   
     2    2   31 1   
     3    3   34 1   
     4    4    6 1   
     5    4   43 1   
     6    5    7 1   
     7    5   44 1   
     8    6   45 1   
     9    7   46 1   
    10    8   36 1   
    11    8   47 1   
    12    9   32 1   
    13    9   48 1   
    14   10   14 1   
    15   10   49 1   
    16   11   34 1   
    17   11   50 1   
    18   12   35 1   
    19   12   51 1   
    20   13   37 1   
    21   13   52 1   
    22   14   53 1   
    23   15   38 1   
    24   15   54 1   
    25   16   33 1   
    26   16   55 1   
    27   17   41 1   
    28   17   56 1   
    29   18   21 1   
    30   18   27 1   
    31   18   57 1   
    32   18   58 1   
    33   19   22 1   
    34   19   27 1   
    35   19   59 1   
    36   19   60 1   
    37   20   23 1   
    38   20   28 1   
    39   20   61 1   
    40   20   62 1   
    41   21   42 1   
    42   21   63 1   
    43   21   64 1   
    44   22   42 1   
    45   22   65 1   
    46   22   66 1   
    47   23   42 1   
    48   23   67 1   
    49   23   68 1   
    50   24   29 1   
    51   24   37 1   
    52   24   69 1   
    53   24   70 1   
    54   25   30 1   
    55   25   38 1   
    56   25   71 1   
    57   26   32 1   
    58   26   33 1   
    59   26   72 1   
    60   28   35 1   
    61   29   39 1   
    62   30   36 1   
    63   31   41 1   
    64   34   38 1   
    65   37   41 1   
    66   39   40 1   
@<TRIPOS>SUBSTRUCTURE
     1 F46         1 TEMP              0 ****  ****    0 ROOT
