@<TRIPOS>MOLECULE
F46
   72    77     1     0     0
SMALL
bcc


@<TRIPOS>ATOM
      1 OAA        -6.4220    0.7870    1.7360 o         1 F46     -0.586100
      2 CAD       -10.5960    3.5550    1.4040 ca        1 F46     -0.105000
      3 CAE        -9.3660    3.8680    1.9820 ca        1 F46     -0.136000
      4 CAF       -10.7270    2.4100    0.6180 ca        1 F46     -0.136000
      5 CAG        -8.2640    3.0400    1.7730 ca        1 F46     -0.089500
      6 CAH        -9.6280    1.5800    0.3990 ca        1 F46     -0.089500
      7 CAI        -3.9450   -1.9990   -1.9790 ca        1 F46     -0.163000
      8 CAJ        -1.0190   -1.6150   -1.1390 ca        1 F46     -0.205000
      9 CAK        -4.9420   -1.5210   -2.8160 ca        1 F46     -0.112000
     10 CAL         5.5680   -1.0620    2.0960 ca        1 F46     -0.180000
     11 CAM         4.4220   -1.6850    2.5740 ca        1 F46     -0.109000
     12 CAN         0.3470   -1.7150   -1.3630 ca        1 F46     -0.038000
     13 CAO        -4.9370   -0.7740   -0.1190 ca        1 F46     -0.195000
     14 CAP        -0.7580   -2.8030    0.9690 ca        1 F46     -0.205000
     15 CAQ         4.7550   -1.4130   -0.1670 ca        1 F46     -0.115000
     16 CAR         8.6790    4.0590   -1.9900 c3        1 F46      0.126400
     17 CAS         8.6590    4.6520    0.2950 c3        1 F46      0.126400
     18 CAT         7.8000    0.2340    0.9780 c3        1 F46      0.128400
     19 CAU         8.9860    2.5980   -1.6400 c3        1 F46      0.137300
     20 CAV         8.9700    3.2070    0.7000 c3        1 F46      0.137300
     21 CAW         8.8520    0.8710    0.0580 c3        1 F46      0.171800
     22 CAX         2.2620   -2.8020    2.4100 c3        1 F46      0.179700
     23 NAY        -6.9890    0.5480   -0.4990 n         1 F46     -0.467100
     24 OBA         9.1690    4.9540   -0.9980 os        1 F46     -0.415600
     25 OBC         1.3920   -3.6030    1.6160 os        1 F46     -0.331900
     26 CBD        -7.1910    1.0320    0.7890 c         1 F46      0.686700
     27 CBE         2.6310   -2.4670   -0.7110 c         1 F46      0.605300
     28 CBF        -3.9280   -1.6260   -0.6190 ca        1 F46      0.161600
     29 CBG        -1.6030   -2.1750    0.0210 ca        1 F46      0.196600
     30 CBH        -5.9470   -0.6770   -2.3290 ca        1 F46      0.037900
     31 CBI         5.7350   -0.9260    0.7120 ca        1 F46      0.122100
     32 CBJ        -8.3930    1.8990    0.9720 ca        1 F46     -0.149600
     33 CBK         3.4240   -2.1730    1.7130 ca        1 F46     -0.107300
     34 CBL        -5.9620   -0.2910   -0.9510 ca        1 F46      0.075600
     35 CBM         0.6130   -2.8760    0.7250 ca        1 F46      0.161100
     36 CBN         1.1880   -2.3370   -0.4330 ca        1 F46     -0.215600
     37 CBO         3.5960   -2.0260    0.3300 ca        1 F46     -0.107600
     38 NBP         8.5360    2.2430   -0.3010 n3        1 F46     -0.732600
     39 HAD       -11.4650    4.2090    1.5720 ha        1 F46      0.138000
     40 HAE        -9.2630    4.7670    2.6090 ha        1 F46      0.140000
     41 HAF       -11.7000    2.1580    0.1700 ha        1 F46      0.140000
     42 HAG        -7.2930    3.2680    2.2400 ha        1 F46      0.146500
     43 HAH        -9.7490    0.6710   -0.2090 ha        1 F46      0.146500
     44 HAI        -3.1790   -2.6810   -2.3810 ha        1 F46      0.156000
     45 HAJ        -1.6440   -1.0880   -1.8770 ha        1 F46      0.149000
     46 HAK        -4.9570   -1.8090   -3.8790 ha        1 F46      0.153000
     47 HAL         6.3240   -0.6920    2.8020 ha        1 F46      0.140000
     48 HAM         4.2930   -1.8020    3.6630 ha        1 F46      0.133000
     49 HAN         0.7830   -1.3010   -2.2860 ha        1 F46      0.149000
     50 HAO        -4.9230   -0.4860    0.9470 ha        1 F46      0.180000
     51 HAP        -1.1640   -3.2570    1.8850 ha        1 F46      0.153000
     52 HAQ         4.9070   -1.3190   -1.2540 ha        1 F46      0.169000
     53 HARA        7.5750    4.2110   -2.1190 h1        1 F46      0.054950
     54 HAS         7.5530    4.8400    0.3160 h1        1 F46      0.054950
     55 HASA        9.1870    5.3670    0.9780 h1        1 F46      0.054950
     56 HAT         8.2760   -0.5790    1.5870 h1        1 F46      0.044200
     57 HATA        7.3070    0.9790    1.6550 h1        1 F46      0.044200
     58 HAU         8.4460    1.9350   -2.3720 h1        1 F46      0.040200
     59 HAUA       10.0950    2.4280   -1.7640 h1        1 F46      0.040200
     60 HAV        10.0790    3.1260    0.9020 h1        1 F46      0.040200
     61 HAVA        8.4270    2.9770    1.6580 h1        1 F46      0.040200
     62 HAW         9.8470    0.7940    0.5870 h1        1 F46      0.051700
     63 HAWA        8.9100    0.2450   -0.8780 h1        1 F46      0.051700
     64 HAX         1.6660   -2.0010    2.9280 h1        1 F46      0.064700
     65 HAXA        2.6350   -3.5460    3.1730 h1        1 F46      0.064700
     66 HNAY       -7.6410    0.8350   -1.1980 hn        1 F46      0.331500
     67 FAC        -6.9090   -0.2310   -3.1790 f         1 F46     -0.148900
     68 NAZ        -2.9800   -2.1610    0.2710 nh        1 F46     -0.633000
     69 OAB         3.0310   -2.8670   -1.8120 o         1 F46     -0.521100
     70 OBB         6.8280   -0.3480    0.1020 os        1 F46     -0.319900
     71 HAR         9.2220    4.3530   -2.9260 h1        1 F46      0.054950
     72 HNAZ       -3.2340   -2.1150    1.2360 hn        1 F46      0.433800
@<TRIPOS>BOND
     1    1   26 2   
     2    2    3 ar  
     3    2    4 ar  
     4    2   39 1   
     5    3    5 ar  
     6    3   40 1   
     7    4    6 ar  
     8    4   41 1   
     9    5   32 ar  
    10    5   42 1   
    11    6   32 ar  
    12    6   43 1   
    13    7    9 ar  
    14    7   28 ar  
    15    7   44 1   
    16    8   12 ar  
    17    8   29 ar  
    18    8   45 1   
    19    9   30 ar  
    20    9   46 1   
    21   10   11 ar  
    22   10   31 ar  
    23   10   47 1   
    24   11   33 ar  
    25   11   48 1   
    26   12   36 ar  
    27   12   49 1   
    28   13   28 ar  
    29   13   34 ar  
    30   13   50 1   
    31   14   29 ar  
    32   14   35 ar  
    33   14   51 1   
    34   15   31 ar  
    35   15   37 ar  
    36   15   52 1   
    37   16   19 1   
    38   16   24 1   
    39   16   53 1   
    40   16   71 1   
    41   17   20 1   
    42   17   24 1   
    43   17   54 1   
    44   17   55 1   
    45   18   21 1   
    46   18   56 1   
    47   18   57 1   
    48   18   70 1   
    49   19   38 1   
    50   19   58 1   
    51   19   59 1   
    52   20   38 1   
    53   20   60 1   
    54   20   61 1   
    55   21   38 1   
    56   21   62 1   
    57   21   63 1   
    58   22   25 1   
    59   22   33 1   
    60   22   64 1   
    61   22   65 1   
    62   23   26 1   
    63   23   34 1   
    64   23   66 1   
    65   25   35 1   
    66   26   32 1   
    67   27   36 1   
    68   27   37 1   
    69   27   69 2   
    70   28   68 1   
    71   29   68 1   
    72   30   34 ar  
    73   30   67 1   
    74   31   70 1   
    75   33   37 ar  
    76   35   36 ar  
    77   68   72 1   
@<TRIPOS>SUBSTRUCTURE
     1 F46         1 TEMP              0 ****  ****    0 ROOT
