@<TRIPOS>MOLECULE
F46
   72    71     1     0     0
SMALL
bcc


@<TRIPOS>ATOM
      1 OAA        -0.3730   -1.3490   -2.4540 o         1 F46     -0.382000
      2 CAD         0.6020   -2.9650    3.1450 c1        1 F46     -0.584000
      3 CAE         1.1040   -3.2830    4.2770 c1        1 F46      0.215000
      4 CAF         0.0590   -2.6390    1.9880 c2        1 F46      0.181000
      5 CAG        -0.9000   -3.5460   -0.6160 c2        1 F46     -0.129000
      6 CAH         0.8540   -2.4130    0.7540 c3        1 F46     -0.153000
      7 CAI         3.4450    0.6410   -5.3130 c1        1 F46      0.232000
      8 CAJ        -4.3620   -0.9190   -4.7740 ca        1 F46     -0.217000
      9 CAK         4.1370   -0.0130   -4.4000 c2        1 F46     -0.455000
     10 CAL       -10.9790   -3.6620   -7.3800 c2        1 F46     -0.061000
     11 CAM       -10.7580   -3.8000   -8.6650 c1        1 F46     -0.095000
     12 CAN        -5.7030   -1.2400   -4.7250 ca        1 F46     -0.017000
     13 CAO        -0.3160    0.1400   -4.6220 c1        1 F46      0.166000
     14 CAP        -4.9370    1.2190   -5.7770 ca        1 F46     -0.245000
     15 CAQ        -9.6160   -1.6100   -7.0430 c2        1 F46     -0.242000
     16 CAR        -7.7290   -5.8580   -2.1640 c3        1 F46      0.070000
     17 CAS        -8.8080   -4.1420   -0.8500 c1        1 F46      0.010000
     18 CAT       -10.5640   -3.9650   -9.9020 c1        1 F46     -0.112000
     19 CAU        -8.8300   -5.7000   -3.0830 c2        1 F46     -0.818000
     20 CAV        -9.6160   -3.6990   -2.0440 c3        1 F46     -0.233000
     21 CAW       -10.3650   -4.1400  -11.1780 c2        1 F46     -0.120000
     22 CAX        -8.4950    1.8460   -5.8720 c3        1 F46     -0.003000
     23 NAY         1.8410   -1.6750   -1.9230 n         1 F46     -0.307000
     24 OBA        -7.9800   -5.1160   -0.8950 os        1 F46     -0.143000
     25 OBC        -7.1070    1.8760   -6.2060 os        1 F46     -0.202000
     26 CBD         0.4840   -1.8450   -1.6940 c2        1 F46      0.358000
     27 CBE        -8.0780   -0.8960   -5.1770 c2        1 F46      0.339000
     28 CBF        -1.6430    0.1280   -4.5940 c2        1 F46     -0.352000
     29 CBG        -3.9490    0.3240   -5.3200 ca        1 F46      0.135000
     30 CBH         3.6700   -0.7850   -3.2640 c2        1 F46      0.048000
     31 CBI       -10.4020   -2.6000   -6.5630 c2        1 F46      0.116000
     32 CBJ         0.0930   -2.6570   -0.5010 c2        1 F46     -0.171000
     33 CBK        -9.2090    0.7580   -6.5920 c2        1 F46     -0.150000
     34 CBL         2.3380   -0.9510   -3.0020 c2        1 F46     -0.077000
     35 CBM        -6.2980    0.8680   -5.7240 ca        1 F46      0.172000
     36 CBN        -6.7060   -0.3780   -5.2180 ca        1 F46     -0.260000
     37 CBO        -9.0040   -0.5330   -6.2870 c2        1 F46     -0.103000
     38 NBP        -9.3230   -4.3900   -3.3370 n4        1 F46      0.135000
     39 HAD         1.7750   -3.0630    0.7640 hc        1 F46      0.132000
     40 HAE        -1.2320   -4.1710    0.2240 ha        1 F46      0.138000
     41 HAF         1.2090   -1.3420    0.7920 hc        1 F46      0.132000
     42 HAG        -1.4390   -3.6950   -1.5630 ha        1 F46      0.138000
     43 HAH        -1.0360   -2.4940    1.8930 ha        1 F46      0.135000
     44 HAI        -2.0250   -0.4550   -3.7080 h4        1 F46      0.215000
     45 HAJ        -3.6190   -1.6420   -4.4060 ha        1 F46      0.151000
     46 HAK         5.2460    0.0280   -4.5090 ha        1 F46      0.209000
     47 HAL       -11.6370   -4.3720   -6.8430 ha        1 F46      0.163000
     48 HAM        -9.9000    1.0600   -7.3930 ha        1 F46      0.151000
     49 HAN        -6.0160   -2.2070   -4.2910 ha        1 F46      0.154000
     50 HAO         1.5700   -0.4940   -3.6680 h4        1 F46      0.216000
     51 HAP        -4.6720    2.2050   -6.1870 ha        1 F46      0.156000
     52 HAQ        -9.4080   -1.5860   -8.1280 ha        1 F46      0.160000
     53 HARA       -6.7460   -5.4230   -2.5010 h1        1 F46      0.074500
     54 HAS        -6.8550   -3.1350   -2.1770 ha        1 F46      0.002000
     55 HASA       -7.0880   -2.5330   -2.3840 ha        1 F46      0.002000
     56 HAT       -10.4540   -1.9740   -4.7430 ho        1 F46      0.244000
     57 HATA      -10.1680   -4.4410   -3.9090 hn        1 F46      0.197500
     58 HAU        -9.3280   -6.5320   -3.5690 hx        1 F46      0.157000
     59 HAUA       -8.6330   -3.8270   -3.8530 hn        1 F46      0.197500
     60 HAV       -10.6940   -3.8820   -1.7720 hx        1 F46      0.136000
     61 HAVA       -9.4530   -2.5910   -2.1780 hx        1 F46      0.136000
     62 HAW        -9.7190   -3.4710  -11.7650 ha        1 F46      0.138500
     63 HAWA      -10.8320   -4.9670  -11.7320 ha        1 F46      0.138500
     64 HAX        -8.6200    1.7490   -4.7600 h1        1 F46      0.112000
     65 HAXA       -8.8460    2.8620   -6.2070 h1        1 F46      0.112000
     66 HNAY        2.4930   -2.1150   -1.3120 hn        1 F46      0.240000
     67 FAC         4.6330   -1.3330   -2.4740 f         1 F46     -0.118000
     68 NAZ        -2.5970    0.6450   -5.4780 nh        1 F46     -0.206000
     69 OAB        -8.4530   -1.6670   -4.2740 o         1 F46     -0.359000
     70 OBB       -10.7740   -2.7430   -5.2430 oh        1 F46     -0.290000
     71 HAR        -7.5960   -6.9210   -1.8460 h1        1 F46      0.074500
     72 HNAZ       -2.4200    1.5850   -5.7700 hn        1 F46      0.217000
@<TRIPOS>BOND
     1    1   26 1   
     2    2    3 1   
     3    2    4 1   
     4    4    6 1   
     5    4   43 1   
     6    5   32 1   
     7    5   40 1   
     8    5   42 1   
     9    6   32 1   
    10    6   39 1   
    11    6   41 1   
    12    7    9 1   
    13    8   12 1   
    14    8   29 1   
    15    8   45 1   
    16    9   30 1   
    17    9   46 1   
    18   10   11 1   
    19   10   31 1   
    20   10   47 1   
    21   11   18 1   
    22   12   36 1   
    23   12   49 1   
    24   13   28 1   
    25   14   29 1   
    26   14   35 1   
    27   14   51 1   
    28   15   31 1   
    29   15   37 1   
    30   15   52 1   
    31   16   19 1   
    32   16   24 1   
    33   16   53 1   
    34   16   71 1   
    35   17   20 1   
    36   17   24 1   
    37   18   21 1   
    38   19   38 1   
    39   19   58 1   
    40   20   38 1   
    41   20   60 1   
    42   20   61 1   
    43   21   62 1   
    44   21   63 1   
    45   22   25 1   
    46   22   33 1   
    47   22   64 1   
    48   22   65 1   
    49   23   26 1   
    50   23   34 1   
    51   23   66 1   
    52   25   35 1   
    53   26   32 1   
    54   27   36 1   
    55   27   37 1   
    56   27   69 1   
    57   28   44 1   
    58   28   68 1   
    59   29   68 1   
    60   30   34 1   
    61   30   67 1   
    62   31   70 1   
    63   33   37 1   
    64   33   48 1   
    65   34   50 1   
    66   35   36 1   
    67   38   57 1   
    68   38   59 1   
    69   54   55 1   
    70   56   70 1   
    71   68   72 1   
@<TRIPOS>SUBSTRUCTURE
     1 F46         1 TEMP              0 ****  ****    0 ROOT
