@<TRIPOS>MOLECULE
F46
   72    72     1     0     0
SMALL
bcc


@<TRIPOS>ATOM
      1 OAA        -0.1970    0.4930   -0.5220 o         1 F46     -0.347000
      2 CAD         3.3980    2.6820    1.7340 c2        1 F46     -0.468000
      3 CAE         4.1470    3.5820    2.3370 c1        1 F46      0.224000
      4 CAF         3.8190    1.4630    1.0870 c2        1 F46     -0.047000
      5 CAG         1.0310    0.7090    2.2230 c2        1 F46     -0.153000
      6 CAH         3.0170    0.4320    0.7760 c2        1 F46     -0.148000
      7 CAI         0.0600   -0.5510   -4.8450 c2        1 F46     -0.018000
      8 CAJ        -2.9880   -0.9640   -5.3180 ca        1 F46     -0.211000
      9 CAK         0.9880   -1.3610   -5.2700 c1        1 F46     -0.228000
     10 CAL       -10.0330   -3.8460   -7.1680 c2        1 F46     -0.076000
     11 CAM       -10.2450   -3.6050   -8.4390 c1        1 F46     -0.088000
     12 CAN        -4.1320   -1.0620   -6.0960 ca        1 F46     -0.035000
     13 CAO        -0.1370   -1.4640   -2.5930 c1        1 F46     -0.264000
     14 CAP        -4.1860    0.4570   -3.7450 ca        1 F46     -0.213000
     15 CAQ        -8.5810   -1.8710   -6.7310 c2        1 F46     -0.218000
     16 CAR       -12.2310   -7.4540   -5.3060 c3        1 F46      0.062000
     17 CAS       -12.9700   -5.4830   -4.1360 c1        1 F46      0.017000
     18 CAT       -10.4710   -3.4050   -9.6650 c1        1 F46     -0.113000
     19 CAU       -10.9380   -6.8070   -5.3670 c2        1 F46     -0.813000
     20 CAV       -11.5500   -5.1260   -3.7840 c3        1 F46     -0.226000
     21 CAW       -10.7060   -3.2000  -10.9310 c2        1 F46     -0.122000
     22 CAX        -7.5530    0.3570   -3.7360 c3        1 F46      0.010000
     23 NAY         0.9860   -1.4830   -0.4630 ns        1 F46     -0.336000
     24 OBA       -13.2760   -6.5110   -4.8310 os        1 F46     -0.128000
     25 OBC        -6.4290    1.1010   -4.1980 os        1 F46     -0.215000
     26 CBD         0.7310   -0.1830   -0.0410 c2        1 F46      0.346000
     27 CBE        -6.5190   -0.5400   -6.5730 c2        1 F46      0.323000
     28 CBF        -0.6460   -0.7240   -3.5620 c2        1 F46      0.146000
     29 CBG        -2.9860   -0.1890   -4.1330 ca        1 F46      0.121000
     30 CBH         1.8850   -2.1920   -5.7440 c2        1 F46      0.061000
     31 CBI        -9.2160   -2.9910   -6.3160 c2        1 F46      0.087000
     32 CBJ         1.5970    0.3420    1.0660 c2        1 F46     -0.119000
     33 CBK        -8.1970   -0.5630   -4.7020 c2        1 F46     -0.175000
     34 CBL         0.3380   -2.0910   -1.5450 c2        1 F46      0.059000
     35 CBM        -5.3240    0.3340   -4.5420 ca        1 F46      0.117000
     36 CBN        -5.3220   -0.4310   -5.7190 ca        1 F46     -0.211000
     37 CBO        -7.7800   -0.9760   -5.9110 c2        1 F46     -0.097000
     38 NBP       -10.4810   -6.0640   -4.2440 ny        1 F46      0.132000
     39 HAD         2.3000    2.8880    1.7030 ha        1 F46      0.205000
     40 HAE         1.6210    1.1010    3.0620 ha        1 F46      0.132000
     41 HAF         3.4490   -0.4310    0.2380 ha        1 F46      0.132000
     42 HAG        -0.0520    0.6300    2.3930 ha        1 F46      0.132000
     43 HAH         4.8910    1.4120    0.8200 ha        1 F46      0.134000
     44 HAI        -0.2320    0.3320   -5.4470 ha        1 F46      0.164000
     45 HAJ        -2.0740   -1.4890   -5.6370 ha        1 F46      0.146000
     46 HAK         1.6220   -3.0460   -6.3960 h4        1 F46      0.156000
     47 HAL       -10.4880   -4.7370   -6.6830 ha        1 F46      0.188000
     48 HAM        -9.1790   -0.9220   -4.3330 ha        1 F46      0.135000
     49 HAN        -4.1100   -1.6440   -7.0330 ha        1 F46      0.148000
     50 HAO         0.2590   -3.1940   -1.4520 h4        1 F46      0.152000
     51 HAP        -4.2310    1.0830   -2.8410 ha        1 F46      0.155000
     52 HAQ        -8.6370   -1.5900   -7.8000 ha        1 F46      0.178000
     53 HARA      -12.3180   -8.3020   -4.5690 h1        1 F46      0.080500
     54 HAS       -12.4560   -7.3140   -2.4400 ha        1 F46      0.000500
     55 HASA      -12.1000   -7.6550   -1.9760 ha        1 F46      0.000500
     56 HAT        -8.4630   -3.0010   -4.5490 ho        1 F46      0.226000
     57 HATA       -9.6510   -5.5330   -4.5200 hn        1 F46      0.178500
     58 HAU       -10.2200   -6.6790   -3.4590 hn        1 F46      0.178500
     59 HAUA      -10.2370   -6.9760   -6.1780 hx        1 F46      0.159000
     60 HAV       -11.4940   -5.0180   -2.6650 hx        1 F46      0.139000
     61 HAVA      -11.3560   -4.1190   -4.2590 hx        1 F46      0.139000
     62 HAW       -11.3360   -3.8790  -11.5240 ha        1 F46      0.136500
     63 HAWA      -10.2870   -2.3370  -11.4690 ha        1 F46      0.136500
     64 HAX        -8.2790    1.1740   -3.4520 h1        1 F46      0.107500
     65 HAXA       -7.2630   -0.2230   -2.8150 h1        1 F46      0.107500
     66 HNAY        1.7240   -1.9900   -0.0330 hn        1 F46      0.237000
     67 FAC         3.2110   -2.0930   -5.5000 f         1 F46     -0.109000
     68 NAZ        -1.8410    0.0040   -3.3610 nu        1 F46     -0.261000
     69 OAB        -6.4710   -0.3380   -7.7920 o         1 F46     -0.272000
     70 OBB        -9.1720   -3.4700   -5.0150 oh        1 F46     -0.305000
     71 HAR       -12.5800   -7.7780   -6.3170 h1        1 F46      0.080500
     72 HNAZ       -1.9880    0.2920   -2.4130 hn        1 F46      0.246000
@<TRIPOS>BOND
     1    1   26 1   
     2    2    3 1   
     3    2    4 1   
     4    2   39 1   
     5    4    6 1   
     6    4   43 1   
     7    5   32 1   
     8    5   40 1   
     9    5   42 1   
    10    6   32 1   
    11    6   41 1   
    12    7    9 1   
    13    7   28 1   
    14    7   44 1   
    15    8   12 1   
    16    8   29 1   
    17    8   45 1   
    18    9   30 1   
    19   10   11 1   
    20   10   31 1   
    21   10   47 1   
    22   11   18 1   
    23   12   36 1   
    24   12   49 1   
    25   13   28 1   
    26   13   34 1   
    27   14   29 1   
    28   14   35 1   
    29   14   51 1   
    30   15   31 1   
    31   15   37 1   
    32   15   52 1   
    33   16   19 1   
    34   16   24 1   
    35   16   53 1   
    36   16   71 1   
    37   17   20 1   
    38   17   24 1   
    39   18   21 1   
    40   19   38 1   
    41   19   59 1   
    42   20   38 1   
    43   20   60 1   
    44   20   61 1   
    45   21   62 1   
    46   21   63 1   
    47   22   25 1   
    48   22   33 1   
    49   22   64 1   
    50   22   65 1   
    51   23   26 1   
    52   23   34 1   
    53   23   66 1   
    54   25   35 1   
    55   26   32 1   
    56   27   36 1   
    57   27   37 1   
    58   27   69 1   
    59   28   68 1   
    60   29   68 1   
    61   30   46 1   
    62   30   67 1   
    63   31   70 1   
    64   33   37 1   
    65   33   48 1   
    66   34   50 1   
    67   35   36 1   
    68   38   57 1   
    69   38   58 1   
    70   54   55 1   
    71   56   70 1   
    72   68   72 1   
@<TRIPOS>SUBSTRUCTURE
     1 F46         1 TEMP              0 ****  ****    0 ROOT
