@<TRIPOS>MOLECULE
F47
   36    35     1     0     0
SMALL
bcc


@<TRIPOS>ATOM
      1 F24         0.9100   -1.6870    2.7610 f         1 F47     -0.105000
      2 N5          7.7450    0.1170    1.0720 na        1 F47     -0.126000
      3 N7          9.8310    0.4200    1.9660 n2        1 F47     -0.042000
      4 C18         4.2020   -0.5000    1.3400 c1        1 F47     -0.165000
      5 C23         3.0320   -0.5710    1.0780 c1        1 F47     -0.018000
      6 C22         1.6760   -0.6420    0.7530 c2        1 F47     -0.155000
      7 C1          5.5660   -0.4310    1.6830 c2        1 F47      0.038000
      8 C2          7.5290    0.5980    4.6400 c1        1 F47      0.206000
      9 C6          8.4940    0.3300    2.2930 c2        1 F47      0.042000
     10 C11         7.8770    1.1330   -1.9870 c2        1 F47     -0.112000
     11 C13        11.1290    3.0320   -3.7370 c1        1 F47     -0.220000
     12 N3          7.9280    0.4590    3.5320 n2        1 F47     -0.283000
     13 C15         8.8140    2.3370   -4.0960 c2        1 F47     -0.100000
     14 C12        12.2300    2.6600   -3.4560 c1        1 F47     -0.164000
     15 C14         9.7890    3.4820   -4.0460 c3        1 F47      0.184000
     16 O17         9.7150    4.1160   -5.3250 oh        1 F47     -0.323000
     17 C16         8.3590    1.7370   -3.0350 c1        1 F47     -0.153000
     18 C9          8.7570    0.1040    0.0640 c2        1 F47     -0.010000
     19 N4          6.4380    0.0180    0.8130 n2        1 F47     -0.033000
     20 N8          9.9680    0.2810    0.6670 n2        1 F47     -0.080000
     21 C19         1.1700    1.2990   -3.4450 c2        1 F47     -0.536000
     22 C20         1.0260    0.7020   -2.2970 c1        1 F47      0.147000
     23 C21         0.7070   -1.1600    1.5410 c2        1 F47      0.045000
     24 H22         1.3930   -0.2320   -0.2420 ha        1 F47      0.201000
     25 H20        -0.3520   -1.1860    1.2230 h4        1 F47      0.153000
     26 H23         0.3550    1.4310   -4.1750 ha        1 F47      0.198000
     27 H19         2.1250    1.7280   -3.7920 ha        1 F47      0.198000
     28 H2          5.7870   -0.7810    2.7170 h4        1 F47      0.155000
     29 H101        7.7910   -0.9530   -1.5320 hc        1 F47      0.123000
     30 H102        9.4620   -0.3370   -1.9000 hc        1 F47      0.123000
     31 H12        13.2060    2.3300   -3.2000 ha        1 F47      0.227000
     32 H16         6.9550    1.4990   -1.4990 ha        1 F47      0.154000
     33 H13         9.4640    4.2310   -3.2600 h1        1 F47      0.102000
     34 H17        10.4510    4.7360   -5.3760 ho        1 F47      0.211000
     35 H15         8.4950    2.0460   -5.1140 ha        1 F47      0.164000
     36 C10         8.4920   -0.0830   -1.3900 c3        1 F47     -0.045000
@<TRIPOS>BOND
     1    1   23 1   
     2    2    9 1   
     3    2   18 1   
     4    2   19 1   
     5    3    9 1   
     6    3   20 1   
     7    4    5 1   
     8    4    7 1   
     9    5    6 1   
    10    6   23 1   
    11    6   24 1   
    12    7   19 1   
    13    7   28 1   
    14    8   12 1   
    15    9   12 1   
    16   10   17 1   
    17   10   32 1   
    18   10   36 1   
    19   11   14 1   
    20   11   15 1   
    21   13   15 1   
    22   13   17 1   
    23   13   35 1   
    24   14   31 1   
    25   15   16 1   
    26   15   33 1   
    27   16   34 1   
    28   18   20 1   
    29   18   36 1   
    30   21   22 1   
    31   21   26 1   
    32   21   27 1   
    33   23   25 1   
    34   29   36 1   
    35   30   36 1   
@<TRIPOS>SUBSTRUCTURE
     1 F47         1 TEMP              0 ****  ****    0 ROOT
