@<TRIPOS>MOLECULE
F47
   36    39     1     0     0
SMALL
bcc


@<TRIPOS>ATOM
      1 F24        -5.9900    2.4910   -0.0040 f         1 F47     -0.131900
      2 N5          0.4700   -1.6690   -0.2440 na        1 F47     -0.074500
      3 N7          1.5540   -3.5410    0.5220 nc        1 F47     -0.012000
      4 C18        -2.7510   -0.0890    0.2180 ca        1 F47     -0.174500
      5 C23        -4.0540   -0.6010    0.1330 ca        1 F47     -0.073000
      6 C22        -5.1440    0.2570    0.0570 ca        1 F47     -0.170000
      7 C1         -1.6170   -1.0150    0.3110 cc        1 F47      0.323500
      8 C2         -1.7480   -2.1850    1.1950 cc        1 F47      0.316900
      9 C6          0.3650   -2.8520    0.6270 cd        1 F47      0.269500
     10 C11         2.9500    0.3770   -1.0480 ca        1 F47     -0.133300
     11 C13         4.6570    1.2890    0.4100 ca        1 F47     -0.187000
     12 N3         -0.8010   -3.0810    1.3590 nd        1 F47     -0.544000
     13 C15         2.9690    2.7550   -0.5690 ca        1 F47     -0.187000
     14 C12         4.0780    0.2030   -0.2380 ca        1 F47     -0.078500
     15 C14         4.0990    2.5650    0.2430 ca        1 F47      0.131100
     16 O17         4.6140    3.6860    0.8500 oh        1 F47     -0.496100
     17 C16         2.4030    1.6560   -1.2070 ca        1 F47     -0.078500
     18 C9          1.7610   -1.7690   -0.8090 cd        1 F47      0.369800
     19 N4         -0.5020   -0.7850   -0.3950 nd        1 F47     -0.414800
     20 N8          2.3420   -2.9050   -0.3050 nc        1 F47     -0.358700
     21 C19        -2.5460    1.2970    0.2200 ca        1 F47     -0.073000
     22 C20        -3.6280    2.1680    0.1480 ca        1 F47     -0.170000
     23 C21        -4.9330    1.6500    0.0660 ca        1 F47      0.147900
     24 H22        -6.1680   -0.1390   -0.0130 ha        1 F47      0.157500
     25 H20        -3.4730    3.2570    0.1530 ha        1 F47      0.157500
     26 H23        -4.2190   -1.6900    0.1150 ha        1 F47      0.149500
     27 H19        -1.5250    1.7060    0.2810 ha        1 F47      0.149500
     28 H2         -2.6850   -2.3230    1.7650 h4        1 F47      0.053100
     29 H101        1.5620   -0.4460   -2.4820 hc        1 F47      0.081200
     30 H102        3.1540   -1.3130   -2.3550 hc        1 F47      0.081200
     31 H12         4.5080   -0.8040   -0.1110 ha        1 F47      0.143000
     32 H16         1.5160    1.7980   -1.8430 ha        1 F47      0.143000
     33 H13         5.5420    1.1480    1.0470 ha        1 F47      0.144500
     34 H17         5.3830    3.4170    1.3730 ho        1 F47      0.421000
     35 H15         2.5490    3.7630   -0.6880 ha        1 F47      0.144500
     36 C10         2.3540   -0.7880   -1.7600 c3        1 F47     -0.027400
@<TRIPOS>BOND
     1    1   23 1   
     2    2    9 1   
     3    2   18 1   
     4    2   19 1   
     5    3    9 2   
     6    3   20 1   
     7    4    5 ar  
     8    4    7 1   
     9    4   21 ar  
    10    5    6 ar  
    11    5   26 1   
    12    6   23 ar  
    13    6   24 1   
    14    7    8 1   
    15    7   19 2   
    16    8   12 2   
    17    8   28 1   
    18    9   12 1   
    19   10   14 ar  
    20   10   17 ar  
    21   10   36 1   
    22   11   14 ar  
    23   11   15 ar  
    24   11   33 1   
    25   13   15 ar  
    26   13   17 ar  
    27   13   35 1   
    28   14   31 1   
    29   15   16 1   
    30   16   34 1   
    31   17   32 1   
    32   18   20 2   
    33   18   36 1   
    34   21   22 ar  
    35   21   27 1   
    36   22   23 ar  
    37   22   25 1   
    38   29   36 1   
    39   30   36 1   
@<TRIPOS>SUBSTRUCTURE
     1 F47         1 TEMP              0 ****  ****    0 ROOT
