@<TRIPOS>MOLECULE
F47
   36    30     1     0     0
SMALL
bcc


@<TRIPOS>ATOM
      1 F24        -6.3920   -1.7320    4.3450 f         1 F47     -0.097000
      2 N5          0.1630    0.0660    0.5380 n1        1 F47     -0.117000
      3 N7          2.3190    0.0960    0.9020 n2        1 F47     -0.011000
      4 C18        -2.8630   -0.4110    2.7010 c1        1 F47     -0.066000
      5 C23        -3.7280    0.4910    3.3010 c1        1 F47     -0.125000
      6 C22        -4.9240    0.0470    3.8430 c1        1 F47     -0.125000
      7 C1         -1.5340    0.0650    2.1570 c2        1 F47     -0.047000
      8 C2         -0.5750    0.0810    3.1460 c1        1 F47     -0.083000
      9 C6          1.0980    0.0810    1.5020 c1        1 F47     -0.082000
     10 C11         1.9910    0.3330   -2.8170 c1        1 F47     -0.127000
     11 C13         4.3180    0.0380   -3.3250 c1        1 F47     -0.213000
     12 N3          0.7230    0.0890    2.8190 n1        1 F47     -0.017000
     13 C15         3.1210    1.9130   -4.2270 c1        1 F47     -0.161000
     14 C12         3.1650   -0.3910   -2.6860 c2        1 F47     -0.072000
     15 C14         4.2960    1.1890   -4.0960 c1        1 F47      0.086000
     16 O17         5.4790    1.6540   -4.7000 oh        1 F47     -0.250000
     17 C16         1.9680    1.4850   -3.5870 c1        1 F47     -0.082000
     18 C10         0.7220   -0.1620   -2.1610 c2        1 F47     -0.037000
     19 C9          0.8010    0.0710   -0.6670 c1        1 F47     -0.032000
     20 N4         -1.1680    0.0580    0.8720 n2        1 F47      0.017000
     21 N8          2.1280    0.0900   -0.4360 n2        1 F47     -0.071000
     22 C19        -3.1930   -1.7560    2.6440 c1        1 F47     -0.064000
     23 C20        -4.3890   -2.1990    3.1870 c1        1 F47     -0.171000
     24 C21        -5.2550   -1.2980    3.7860 c1        1 F47      0.113000
     25 H22        -5.5340    0.6820    4.2660 ha        1 F47      0.151000
     26 H20        -4.6220   -3.1460    3.1470 ha        1 F47      0.157000
     27 H23        -3.4950    1.4380    3.3410 ha        1 F47      0.151000
     28 H19        -2.5840   -2.3910    2.2220 ha        1 F47      0.153000
     29 H2         -0.8420    0.1180    4.0850 ha        1 F47      0.189000
     30 H101        0.6160   -1.1190   -2.3370 ha        1 F47      0.119000
     31 H102       -0.0450    0.3230   -2.5270 ha        1 F47      0.119000
     32 H12         3.1810   -1.2020   -2.1430 ha        1 F47      0.149000
     33 H16         1.1410    1.9940   -3.6800 ha        1 F47      0.137000
     34 H13         5.1450   -0.4720   -3.2330 ha        1 F47      0.138000
     35 H17         5.6630    1.1550   -5.4130 ho        1 F47      0.220000
     36 H15         3.1050    2.7240   -4.7690 ha        1 F47      0.152000
@<TRIPOS>BOND
     1    1   24 1   
     2    2   20 1   
     3    3    9 1   
     4    3   21 1   
     5    4    7 1   
     6    4   22 1   
     7    5    6 1   
     8    5   27 1   
     9    6   25 1   
    10    7    8 1   
    11    7   20 1   
    12    8   29 1   
    13    9   12 1   
    14   10   14 1   
    15   10   17 1   
    16   11   14 1   
    17   11   34 1   
    18   13   15 1   
    19   13   36 1   
    20   14   32 1   
    21   15   16 1   
    22   16   35 1   
    23   17   33 1   
    24   18   19 1   
    25   18   30 1   
    26   18   31 1   
    27   19   21 1   
    28   22   28 1   
    29   23   24 1   
    30   23   26 1   
@<TRIPOS>SUBSTRUCTURE
     1 F47         1 TEMP              0 ****  ****    0 ROOT
