@<TRIPOS>MOLECULE
F47
   36    35     1     0     0
SMALL
bcc


@<TRIPOS>ATOM
      1 F24         0.2650    1.2880    3.6790 f         1 F47     -0.073000
      2 N5          7.2890   -0.4020    0.2800 na        1 F47     -0.126000
      3 N7          9.4410   -0.5630    1.0440 n2        1 F47     -0.040000
      4 C18         3.6600   -0.2350    0.6660 c2        1 F47     -0.128000
      5 C23         2.7240   -0.1340    1.5710 c1        1 F47      0.034000
      6 C22         1.7600   -0.0340    2.4480 c2        1 F47     -0.288000
      7 C1          5.0830   -0.2090    1.0210 c2        1 F47     -0.046000
      8 C2          7.3320   -0.9490    3.8480 c1        1 F47      0.206000
      9 C6          8.1250   -0.5830    1.4500 c2        1 F47      0.045000
     10 C11         7.3350    1.2610   -2.4650 c2        1 F47     -0.127000
     11 C13        10.6690    3.4380   -3.0590 c1        1 F47     -0.227000
     12 N3          7.6490   -0.7710    2.7190 n2        1 F47     -0.283000
     13 C15         8.4690    2.9950   -4.0400 c2        1 F47     -0.097000
     14 C12        11.6570    2.9400   -2.6040 c1        1 F47     -0.156000
     15 C14         9.4580    4.0320   -3.5820 c3        1 F47      0.186000
     16 O17         9.7080    4.8630   -4.7170 oh        1 F47     -0.323000
     17 C16         7.9140    2.1290   -3.2440 c1        1 F47     -0.141000
     18 C9          8.2390   -0.2930   -0.7860 c2        1 F47     -0.004000
     19 N4          5.9710   -0.4050    0.0830 n2        1 F47     -0.040000
     20 N8          9.4910   -0.3890   -0.2580 n2        1 F47     -0.078000
     21 C19         3.7350   -0.3160   -2.8710 c1        1 F47     -0.221500
     22 C20         2.5900   -0.4680   -3.1790 c1        1 F47     -0.221500
     23 C21         1.2380    1.3010    2.8140 c1        1 F47      0.157000
     24 H22         1.3390   -0.9470    2.9130 ha        1 F47      0.149000
     25 H20         1.5740   -0.6010   -3.4580 ha        1 F47      0.223000
     26 H23         3.3890   -0.3410   -0.4060 ha        1 F47      0.192000
     27 H19         4.7550   -0.1800   -2.6030 ha        1 F47      0.223000
     28 H2          5.2910   -0.0120    2.0930 h4        1 F47      0.147000
     29 H101        7.0930   -0.8640   -2.5030 hc        1 F47      0.124000
     30 H102        8.7860   -0.2960   -2.8470 hc        1 F47      0.124000
     31 H12        12.5290    2.4950   -2.1950 ha        1 F47      0.229000
     32 H16         6.3860    1.5070   -1.9550 ha        1 F47      0.144000
     33 H13         8.9860    4.6730   -2.7750 h1        1 F47      0.102000
     34 H17        10.4810    5.4020   -4.5100 ho        1 F47      0.213000
     35 H15         8.2300    3.0320   -5.1190 ha        1 F47      0.169000
     36 C10         7.8730   -0.1040   -2.2170 c3        1 F47     -0.047000
@<TRIPOS>BOND
     1    1   23 1   
     2    2    9 1   
     3    2   18 1   
     4    2   19 1   
     5    3    9 1   
     6    3   20 1   
     7    4    5 1   
     8    4    7 1   
     9    4   26 1   
    10    5    6 1   
    11    6   23 1   
    12    6   24 1   
    13    7   19 1   
    14    7   28 1   
    15    8   12 1   
    16    9   12 1   
    17   10   17 1   
    18   10   32 1   
    19   10   36 1   
    20   11   14 1   
    21   11   15 1   
    22   13   15 1   
    23   13   17 1   
    24   13   35 1   
    25   14   31 1   
    26   15   16 1   
    27   15   33 1   
    28   16   34 1   
    29   18   20 1   
    30   18   36 1   
    31   21   22 1   
    32   21   27 1   
    33   22   25 1   
    34   29   36 1   
    35   30   36 1   
@<TRIPOS>SUBSTRUCTURE
     1 F47         1 TEMP              0 ****  ****    0 ROOT
