@<TRIPOS>MOLECULE
F49
   34    35     1     0     0
SMALL
bcc


@<TRIPOS>ATOM
      1 O23        -0.0620    0.5690   -0.3270 o         1 F49     -0.686500
      2 C10         1.0970    0.1410   -0.1030 c         1 F49      0.798500
      3 N12         1.5920    0.0350    1.2190 n         1 F49     -0.317000
      4 C19         0.7060    0.4160    2.3050 c3        1 F49     -0.052000
      5 C20         0.9440   -0.2560    3.6940 c         1 F49      0.916600
      6 O22        -0.0940   -0.6520    4.2800 o         1 F49     -0.815800
      7 O21         2.1140   -0.3050    4.1650 o         1 F49     -0.815800
      8 C13         2.8880   -0.3760    1.4290 cc        1 F49      0.086600
      9 C11         3.7280   -0.6880    0.3990 cd        1 F49     -0.394200
     10 C9          3.2840   -0.6160   -0.9850 c         1 F49      0.723700
     11 O18         4.0040   -0.8580   -1.9740 o         1 F49     -0.657500
     12 N8          1.9370   -0.2170   -1.1920 n         1 F49     -0.487400
     13 C7          1.4010   -0.1400   -2.5290 c3        1 F49      0.134300
     14 C1          1.1340   -1.4490   -3.2350 ca        1 F49     -0.053300
     15 C3          0.3880   -2.4770   -2.6200 ca        1 F49      0.155100
     16 O24        -0.0280   -2.3160   -1.3090 os        1 F49     -0.322900
     17 C25        -1.3580   -1.7980   -1.1790 c3        1 F49      0.112700
     18 C5          0.1510   -3.6980   -3.2770 ca        1 F49     -0.021900
     19 Br7        -0.7880   -5.1000   -2.4620 br        1 F49     -0.043100
     20 C6          0.6410   -3.8810   -4.5770 ca        1 F49      0.012100
     21 Br6         0.3470   -5.5000   -5.4700 br        1 F49     -0.051100
     22 C4          1.3440   -2.8540   -5.2140 ca        1 F49     -0.006900
     23 Br5         1.9580   -3.1070   -6.9640 br        1 F49     -0.051100
     24 C2          1.5880   -1.6440   -4.5470 ca        1 F49      0.026100
     25 Br4         2.5100   -0.3010   -5.4820 br        1 F49     -0.050100
     26 H1          0.7980    1.5290    2.4520 h1        1 F49      0.055700
     27 H2         -0.3510    0.1840    1.9900 h1        1 F49      0.055700
     28 H4          3.1990   -0.4370    2.5030 h4        1 F49      0.240000
     29 H5          4.7590   -1.0140    0.5700 ha        1 F49      0.165000
     30 H6          0.4210    0.4260   -2.5000 h1        1 F49      0.089200
     31 H7          2.1470    0.4520   -3.1400 h1        1 F49      0.089200
     32 H8         -1.4530   -0.8270   -1.7230 h1        1 F49      0.055033
     33 H9         -2.1000   -2.5430   -1.5520 h1        1 F49      0.055033
     34 H10        -1.4550   -1.6340   -0.0750 h1        1 F49      0.055033
@<TRIPOS>BOND
     1    1    2 2   
     2    2    3 1   
     3    2   12 1   
     4    3    4 1   
     5    3    8 1   
     6    4    5 1   
     7    4   26 1   
     8    4   27 1   
     9    5    6 1   
    10    5    7 1   
    11    8    9 2   
    12    8   28 1   
    13    9   10 1   
    14    9   29 1   
    15   10   11 2   
    16   10   12 1   
    17   12   13 1   
    18   13   14 1   
    19   13   30 1   
    20   13   31 1   
    21   14   15 ar  
    22   14   24 ar  
    23   15   16 1   
    24   15   18 ar  
    25   16   17 1   
    26   17   32 1   
    27   17   33 1   
    28   17   34 1   
    29   18   19 1   
    30   18   20 ar  
    31   20   21 1   
    32   20   22 ar  
    33   22   23 1   
    34   22   24 ar  
    35   24   25 1   
@<TRIPOS>SUBSTRUCTURE
     1 F49         1 TEMP              0 ****  ****    0 ROOT
