@<TRIPOS>MOLECULE
F49
   34    35     1     0     0
SMALL
bcc


@<TRIPOS>ATOM
      1 O23        -0.0530    0.5600   -0.3060 o         1 F49     -0.686500
      2 C10         1.1080    0.1310   -0.0970 c         1 F49      0.798500
      3 N12         1.6170    0.0190    1.2190 n         1 F49     -0.317000
      4 C19         0.7420    0.3960    2.3160 c3        1 F49     -0.052000
      5 C20         0.9960   -0.2820    3.7000 c         1 F49      0.916600
      6 O22        -0.0350   -0.6810    4.2960 o         1 F49     -0.815800
      7 O21         2.1710   -0.3320    4.1580 o         1 F49     -0.815800
      8 C13         2.9150   -0.3930    1.4140 cc        1 F49      0.086600
      9 C11         3.7440   -0.7000    0.3730 cd        1 F49     -0.394200
     10 C9          3.2860   -0.6220   -1.0050 c         1 F49      0.723700
     11 O18         3.9940   -0.8600   -2.0030 o         1 F49     -0.657500
     12 N8          1.9360   -0.2230   -1.1960 n         1 F49     -0.487400
     13 C7          1.3860   -0.1390   -2.5270 c3        1 F49      0.134300
     14 C1          1.1120   -1.4450   -3.2360 ca        1 F49     -0.053300
     15 C3          0.3720   -2.4750   -2.6180 ca        1 F49      0.155100
     16 O24        -0.0300   -2.3210   -1.3030 os        1 F49     -0.322900
     17 C25        -1.3590   -1.8030   -1.1560 c3        1 F49      0.112700
     18 C5          0.1290   -3.6940   -3.2790 ca        1 F49     -0.021900
     19 BR7        -0.8020   -5.0990   -2.4590 br        1 F49     -0.043100
     20 C6          0.6040   -3.8710   -4.5850 ca        1 F49      0.012100
     21 BR6         0.3010   -5.4850   -5.4820 br        1 F49     -0.051100
     22 C4          1.3010   -2.8410   -5.2240 ca        1 F49     -0.006900
     23 BR5         1.8970   -3.0860   -6.9820 br        1 F49     -0.051100
     24 C2          1.5520   -1.6330   -4.5540 ca        1 F49      0.026100
     25 BR4         2.4650   -0.2860   -5.4930 br        1 F49     -0.050100
     26 H1          0.8350    1.5070    2.4670 h1        1 F49      0.055700
     27 H2         -0.3170    0.1630    2.0120 h1        1 F49      0.055700
     28 H4          3.2380   -0.4580    2.4840 h4        1 F49      0.240000
     29 H5          4.7770   -1.0260    0.5310 ha        1 F49      0.165000
     30 H6          2.1250    0.4560   -3.1440 h1        1 F49      0.088700
     31 H7          0.4060    0.4270   -2.4850 h1        1 F49      0.088700
     32 H8         -1.4440   -1.6440   -0.0500 h1        1 F49      0.055033
     33 H9         -2.1050   -2.5460   -1.5240 h1        1 F49      0.055033
     34 H10        -1.4590   -0.8300   -1.6940 h1        1 F49      0.055033
@<TRIPOS>BOND
     1    1    2 2   
     2    2    3 1   
     3    2   12 1   
     4    3    4 1   
     5    3    8 1   
     6    4    5 1   
     7    4   26 1   
     8    4   27 1   
     9    5    6 1   
    10    5    7 1   
    11    8    9 2   
    12    8   28 1   
    13    9   10 1   
    14    9   29 1   
    15   10   11 2   
    16   10   12 1   
    17   12   13 1   
    18   13   14 1   
    19   13   30 1   
    20   13   31 1   
    21   14   15 ar  
    22   14   24 ar  
    23   15   16 1   
    24   15   18 ar  
    25   16   17 1   
    26   17   32 1   
    27   17   33 1   
    28   17   34 1   
    29   18   19 1   
    30   18   20 ar  
    31   20   21 1   
    32   20   22 ar  
    33   22   23 1   
    34   22   24 ar  
    35   24   25 1   
@<TRIPOS>SUBSTRUCTURE
     1 F49         1 TEMP              0 ****  ****    0 ROOT
