@<TRIPOS>MOLECULE
F4C
   51    54     1     0     0
SMALL
bcc


@<TRIPOS>ATOM
      1 N1         -0.0640    0.0340   -0.4150 n         1 F4C     -0.145000
      2 N3          4.2410   -0.8260   -0.3710 n3        1 F4C     -0.191000
      3 C4          0.1710    0.8860    1.7120 c2        1 F4C     -0.123000
      4 C6          3.6110   -0.1730    0.5960 c2        1 F4C      0.238000
      5 C7          6.7580    0.9020   -1.4240 c3        1 F4C     -0.091000
      6 C8         -0.9650   -0.3270   -1.5450 c3        1 F4C      0.156000
      7 C10        -0.4780    1.4860    2.8940 c2        1 F4C     -0.118000
      8 C13        -2.1660   -1.0970   -1.1750 cu        1 F4C     -0.249000
      9 C15        -3.2520   -1.6920   -1.6330 cu        1 F4C     -0.031000
     10 C17         5.9820    1.4360   -0.2760 c2        1 F4C     -0.069000
     11 C20        -1.2720    2.5580    2.7790 c2        1 F4C     -0.130000
     12 C21        -0.2080    0.8210    4.1970 c3        1 F4C     -0.210000
     13 C22         6.9340   -1.3040   -2.5490 c2        1 F4C     -0.105000
     14 C24         5.2990    0.9530    2.0140 c1        1 F4C      0.189000
     15 C14        -3.4500   -0.2540   -1.2200 cx        1 F4C      0.068000
     16 C16        -2.9890    0.9000   -2.0800 c2        1 F4C     -0.095000
     17 C12        -1.6430    0.9030   -2.1960 c2        1 F4C     -0.200000
     18 C2          1.3350   -0.2700   -0.5460 c2        1 F4C      0.317000
     19 O1          1.7510   -0.7930   -1.5980 o         1 F4C     -0.353000
     20 N2         -0.5960    0.5690    0.6450 n2        1 F4C      0.114000
     21 C18        -2.4770   -1.8000    3.1160 c1        1 F4C      0.235000
     22 C19        -0.7910   -0.5130    4.4750 c1        1 F4C      0.126000
     23 N4         -1.6690   -1.1060    3.6780 n2        1 F4C     -0.354000
     24 C3          1.5800    0.6580    1.7190 c2        1 F4C      0.081000
     25 C1          2.1780    0.0850    0.6040 c2        1 F4C     -0.274000
     26 O2          4.2130    0.3020    1.8130 os        1 F4C     -0.072000
     27 C11         5.6330   -1.2400   -0.4610 c3        1 F4C     -0.021000
     28 C9          6.4360   -0.5650   -1.5490 c2        1 F4C     -0.193000
     29 C23         6.3040    1.1310    0.9930 c2        1 F4C     -0.296000
     30 F1          7.1600    1.3820   -3.8100 f         1 F4C     -0.150000
     31 F2          5.0960    1.5650   -3.1300 f         1 F4C     -0.150000
     32 F3          6.5670    3.0610   -2.5650 f         1 F4C     -0.150000
     33 HN3         3.6880   -1.1020   -1.1820 hn        1 F4C      0.305000
     34 H13        -0.3360   -0.8790   -2.3060 h1        1 F4C      0.177000
     35 H15        -3.7710   -2.5720   -1.9660 ha        1 F4C      0.217000
     36 H17         7.8700    1.0290   -1.2760 hc        1 F4C      0.169000
     37 H20        -1.4910    3.0400    1.8160 ha        1 F4C      0.137500
     38 H21         0.9010    0.7050    4.3620 hc        1 F4C      0.148500
     39 H22         6.7270   -2.3800   -2.6540 ha        1 F4C      0.153500
     40 H24         7.5840   -0.8770   -3.3300 ha        1 F4C      0.153500
     41 H16        -3.6960    1.6330   -2.4760 ha        1 F4C      0.179000
     42 H12        -1.0240    1.6320   -2.7200 ha        1 F4C      0.166000
     43 H18        -1.7560    3.0180    3.6520 ha        1 F4C      0.137500
     44 H19        -0.5820    1.4700    5.0480 hc        1 F4C      0.148500
     45 H3          2.1690    0.9420    2.6120 ha        1 F4C      0.192000
     46 H11         6.1430   -1.1170    0.5370 h1        1 F4C      0.137000
     47 H11A        5.6000   -2.3550   -0.6750 h1        1 F4C      0.137000
     48 H23         7.3290    0.8450    1.3040 ha        1 F4C      0.207000
     49 F4         -4.2640    0.0600   -0.1820 f         1 F4C     -0.097000
     50 H32         5.0380    1.9510   -0.5360 ha        1 F4C      0.156000
     51 C5          6.3970    1.7100   -2.7230 c3        1 F4C      0.420000
@<TRIPOS>BOND
     1    1    6 1   
     2    1   18 1   
     3    1   20 1   
     4    2    4 1   
     5    2   27 1   
     6    2   33 1   
     7    3    7 1   
     8    3   20 1   
     9    3   24 1   
    10    4   25 1   
    11    4   26 1   
    12    5   10 1   
    13    5   28 1   
    14    5   36 1   
    15    5   51 1   
    16    6    8 1   
    17    6   17 1   
    18    6   34 1   
    19    7   11 1   
    20    7   12 1   
    21    8    9 1   
    22    8   15 1   
    23    9   15 1   
    24    9   35 1   
    25   10   29 1   
    26   10   50 1   
    27   11   37 1   
    28   11   43 1   
    29   12   22 1   
    30   12   38 1   
    31   12   44 1   
    32   13   28 1   
    33   13   39 1   
    34   13   40 1   
    35   14   26 1   
    36   14   29 1   
    37   15   16 1   
    38   15   49 1   
    39   16   17 1   
    40   16   41 1   
    41   17   42 1   
    42   18   19 1   
    43   18   25 1   
    44   21   23 1   
    45   22   23 1   
    46   24   25 1   
    47   24   45 1   
    48   27   28 1   
    49   27   46 1   
    50   27   47 1   
    51   29   48 1   
    52   30   51 1   
    53   31   51 1   
    54   32   51 1   
@<TRIPOS>SUBSTRUCTURE
     1 F4C         1 TEMP              0 ****  ****    0 ROOT
