@<TRIPOS>MOLECULE
F4C
   51    54     1     0     0
SMALL
bcc


@<TRIPOS>ATOM
      1 N1          0.5530   -0.1010   -0.3830 na        1 F4C      0.012000
      2 N3          3.9330    2.2660    1.2820 n         1 F4C     -0.395000
      3 C4         -0.4300    0.1950    1.7000 c2        1 F4C      0.029000
      4 C6          3.1570    1.4110    2.0030 c2        1 F4C      0.342000
      5 C7          6.2820    1.3140   -1.4010 c2        1 F4C     -0.117000
      6 C8          0.4040   -0.5760   -1.8060 c3        1 F4C      0.140000
      7 C10        -1.6160    0.0510    2.5530 c2        1 F4C     -0.133000
      8 C13        -0.8040   -1.3600   -2.0990 cu        1 F4C     -0.241000
      9 C15        -1.4700   -2.0150   -3.0330 cu        1 F4C     -0.005000
     10 C17         5.0830    1.3460   -2.0260 c2        1 F4C     -0.144000
     11 C20        -2.8650    0.1140    2.0610 c2        1 F4C     -0.061000
     12 C21        -1.3370   -0.1610    4.0060 c3        1 F4C     -0.209000
     13 C22         5.6600   -0.9800   -1.7010 c3        1 F4C     -0.099000
     14 C24         4.5380   -0.0390   -2.2300 c3        1 F4C     -0.182000
     15 C14        -1.8640   -0.5640   -2.8720 cx        1 F4C      0.062000
     16 C16        -1.0140    0.5670   -3.4080 c2        1 F4C     -0.061000
     17 C12         0.1830    0.6040   -2.7800 c2        1 F4C     -0.232000
     18 C2          1.7400    0.4450    0.0520 c2        1 F4C      0.176000
     19 O1          2.8170    0.6750   -0.7980 os        1 F4C     -0.156000
     20 N2         -0.4950   -0.2150    0.4070 n2        1 F4C      0.013000
     21 C18        -2.5660   -1.8890    6.9180 c1        1 F4C      0.271000
     22 C19        -2.5440   -0.7480    4.6710 c1        1 F4C      0.130000
     23 N4         -2.4440   -1.3270    5.8580 n2        1 F4C     -0.367000
     24 C3          0.7790    0.7520    2.2370 c2        1 F4C     -0.015000
     25 C1          1.8790    0.8850    1.4040 c2        1 F4C     -0.102000
     26 O2          3.4320    1.0760    3.1710 o         1 F4C     -0.320000
     27 C11         7.8370   -0.4730   -0.5430 c2        1 F4C     -0.136000
     28 C9          6.7190   -0.0630   -1.1420 c2        1 F4C     -0.121000
     29 C23         3.2810   -0.3720   -1.5190 c1        1 F4C      0.072000
     30 F1          6.7610    3.6680   -1.7280 f         1 F4C     -0.156667
     31 F2          6.7170    2.9500    0.3150 f         1 F4C     -0.156667
     32 F3          8.4010    2.4620   -0.9740 f         1 F4C     -0.156667
     33 HN3         3.7400    2.4750    0.3350 hn        1 F4C      0.251500
     34 H13         1.3480   -1.1620   -2.0390 h1        1 F4C      0.198000
     35 H15        -1.7250   -2.9270   -3.5430 ha        1 F4C      0.227000
     36 H17         4.5420    2.2320   -2.3660 ha        1 F4C      0.164000
     37 H20        -3.0910    0.2730    0.9970 ha        1 F4C      0.158500
     38 H21        -0.4110   -0.7870    4.1340 hc        1 F4C      0.122500
     39 H22         6.0690   -1.5880   -2.5460 hc        1 F4C      0.121500
     40 H24         5.2770   -1.6810   -0.9190 hc        1 F4C      0.121500
     41 H16        -1.3970    1.2620   -4.1600 ha        1 F4C      0.190000
     42 H12         0.9840    1.3290   -2.9280 ha        1 F4C      0.165000
     43 H18        -3.7410    0.0050    2.7260 ha        1 F4C      0.158500
     44 H19        -1.1390    0.8370    4.5000 hc        1 F4C      0.122500
     45 H3          0.8390    1.0600    3.2990 ha        1 F4C      0.218000
     46 H11         8.0640   -1.5400   -0.4080 ha        1 F4C      0.144000
     47 H11A        8.5950    0.2260   -0.1610 ha        1 F4C      0.144000
     48 H23         4.3500   -0.2380   -3.3260 hc        1 F4C      0.175000
     49 F4         -3.1080   -0.2290   -2.4520 f         1 F4C     -0.091000
     50 H32         4.7820    2.6020    1.6800 hn        1 F4C      0.251500
     51 C5          7.0360    2.5580   -0.9680 c3        1 F4C      0.476000
@<TRIPOS>BOND
     1    1    6 1   
     2    1   18 1   
     3    1   20 1   
     4    2    4 1   
     5    2   33 1   
     6    2   50 1   
     7    3    7 1   
     8    3   20 1   
     9    3   24 1   
    10    4   25 1   
    11    4   26 1   
    12    5   10 1   
    13    5   28 1   
    14    5   51 1   
    15    6    8 1   
    16    6   17 1   
    17    6   34 1   
    18    7   11 1   
    19    7   12 1   
    20    8    9 1   
    21    8   15 1   
    22    9   15 1   
    23    9   35 1   
    24   10   14 1   
    25   10   36 1   
    26   11   37 1   
    27   11   43 1   
    28   12   22 1   
    29   12   38 1   
    30   12   44 1   
    31   13   14 1   
    32   13   28 1   
    33   13   39 1   
    34   13   40 1   
    35   14   29 1   
    36   14   48 1   
    37   15   16 1   
    38   15   49 1   
    39   16   17 1   
    40   16   41 1   
    41   17   42 1   
    42   18   19 1   
    43   18   25 1   
    44   19   29 1   
    45   21   23 1   
    46   22   23 1   
    47   24   25 1   
    48   24   45 1   
    49   27   28 1   
    50   27   46 1   
    51   27   47 1   
    52   30   51 1   
    53   31   51 1   
    54   32   51 1   
@<TRIPOS>SUBSTRUCTURE
     1 F4C         1 TEMP              0 ****  ****    0 ROOT
