@<TRIPOS>MOLECULE
F4C
   50    53     1     0     0
SMALL
bcc


@<TRIPOS>ATOM
      1 N1         -1.9590   -0.9750   -0.3420 n         1 F4C     -0.096000
      2 N3          1.8780    1.1940   -0.5190 n         1 F4C     -0.534900
      3 C4         -2.9100    0.9910    0.3760 cc        1 F4C      0.357200
      4 C6          0.8280    1.6160    0.2680 c         1 F4C      0.675300
      5 C7          4.9660    0.0820    0.3100 ca        1 F4C     -0.153300
      6 C8         -2.1660   -2.3490   -0.7410 ca        1 F4C      0.025600
      7 C10        -4.1120    1.7630    0.7240 ca        1 F4C     -0.074900
      8 C13        -2.9770   -3.1980    0.0360 ca        1 F4C     -0.080500
      9 C15        -3.1790   -4.5160   -0.3530 ca        1 F4C     -0.162500
     10 C17         5.7810   -0.4910    1.2920 ca        1 F4C     -0.090000
     11 C20        -5.1670    1.1870    1.4420 ca        1 F4C     -0.224800
     12 C21        -4.2140    3.1080    0.3420 ca        1 F4C     -0.224800
     13 C22         3.9740    1.5170    1.9800 ca        1 F4C     -0.117000
     14 C24         4.7840    0.9430    2.9580 ca        1 F4C     -0.103000
     15 C14        -2.5690   -5.0040   -1.5230 ca        1 F4C      0.136900
     16 C16        -1.7550   -4.1590   -2.2990 ca        1 F4C     -0.162500
     17 C12        -1.5590   -2.8390   -1.9130 ca        1 F4C     -0.080500
     18 C2         -0.6180   -0.4530   -0.3090 c         1 F4C      0.684700
     19 O1          0.3260   -1.1870   -0.6450 o         1 F4C     -0.607500
     20 N2         -3.0350   -0.2780   -0.0200 nd        1 F4C     -0.385300
     21 C18        -6.2810    1.9890    1.7520 ca        1 F4C      0.395200
     22 C19        -5.3700    3.8210    0.7030 ca        1 F4C      0.395200
     23 N4         -6.3930    3.2830    1.3970 nb        1 F4C     -0.654000
     24 C3         -1.6190    1.6420    0.4760 cc        1 F4C     -0.091600
     25 C1         -0.4990    0.9430    0.1380 cd        1 F4C     -0.237400
     26 O2          0.9370    2.6050    1.0280 o         1 F4C     -0.621100
     27 C11         3.1860    1.7770   -0.3740 c3        1 F4C      0.118300
     28 C9          4.0640    1.0990    0.6470 ca        1 F4C     -0.071300
     29 C23         5.6910   -0.0590    2.6130 ca        1 F4C     -0.129000
     30 F1          5.8560   -1.5510   -1.2780 f         1 F4C     -0.237967
     31 F2          3.8960   -0.7550   -1.7220 f         1 F4C     -0.237967
     32 F3          5.6560    0.4780   -1.9980 f         1 F4C     -0.237967
     33 HN3         1.8380    0.2900   -0.9430 hn        1 F4C      0.344500
     34 H13        -3.4630   -2.8320    0.9550 ha        1 F4C      0.156500
     35 H15        -3.8130   -5.1840    0.2490 ha        1 F4C      0.157000
     36 H17         6.4910   -1.2880    1.0180 ha        1 F4C      0.153000
     37 H20        -5.1380    0.1360    1.7580 ha        1 F4C      0.151000
     38 H21        -3.4170    3.6000   -0.2320 ha        1 F4C      0.151000
     39 H22         3.2440    2.3010    2.2460 ha        1 F4C      0.163000
     40 H24         4.7050    1.2810    4.0030 ha        1 F4C      0.142000
     41 H16        -1.2750   -4.5480   -3.2090 ha        1 F4C      0.157000
     42 H12        -0.9040   -2.1910   -2.5190 ha        1 F4C      0.156500
     43 H18        -7.1340    1.5710    2.3180 h4        1 F4C      0.027600
     44 H19        -5.4870    4.8830    0.4210 h4        1 F4C      0.027600
     45 H3         -1.5600    2.6830    0.8390 ha        1 F4C      0.184000
     46 H11         3.6850    1.7350   -1.3860 h1        1 F4C      0.080200
     47 H11A        3.0690    2.8620   -0.0810 h1        1 F4C      0.080200
     48 H23         6.3340   -0.5130    3.3820 ha        1 F4C      0.142000
     49 F4         -2.7640   -6.2880   -1.9010 f         1 F4C     -0.133900
     50 C5          5.0900   -0.4220   -1.1250 c3        1 F4C      0.686200
@<TRIPOS>BOND
     1    1    6 1   
     2    1   18 1   
     3    1   20 1   
     4    2    4 1   
     5    2   27 1   
     6    2   33 1   
     7    3    7 1   
     8    3   20 2   
     9    3   24 1   
    10    4   25 1   
    11    4   26 2   
    12    5   10 ar  
    13    5   28 ar  
    14    5   50 1   
    15    6    8 ar  
    16    6   17 ar  
    17    7   11 ar  
    18    7   12 ar  
    19    8    9 ar  
    20    8   34 1   
    21    9   15 ar  
    22    9   35 1   
    23   10   29 ar  
    24   10   36 1   
    25   11   21 ar  
    26   11   37 1   
    27   12   22 ar  
    28   12   38 1   
    29   13   14 ar  
    30   13   28 ar  
    31   13   39 1   
    32   14   29 ar  
    33   14   40 1   
    34   15   16 ar  
    35   15   49 1   
    36   16   17 ar  
    37   16   41 1   
    38   17   42 1   
    39   18   19 2   
    40   18   25 1   
    41   21   23 ar  
    42   21   43 1   
    43   22   23 ar  
    44   22   44 1   
    45   24   25 2   
    46   24   45 1   
    47   27   28 1   
    48   27   46 1   
    49   27   47 1   
    50   29   48 1   
    51   30   50 1   
    52   31   50 1   
    53   32   50 1   
@<TRIPOS>SUBSTRUCTURE
     1 F4C         1 TEMP              0 ****  ****    0 ROOT
