@<TRIPOS>MOLECULE
F4C
   50    47     1     0     0
SMALL
bcc


@<TRIPOS>ATOM
      1 N1         -0.0930   -0.1490   -2.5200 n         1 F4C     -0.169000
      2 N3          1.8900    1.1830    1.1240 n         1 F4C     -0.344000
      3 C4          0.5100   -1.9950   -0.7910 c1        1 F4C     -0.101000
      4 C5          1.2900    3.5570    5.1370 c3        1 F4C      0.465000
      5 C6          1.2210    0.9990   -0.1450 c2        1 F4C      0.350000
      6 C7          0.6090    2.6420    4.1240 c2        1 F4C     -0.146000
      7 C8         -0.3490    0.3040   -3.8530 c2        1 F4C      0.033000
      8 C10         0.3610   -3.5030   -0.5260 c1        1 F4C      0.009000
      9 C13         0.5000    0.1170   -4.9380 c1        1 F4C     -0.086000
     10 C15         0.0280    0.3080   -6.2300 c1        1 F4C     -0.165000
     11 C17        -0.4630    2.4460    4.9880 c1        1 F4C     -0.090000
     12 C20         1.1940   -4.5370   -0.8440 c1        1 F4C     -0.150000
     13 C21        -0.6060   -3.6740    0.4230 c2        1 F4C     -0.169000
     14 C22        -0.6580    1.6680    2.3280 c1        1 F4C     -0.117000
     15 C24        -1.7310    1.4720    3.1930 c1        1 F4C     -0.116000
     16 F4         -1.7630    0.8330   -7.6870 f         1 F4C     -0.099000
     17 C14        -1.2970    0.6860   -6.4390 c2        1 F4C      0.102000
     18 C16        -2.1430    0.8710   -5.3590 c2        1 F4C     -0.160000
     19 C12        -1.6700    0.6800   -4.0620 c2        1 F4C     -0.075000
     20 C2         -0.7950    0.3060   -1.5390 c2        1 F4C      0.323000
     21 O1         -1.9020   -0.1830   -1.5400 o         1 F4C     -0.332000
     22 N2          0.5660   -1.4460   -2.2970 n2        1 F4C      0.035000
     23 C18         1.0570   -5.7610   -0.2020 c1        1 F4C     -0.071000
     24 C19        -0.7410   -4.8980    1.0620 c1        1 F4C     -0.069000
     25 N4          0.0920   -5.9300    0.7440 n1        1 F4C     -0.128000
     26 C3          0.0260   -0.9820    0.2550 c2        1 F4C     -0.005000
     27 C1         -0.1040    0.2540   -0.1990 c2        1 F4C     -0.199000
     28 O2          1.6370    1.5710   -1.1380 o         1 F4C     -0.382000
     29 C11         1.6970    2.4060    1.8720 c3        1 F4C     -0.005000
     30 C9          0.5100    2.2520    2.7930 c2        1 F4C     -0.064000
     31 C23        -1.6310    1.8610    4.5220 c1        1 F4C     -0.116000
     32 F1          0.6320    4.7230    5.2000 f         1 F4C     -0.166667
     33 F2          1.2780    2.9740    6.3420 f         1 F4C     -0.166667
     34 F3          2.5610    3.7780    4.7580 f         1 F4C     -0.166667
     35 HN3         2.4770    0.5560    1.4240 hn        1 F4C      0.258000
     36 H13         1.4230   -0.1460   -4.7930 ha        1 F4C      0.152000
     37 H15         0.6230    0.1770   -6.9900 ha        1 F4C      0.156000
     38 H17        -0.3930    2.7200    5.9250 ha        1 F4C      0.153000
     39 H20         1.8880   -4.4160   -1.5240 ha        1 F4C      0.154000
     40 H21        -1.2030   -2.9350    0.6510 ha        1 F4C      0.148000
     41 H22        -0.7280    1.3960    1.4000 ha        1 F4C      0.163000
     42 H24        -2.5490    1.0620    2.8670 ha        1 F4C      0.142000
     43 H16        -3.0740    1.1370   -5.5060 ha        1 F4C      0.158000
     44 H12        -2.2610    0.8100   -3.3060 ha        1 F4C      0.161000
     45 H18         1.6520   -6.5000   -0.4290 ha        1 F4C      0.164000
     46 H19        -1.4310   -5.0200    1.7400 ha        1 F4C      0.165000
     47 H3          0.2030   -1.1370    1.2050 ha        1 F4C      0.184000
     48 H11         1.5350    3.1470    1.2500 h1        1 F4C      0.119500
     49 H11A        2.5030    2.5950    2.4050 h1        1 F4C      0.119500
     50 H23        -2.3800    1.7240    5.1250 ha        1 F4C      0.142000
@<TRIPOS>BOND
     1    1    7 1   
     2    1   20 1   
     3    1   22 1   
     4    2    5 1   
     5    2   29 1   
     6    2   35 1   
     7    3   22 1   
     8    3   26 1   
     9    4    6 1   
    10    4   32 1   
    11    4   33 1   
    12    4   34 1   
    13    5   27 1   
    14    5   28 1   
    15    6   11 1   
    16    6   30 1   
    17    7    9 1   
    18    7   19 1   
    19    8   12 1   
    20    8   13 1   
    21    9   36 1   
    22   10   17 1   
    23   10   37 1   
    24   11   38 1   
    25   12   39 1   
    26   13   24 1   
    27   13   40 1   
    28   14   30 1   
    29   14   41 1   
    30   15   31 1   
    31   15   42 1   
    32   16   17 1   
    33   17   18 1   
    34   18   19 1   
    35   18   43 1   
    36   19   44 1   
    37   20   21 1   
    38   20   27 1   
    39   23   25 1   
    40   23   45 1   
    41   24   46 1   
    42   26   27 1   
    43   26   47 1   
    44   29   30 1   
    45   29   48 1   
    46   29   49 1   
    47   31   50 1   
@<TRIPOS>SUBSTRUCTURE
     1 F4C         1 TEMP              0 ****  ****    0 ROOT
