@<TRIPOS>MOLECULE
F4D
   61    63     1     0     0
SMALL
bcc


@<TRIPOS>ATOM
      1 O4          0.0350    0.7400   -1.4890 o         1 F4D     -0.436900
      2 S1          1.2320    0.3890   -0.9480 s4        1 F4D      1.685300
      3 O3          2.1770    1.2980   -0.5960 o         1 F4D     -0.436900
      4 C18         1.4020   -1.0690   -0.4500 ca        1 F4D     -0.656500
      5 C23         2.5550   -1.4760    0.2820 ca        1 F4D      0.054000
      6 C22         2.6900   -2.7480    0.7890 ca        1 F4D     -0.195500
      7 C21         1.6550   -3.6980    0.5840 ca        1 F4D      0.319900
      8 F1          1.7720   -4.9330    1.0730 f         1 F4D     -0.050900
      9 C20         0.4930   -3.3250   -0.1440 ca        1 F4D     -0.195500
     10 C19         0.3830   -2.0470   -0.6400 ca        1 F4D      0.054000
     11 N2          2.2200    0.0600   -3.1200 nh        1 F4D     -0.858200
     12 C1          1.9470    1.1080   -4.0560 ca        1 F4D     -0.121700
     13 C2          2.9830    1.8590   -4.7030 ca        1 F4D      0.652600
     14 O1          4.2750    1.5220   -4.3170 os        1 F4D     -0.383400
     15 C6          5.3640    1.9670   -5.0690 ca        1 F4D      0.152100
     16 C12         6.4300    2.5010   -4.3260 ca        1 F4D     -0.118000
     17 C11         7.6280    2.7830   -4.9760 ca        1 F4D     -0.073000
     18 C10         7.7520    2.5490   -6.3520 ca        1 F4D     -0.256900
     19 C25         9.0520    2.7480   -7.0290 ce        1 F4D      0.579800
     20 N6          9.8590    1.9150   -7.5610 n2        1 F4D     -0.687100
     21 N5          9.4610    4.1970   -7.0830 n4        1 F4D     -0.821600
     22 C9          6.6700    2.0470   -7.0880 ca        1 F4D     -0.073000
     23 C8          5.4670    1.7520   -6.4480 ca        1 F4D     -0.118000
     24 C5          0.6210    1.4590   -4.3820 ca        1 F4D     -0.032000
     25 C4          0.3730    2.4790   -5.2950 ca        1 F4D     -0.279300
     26 C3          1.4760    3.1390   -5.8770 ca        1 F4D      0.655600
     27 N1          2.7740    2.8630   -5.5830 nb        1 F4D     -0.696000
     28 O2          1.3450    4.0610   -6.9130 os        1 F4D     -0.334400
     29 C7          0.2900    4.9630   -6.8610 ca        1 F4D      0.150100
     30 C17        -0.2980    5.4360   -5.6820 ca        1 F4D     -0.147500
     31 C16        -1.2640    6.4380   -5.7610 ca        1 F4D     -0.060500
     32 C15        -1.6370    6.9590   -7.0060 ca        1 F4D     -0.270900
     33 C24        -2.5900    8.0890   -7.0600 ce        1 F4D      0.581800
     34 N4         -3.8660    7.7400   -7.7800 n4        1 F4D     -0.821600
     35 N3         -2.5070    9.2790   -6.6070 n2        1 F4D     -0.689100
     36 C14        -1.0500    6.4710   -8.1830 ca        1 F4D     -0.060500
     37 C13        -0.0890    5.4690   -8.1200 ca        1 F4D     -0.147500
     38 H1          3.3610   -0.7350    0.4620 ha        1 F4D      0.177000
     39 H2          3.5870   -3.0420    1.3640 ha        1 F4D      0.205500
     40 H3         -0.3120   -4.0680   -0.2930 ha        1 F4D      0.205500
     41 H4         -0.5350   -1.7600   -1.1910 ha        1 F4D      0.177000
     42 H5          1.8900   -0.8150   -3.5030 hn        1 F4D      0.411300
     43 H6          6.3220    2.6710   -3.2430 ha        1 F4D      0.177000
     44 H7          8.4790    3.1670   -4.3890 ha        1 F4D      0.159500
     45 H8          9.6410    0.9390   -7.5460 hn        1 F4D      0.496400
     46 H9          8.7900    4.7030   -7.6710 hn        1 F4D      0.474800
     47 H10         9.4340    4.5780   -6.1320 hn        1 F4D      0.474800
     48 H11         6.7640    1.8670   -8.1720 ha        1 F4D      0.159500
     49 H12         4.6180    1.3520   -7.0240 ha        1 F4D      0.177000
     50 H13        -0.2310    0.9300   -3.9160 ha        1 F4D      0.183000
     51 H14        -0.6550    2.7520   -5.5740 ha        1 F4D      0.179000
     52 H15         0.0080    5.0390   -4.7020 ha        1 F4D      0.177500
     53 H16        -1.7200    6.8230   -4.8330 ha        1 F4D      0.159000
     54 H17        -4.3640    7.0270   -7.2370 hn        1 F4D      0.474800
     55 H18        -3.6270    7.3590   -8.7010 hn        1 F4D      0.474800
     56 H19        -1.6760    9.5650   -6.1300 hn        1 F4D      0.494400
     57 H20        -1.3200    6.8910   -9.1660 ha        1 F4D      0.159000
     58 H21         0.3920    5.0830   -9.0340 ha        1 F4D      0.177500
     59 H22         3.2160   -0.0100   -2.9700 hn        1 F4D      0.411300
     60 H53        10.4080    4.3140   -7.4730 hn        1 F4D      0.474800
     61 H43        -4.4770    8.5620   -7.8980 hn        1 F4D      0.474800
@<TRIPOS>BOND
     1    1    2 1   
     2    2    3 1   
     3    2    4 1   
     4    4    5 ar  
     5    4   10 ar  
     6    5    6 ar  
     7    5   38 1   
     8    6    7 ar  
     9    6   39 1   
    10    7    8 1   
    11    7    9 ar  
    12    9   10 ar  
    13    9   40 1   
    14   10   41 1   
    15   11   12 1   
    16   11   42 1   
    17   11   59 1   
    18   12   13 ar  
    19   12   24 ar  
    20   13   14 1   
    21   13   27 ar  
    22   14   15 1   
    23   15   16 ar  
    24   15   23 ar  
    25   16   17 ar  
    26   16   43 1   
    27   17   18 ar  
    28   17   44 1   
    29   18   19 1   
    30   18   22 ar  
    31   19   20 2   
    32   19   21 1   
    33   20   45 1   
    34   21   46 1   
    35   21   47 1   
    36   21   60 1   
    37   22   23 ar  
    38   22   48 1   
    39   23   49 1   
    40   24   25 ar  
    41   24   50 1   
    42   25   26 ar  
    43   25   51 1   
    44   26   27 ar  
    45   26   28 1   
    46   28   29 1   
    47   29   30 ar  
    48   29   37 ar  
    49   30   31 ar  
    50   30   52 1   
    51   31   32 ar  
    52   31   53 1   
    53   32   33 1   
    54   32   36 ar  
    55   33   34 1   
    56   33   35 2   
    57   34   54 1   
    58   34   55 1   
    59   34   61 1   
    60   35   56 1   
    61   36   37 ar  
    62   36   57 1   
    63   37   58 1   
@<TRIPOS>SUBSTRUCTURE
     1 F4D         1 TEMP              0 ****  ****    0 ROOT
