@<TRIPOS>MOLECULE
F4D
   60    63     1     0     0
SMALL
bcc


@<TRIPOS>ATOM
      1 O4         -0.1660   -0.9880   -2.5980 o         1 F4D     -0.636800
      2 S1          0.7200   -0.2120   -1.8390 sy        1 F4D      1.531200
      3 O3          0.1530    0.7470   -0.9930 o         1 F4D     -0.636800
      4 C18         1.8070   -1.1560   -1.0170 ca        1 F4D     -0.458500
      5 C23         2.3820   -0.7090    0.1840 ca        1 F4D      0.018500
      6 C22         3.2430   -1.5120    0.9160 ca        1 F4D     -0.196000
      7 C21         3.5440   -2.8090    0.4470 ca        1 F4D      0.223900
      8 F1          4.3820   -3.5980    1.1450 f         1 F4D     -0.106900
      9 C20         2.9660   -3.2800   -0.7510 ca        1 F4D     -0.196000
     10 C19         2.1090   -2.4540   -1.4610 ca        1 F4D      0.018500
     11 N2          1.7580    0.5780   -2.8960 nu        1 F4D     -0.736500
     12 C1          1.3940    1.2970   -4.0200 ca        1 F4D      0.132300
     13 C2          2.2730    2.2650   -4.6190 ca        1 F4D      0.513600
     14 O1          3.5010    2.4870   -3.9760 os        1 F4D     -0.350400
     15 C6          4.6540    2.2840   -4.7090 ca        1 F4D      0.184100
     16 C12         5.8170    2.8310   -4.1280 ca        1 F4D     -0.155000
     17 C11         7.0470    2.5990   -4.7260 ca        1 F4D     -0.060000
     18 C10         7.1240    1.8370   -5.9020 ca        1 F4D     -0.301900
     19 C25         8.4480    1.5370   -6.4790 ce        1 F4D      0.594800
     20 N6          9.4140    0.8130   -6.0670 n2        1 F4D     -0.704100
     21 N5          8.6590    2.2450   -7.7950 nz        1 F4D     -0.825600
     22 C9          5.9630    1.3130   -6.4840 ca        1 F4D     -0.060000
     23 C8          4.7240    1.5320   -5.8920 ca        1 F4D     -0.155000
     24 C5          0.1290    1.1470   -4.6490 ca        1 F4D     -0.146000
     25 C4         -0.2080    1.9430   -5.7340 ca        1 F4D     -0.170300
     26 C3          0.7340    2.8900   -6.1920 ca        1 F4D      0.529600
     27 N1          1.9680    3.0580   -5.6680 nb        1 F4D     -0.652000
     28 O2          0.4200    3.6130   -7.3550 os        1 F4D     -0.340400
     29 C7         -0.0540    4.8970   -7.1750 ca        1 F4D      0.187100
     30 C17        -0.2570    5.5080   -5.9290 ca        1 F4D     -0.163000
     31 C16        -0.7880    6.7930   -5.8790 ca        1 F4D     -0.056500
     32 C15        -1.1170    7.4630   -7.0640 ca        1 F4D     -0.307900
     33 C24        -1.6490    8.8370   -6.9970 ce        1 F4D      0.596800
     34 N4         -3.1020    8.8920   -7.4010 nz        1 F4D     -0.825600
     35 N3         -1.1120    9.9450   -6.6600 n2        1 F4D     -0.706100
     36 C14        -0.8980    6.8530   -8.3090 ca        1 F4D     -0.056500
     37 C13        -0.3670    5.5740   -8.3740 ca        1 F4D     -0.163000
     38 H1          2.1220    0.2960    0.5650 ha        1 F4D      0.165000
     39 H2          3.6820   -1.1590    1.8620 ha        1 F4D      0.173500
     40 H3          3.1890   -4.3010   -1.0990 ha        1 F4D      0.173500
     41 H4          1.6330   -2.8320   -2.3860 ha        1 F4D      0.165000
     42 H5          2.7250    0.6640   -2.6700 hn        1 F4D      0.455800
     43 H6          5.7360    3.4250   -3.2030 ha        1 F4D      0.177500
     44 H7          7.9600    3.0140   -4.2680 ha        1 F4D      0.150500
     45 H8          9.3130    0.3200   -5.2030 hn        1 F4D      0.492400
     46 H9          7.8700    2.0200   -8.4090 hn        1 F4D      0.470133
     47 H10         8.6720    3.2550   -7.6190 hn        1 F4D      0.470133
     48 H11         6.0210    0.6980   -7.3970 ha        1 F4D      0.150500
     49 H12         3.8130    1.1120   -6.3460 ha        1 F4D      0.177500
     50 H13        -0.5930    0.3870   -4.2900 ha        1 F4D      0.206000
     51 H14        -1.1790    1.8360   -6.2410 ha        1 F4D      0.179000
     52 H15        -0.0000    4.9820   -4.9960 ha        1 F4D      0.177000
     53 H16        -0.9460    7.2750   -4.9000 ha        1 F4D      0.150500
     54 H17        -3.6480    8.3630   -6.7130 hn        1 F4D      0.471467
     55 H18        -3.4560    9.8560   -7.4490 hn        1 F4D      0.471467
     56 H19        -0.1490    9.9500   -6.3930 hn        1 F4D      0.489400
     57 H20        -1.1270    7.3890   -9.2430 ha        1 F4D      0.150500
     58 H21        -0.1860    5.0780   -9.3410 ha        1 F4D      0.177000
     59 H53         9.5400    1.9680   -8.2480 hn        1 F4D      0.470133
     60 H43        -3.1950    8.4450   -8.3190 hn        1 F4D      0.471467
@<TRIPOS>BOND
     1    1    2 2   
     2    2    3 2   
     3    2    4 1   
     4    2   11 1   
     5    4    5 ar  
     6    4   10 ar  
     7    5    6 ar  
     8    5   38 1   
     9    6    7 ar  
    10    6   39 1   
    11    7    8 1   
    12    7    9 ar  
    13    9   10 ar  
    14    9   40 1   
    15   10   41 1   
    16   11   12 1   
    17   11   42 1   
    18   12   13 ar  
    19   12   24 ar  
    20   13   14 1   
    21   13   27 ar  
    22   14   15 1   
    23   15   16 ar  
    24   15   23 ar  
    25   16   17 ar  
    26   16   43 1   
    27   17   18 ar  
    28   17   44 1   
    29   18   19 1   
    30   18   22 ar  
    31   19   20 2   
    32   19   21 1   
    33   20   45 1   
    34   21   46 1   
    35   21   47 1   
    36   21   59 1   
    37   22   23 ar  
    38   22   48 1   
    39   23   49 1   
    40   24   25 ar  
    41   24   50 1   
    42   25   26 ar  
    43   25   51 1   
    44   26   27 ar  
    45   26   28 1   
    46   28   29 1   
    47   29   30 ar  
    48   29   37 ar  
    49   30   31 ar  
    50   30   52 1   
    51   31   32 ar  
    52   31   53 1   
    53   32   33 1   
    54   32   36 ar  
    55   33   34 1   
    56   33   35 2   
    57   34   54 1   
    58   34   55 1   
    59   34   60 1   
    60   35   56 1   
    61   36   37 ar  
    62   36   57 1   
    63   37   58 1   
@<TRIPOS>SUBSTRUCTURE
     1 F4D         1 TEMP              0 ****  ****    0 ROOT
