@<TRIPOS>MOLECULE
F4D
   60    63     1     0     0
SMALL
bcc


@<TRIPOS>ATOM
      1 O4         -0.1170   -1.0070   -2.5760 o         1 F4D     -0.636800
      2 S1          0.7830   -0.2360   -1.8270 sy        1 F4D      1.531200
      3 O3          0.2330    0.7150   -0.9630 o         1 F4D     -0.636800
      4 C18         1.8870   -1.1870   -1.0360 ca        1 F4D     -0.458500
      5 C23         2.4860   -0.7500    0.1570 ca        1 F4D      0.018500
      6 C22         3.3620   -1.5580    0.8650 ca        1 F4D     -0.196000
      7 C21         3.6540   -2.8500    0.3790 ca        1 F4D      0.223900
      8 F1          4.5070   -3.6450    1.0520 f         1 F4D     -0.106900
      9 C20         3.0530   -3.3120   -0.8120 ca        1 F4D     -0.196000
     10 C19         2.1810   -2.4810   -1.4970 ca        1 F4D      0.018500
     11 N2          1.7990    0.5640   -2.8980 nh        1 F4D     -0.736500
     12 C1          1.4130    1.2900   -4.0110 ca        1 F4D      0.132300
     13 C2          2.2780    2.2640   -4.6180 ca        1 F4D      0.513600
     14 O1          3.5170    2.4860   -3.9950 os        1 F4D     -0.350400
     15 C6          4.6570    2.2920   -4.7510 ca        1 F4D      0.184100
     16 C12         5.8280    2.8390   -4.1860 ca        1 F4D     -0.155000
     17 C11         7.0480    2.6150   -4.8080 ca        1 F4D     -0.060000
     18 C10         7.1070    1.8620   -5.9900 ca        1 F4D     -0.301900
     19 C25         8.4210    1.5710   -6.5930 ce        1 F4D      0.594800
     20 N6          9.3970    0.8470   -6.2030 n2        1 F4D     -0.704100
     21 N5          8.6070    2.2890   -7.9080 n4        1 F4D     -0.825600
     22 C9          5.9380    1.3380   -6.5560 ca        1 F4D     -0.060000
     23 C8          4.7080    1.5490   -5.9400 ca        1 F4D     -0.155000
     24 C5          0.1370    1.1400   -4.6180 ca        1 F4D     -0.146000
     25 C4         -0.2220    1.9430   -5.6910 ca        1 F4D     -0.170300
     26 C3          0.7090    2.8950   -6.1600 ca        1 F4D      0.529600
     27 N1          1.9520    3.0630   -5.6570 nb        1 F4D     -0.652000
     28 O2          0.3720    3.6260   -7.3120 os        1 F4D     -0.340400
     29 C7         -0.1030    4.9060   -7.1140 ca        1 F4D      0.187100
     30 C17        -0.2860    5.5070   -5.8600 ca        1 F4D     -0.163000
     31 C16        -0.8200    6.7900   -5.7910 ca        1 F4D     -0.056500
     32 C15        -1.1730    7.4680   -6.9650 ca        1 F4D     -0.307900
     33 C24        -1.7080    8.8390   -6.8790 ce        1 F4D      0.596800
     34 N4         -3.1680    8.8920   -7.2590 n4        1 F4D     -0.825600
     35 N3         -1.1700    9.9460   -6.5440 n2        1 F4D     -0.706100
     36 C14        -0.9740    6.8670   -8.2180 ca        1 F4D     -0.056500
     37 C13        -0.4390    5.5910   -8.3020 ca        1 F4D     -0.163000
     38 H1          2.2330    0.2530    0.5520 ha        1 F4D      0.165000
     39 H2          3.8200   -1.2130    1.8050 ha        1 F4D      0.173500
     40 H3          3.2700   -4.3300   -1.1730 ha        1 F4D      0.173500
     41 H4          1.6870   -2.8510   -2.4150 ha        1 F4D      0.165000
     42 H5          2.7700    0.6510   -2.6900 hn        1 F4D      0.455800
     43 H6          5.7620    3.4260   -3.2560 ha        1 F4D      0.177500
     44 H7          7.9680    3.0300   -4.3630 ha        1 F4D      0.150500
     45 H8          9.3130    0.3470   -5.3410 hn        1 F4D      0.492400
     46 H9          9.4800    2.0170   -8.3780 hn        1 F4D      0.470133
     47 H10         7.8080    2.0650   -8.5090 hn        1 F4D      0.470133
     48 H11         5.9810    0.7300   -7.4730 ha        1 F4D      0.150500
     49 H12         3.7910    1.1280   -6.3810 ha        1 F4D      0.177500
     50 H13        -0.5760    0.3750   -4.2520 ha        1 F4D      0.206000
     51 H14        -1.2010    1.8360   -6.1810 ha        1 F4D      0.179000
     52 H15        -0.0110    4.9760   -4.9350 ha        1 F4D      0.177000
     53 H16        -0.9620    7.2650   -4.8070 ha        1 F4D      0.150500
     54 H17        -3.2750    8.4510   -8.1780 hn        1 F4D      0.471467
     55 H18        -3.7000    8.3560   -6.5650 hn        1 F4D      0.471467
     56 H19        -0.2020    9.9530   -6.2930 hn        1 F4D      0.489400
     57 H20        -1.2210    7.4090   -9.1450 ha        1 F4D      0.150500
     58 H21        -0.2740    5.1030   -9.2760 ha        1 F4D      0.177000
     59 H53         8.6190    3.2970   -7.7240 hn        1 F4D      0.470133
     60 H43        -3.5260    9.8550   -7.2930 hn        1 F4D      0.471467
@<TRIPOS>BOND
     1    1    2 2   
     2    2    3 2   
     3    2    4 1   
     4    2   11 1   
     5    4    5 ar  
     6    4   10 ar  
     7    5    6 ar  
     8    5   38 1   
     9    6    7 ar  
    10    6   39 1   
    11    7    8 1   
    12    7    9 ar  
    13    9   10 ar  
    14    9   40 1   
    15   10   41 1   
    16   11   12 1   
    17   11   42 1   
    18   12   13 ar  
    19   12   24 ar  
    20   13   14 1   
    21   13   27 ar  
    22   14   15 1   
    23   15   16 ar  
    24   15   23 ar  
    25   16   17 ar  
    26   16   43 1   
    27   17   18 ar  
    28   17   44 1   
    29   18   19 1   
    30   18   22 ar  
    31   19   20 2   
    32   19   21 1   
    33   20   45 1   
    34   21   46 1   
    35   21   47 1   
    36   21   59 1   
    37   22   23 ar  
    38   22   48 1   
    39   23   49 1   
    40   24   25 ar  
    41   24   50 1   
    42   25   26 ar  
    43   25   51 1   
    44   26   27 ar  
    45   26   28 1   
    46   28   29 1   
    47   29   30 ar  
    48   29   37 ar  
    49   30   31 ar  
    50   30   52 1   
    51   31   32 ar  
    52   31   53 1   
    53   32   33 1   
    54   32   36 ar  
    55   33   34 1   
    56   33   35 2   
    57   34   54 1   
    58   34   55 1   
    59   34   60 1   
    60   35   56 1   
    61   36   37 ar  
    62   36   57 1   
    63   37   58 1   
@<TRIPOS>SUBSTRUCTURE
     1 F4D         1 TEMP              0 ****  ****    0 ROOT
