@<TRIPOS>MOLECULE
F4H
   37    38     1     0     0
SMALL
bcc


@<TRIPOS>ATOM
      1 P           4.7300   -0.5260    0.0760 p5        1 F4H      1.431800
      2 N1         -2.5760   -0.1770    0.4510 n         1 F4H     -0.321000
      3 C2         -3.9790   -0.2000    0.6250 c         1 F4H      0.799500
      4 O2         -4.6040   -1.2080    1.0330 o         1 F4H     -0.682500
      5 N3         -4.7050    0.9800    0.3690 n         1 F4H     -0.593500
      6 C4         -4.1020    2.1790   -0.0510 c         1 F4H      0.725700
      7 O4         -4.8480    3.1590   -0.2620 o         1 F4H     -0.683500
      8 C5         -2.6490    2.1510   -0.1900 cc        1 F4H     -0.331400
      9 C6         -1.9600    0.9890    0.0460 cd        1 F4H      0.105600
     10 C1'        -0.6560   -1.2730    1.6150 c3        1 F4H      0.137400
     11 C2'        -1.8160   -1.4200    0.6110 c3        1 F4H      0.029700
     12 C3'        -1.2160   -2.0010   -0.7040 c3        1 F4H      0.053600
     13 F3'        -2.1820   -2.0670   -1.6920 f         1 F4H     -0.262300
     14 C4'         0.1040   -1.2680   -1.2470 c3        1 F4H      0.404800
     15 O4'         0.6520   -1.9680   -2.2000 o         1 F4H     -0.834500
     16 C5'         1.0530   -1.0690   -0.0180 c3        1 F4H      0.026100
     17 O5'         0.3760   -0.4640    1.1050 os        1 F4H     -0.425600
     18 C5M        -1.9690    3.3970   -0.5940 c3        1 F4H     -0.008900
     19 C6'         2.1930   -0.1050   -0.3710 c3        1 F4H      0.205400
     20 O6'         3.2080   -0.1520    0.5850 os        1 F4H     -0.588200
     21 HN3        -5.6930    0.9300    0.4660 hn        1 F4H      0.327500
     22 H6         -0.8480    0.9210   -0.0570 h4        1 F4H      0.234000
     23 H1'        -0.9870   -0.7670    2.5600 h1        1 F4H      0.034700
     24 H1'A       -0.2810   -2.3050    1.8510 h1        1 F4H      0.034700
     25 H2'        -2.5480   -2.1770    1.0260 h1        1 F4H      0.066700
     26 H3'        -0.9090   -3.0570   -0.4500 h1        1 F4H      0.037700
     27 H4'        -0.2600   -0.2320   -1.5570 h1        1 F4H     -0.092300
     28 HO4'        3.9040   -2.2150   -1.0430 ho        1 F4H      0.434000
     29 H5'         1.4730   -2.0580    0.3050 h1        1 F4H      0.043700
     30 H5M        -1.9660    4.1300    0.2520 hc        1 F4H      0.036700
     31 H5MA       -0.9110    3.1950   -0.8940 hc        1 F4H      0.036700
     32 H5MB       -2.5070    3.8660   -1.4550 hc        1 F4H      0.036700
     33 H6'         2.5870   -0.3800   -1.3900 h1        1 F4H      0.034700
     34 H6'A        1.7770    0.9420   -0.3980 h1        1 F4H      0.034700
     35 O1P         5.6440   -0.4350    1.2340 o         1 F4H     -0.849000
     36 O2P         4.4730   -2.0970   -0.2910 oh        1 F4H     -0.790400
     37 O3P         4.9440    0.1530   -1.2220 o         1 F4H     -0.849000
@<TRIPOS>BOND
     1    1   20 1   
     2    1   35 1   
     3    1   36 1   
     4    1   37 1   
     5    2    3 1   
     6    2    9 1   
     7    2   11 1   
     8    3    4 2   
     9    3    5 1   
    10    5    6 1   
    11    5   21 1   
    12    6    7 2   
    13    6    8 1   
    14    8    9 2   
    15    8   18 1   
    16    9   22 1   
    17   10   11 1   
    18   10   17 1   
    19   10   23 1   
    20   10   24 1   
    21   11   12 1   
    22   11   25 1   
    23   12   13 1   
    24   12   14 1   
    25   12   26 1   
    26   14   15 1   
    27   14   16 1   
    28   14   27 1   
    29   16   17 1   
    30   16   19 1   
    31   16   29 1   
    32   18   30 1   
    33   18   31 1   
    34   18   32 1   
    35   19   20 1   
    36   19   33 1   
    37   19   34 1   
    38   28   36 1   
@<TRIPOS>SUBSTRUCTURE
     1 F4H         1 TEMP              0 ****  ****    0 ROOT
