@<TRIPOS>MOLECULE
F4P
   47    45     1     0     0
SMALL
bcc


@<TRIPOS>ATOM
      1 C12         4.1990    1.7980    3.2320 c2        1 F4P     -0.192100
      2 C16        -1.2020   -1.1010    1.2190 cg        1 F4P     -0.679300
      3 C17        -5.5910   -1.1200   -1.1310 ce        1 F4P     -0.094700
      4 C21        -0.6590   -0.5360    5.2370 c1        1 F4P     -0.183000
      5 C13         2.9230    1.7300    3.0200 c1        1 F4P     -0.110800
      6 C15        -0.3280   -0.8400    2.0590 c1        1 F4P     -0.087000
      7 C18        -6.4790   -0.3000   -0.4330 cg        1 F4P     -0.177300
      8 C20        -1.1190   -0.4000    6.3330 c1        1 F4P     -0.183000
      9 C5         -2.7270    5.7360    1.4270 cc        1 F4P      0.536900
     10 C7         -3.4170    5.8620    3.4810 cd        1 F4P      0.474400
     11 C11        -2.1320   -1.4190    0.2720 ce        1 F4P      0.233300
     12 C8         -4.2980   -1.3830   -0.8600 cf        1 F4P     -0.038000
     13 C14         1.6350    1.5910    2.8050 c2        1 F4P      0.021400
     14 C19        -7.3160    0.3720    0.0990 c1        1 F4P     -0.030900
     15 C23        -3.7770   -1.6220    2.9910 c2        1 F4P     -0.120000
     16 C25        -2.4510    1.5860    2.6540 c3        1 F4P      0.065000
     17 C22        -4.2860   -0.5110    2.4540 c2        1 F4P     -0.113000
     18 C26        -3.0180    1.2690    1.2620 c3        1 F4P      0.115800
     19 C9         -3.4240   -0.9220    0.1930 cf        1 F4P     -0.237000
     20 N6         -3.0550    6.6490    2.4590 nc        1 F4P     -0.679000
     21 N4         -2.8780    4.4400    1.7960 nd        1 F4P     -0.533800
     22 N2         -3.3030    4.4970    3.0780 n         1 F4P     -0.079500
     23 N24        -3.4080    2.0760    3.6020 n         1 F4P     -0.541900
     24 N10        -3.9250    0.0660    1.1570 n4        1 F4P     -0.401000
     25 O3         -4.2360    3.6840    5.0040 o         1 F4P     -0.598100
     26 F28         0.7810    2.6400    2.7140 f         1 F4P     -0.196500
     27 F27        -8.2010    1.1080    0.6920 f         1 F4P      0.012900
     28 H12         4.9290    1.8680    2.4110 ha        1 F4P      0.125500
     29 H16        -1.8370   -2.1470   -0.5140 ha        1 F4P      0.133000
     30 H17        -3.7840   -2.0800   -1.5560 ha        1 F4P      0.144000
     31 H21        -0.2410   -0.6610    4.2560 ha        1 F4P      0.179000
     32 H13         4.6290    1.7840    4.2450 ha        1 F4P      0.125500
     33 H15         1.1360    0.5990    2.6760 h4        1 F4P      0.216000
     34 H18        -6.0500   -1.6030   -2.0180 ha        1 F4P      0.153000
     35 H20        -1.5150   -0.2780    7.3080 ha        1 F4P      0.179000
     36 H7         -3.7530    6.1480    4.4860 h5        1 F4P      0.098100
     37 H23        -3.6290    1.4500    4.3510 hn        1 F4P      0.332500
     38 H23A       -4.1400   -1.9770    3.9680 ha        1 F4P      0.158000
     39 H25        -1.9740    0.6440    3.0750 h1        1 F4P      0.110700
     40 H25A       -1.6050    2.3210    2.4900 h1        1 F4P      0.110700
     41 H22        -2.9820   -2.2280    2.5270 ha        1 F4P      0.158000
     42 H22A       -5.0800    0.0790    2.9520 hx        1 F4P      0.163000
     43 H26        -4.8140    0.4220    0.7690 hn        1 F4P      0.443800
     44 H26A       -3.6070    2.1400    0.8610 hx        1 F4P      0.109200
     45 H9         -2.1260    1.0930    0.5910 hx        1 F4P      0.109200
     46 C1         -3.6470    3.4020    3.9390 c         1 F4P      0.689900
     47 H5         -2.3820    6.0640    0.4400 h5        1 F4P      0.079100
@<TRIPOS>BOND
     1    1    5 2   
     2    1   28 1   
     3    1   32 1   
     4    2    6 3   
     5    2   11 1   
     6    3    7 1   
     7    3   12 2   
     8    3   34 1   
     9    4    8 3   
    10    4   31 1   
    11    5   13 2   
    12    7   14 3   
    13    8   35 1   
    14    9   20 1   
    15    9   21 2   
    16    9   47 1   
    17   10   20 2   
    18   10   22 1   
    19   10   36 1   
    20   11   19 2   
    21   11   29 1   
    22   12   19 1   
    23   12   30 1   
    24   13   26 1   
    25   13   33 1   
    26   14   27 1   
    27   15   17 2   
    28   15   38 1   
    29   15   41 1   
    30   16   18 1   
    31   16   23 1   
    32   16   39 1   
    33   16   40 1   
    34   17   24 1   
    35   17   42 1   
    36   18   24 1   
    37   18   44 1   
    38   18   45 1   
    39   19   24 1   
    40   21   22 1   
    41   22   46 1   
    42   23   37 1   
    43   23   46 1   
    44   24   43 1   
    45   25   46 2   
@<TRIPOS>SUBSTRUCTURE
     1 F4P         1 TEMP              0 ****  ****    0 ROOT
