@<TRIPOS>MOLECULE
F4P
   47    41     1     0     0
SMALL
bcc


@<TRIPOS>ATOM
      1 C12         2.7950   -0.6730   -1.2810 c1        1 F4P     -0.075250
      2 C16         2.7380   -1.0100    1.0890 c1        1 F4P     -0.026500
      3 C17        -0.0670   -3.2760   -1.2840 c1        1 F4P     -0.075250
      4 C21         0.1090   -3.2620    1.1140 c1        1 F4P     -0.026500
      5 C13         4.1650   -0.5100   -1.2330 c1        1 F4P     -0.075250
      6 C15         4.1370   -0.8440    1.1400 c1        1 F4P     -0.111500
      7 C18        -0.3200   -4.6440   -1.2600 c1        1 F4P     -0.075250
      8 C20        -0.1450   -4.6350    1.1380 c1        1 F4P     -0.111500
      9 C5         -1.2770    5.9740   -0.5260 c1        1 F4P      0.137900
     10 C7         -3.3400    5.3120   -0.6400 c1        1 F4P      0.137900
     11 C11         2.0800   -0.9240   -0.1120 c1        1 F4P     -0.066600
     12 C8          0.1470   -2.5860   -0.0940 c1        1 F4P     -0.066600
     13 C14         4.8380   -0.5970   -0.0110 c1        1 F4P      0.097100
     14 C19        -0.3580   -5.3220   -0.0490 c1        1 F4P      0.097100
     15 C1         -3.0790    2.9760    0.0710 c1        1 F4P      0.652500
     16 C23        -2.5250    0.6160    0.8650 c3        1 F4P      0.017800
     17 C25        -0.7390    2.1620    0.7950 c3        1 F4P      0.017800
     18 C22        -1.6380   -0.4340    0.1630 c3        1 F4P      0.130800
     19 C26         0.1390    1.1430    0.0970 c3        1 F4P      0.130800
     20 C9          0.5470   -1.1360   -0.4240 c3        1 F4P      0.212700
     21 N6         -2.5120    6.3580   -0.8440 n1        1 F4P     -0.157000
     22 N4         -1.3320    4.6880   -0.1230 ne        1 F4P     -0.360900
     23 N2         -2.6050    4.2850   -0.1950 ne        1 F4P     -0.360900
     24 N24        -2.1280    1.9190    0.5740 n3        1 F4P     -0.230400
     25 N10        -0.2500   -0.2070    0.3950 n3        1 F4P     -0.724600
     26 O3         -4.2480    2.7090   -0.0990 o         1 F4P     -0.593500
     27 F28         6.1810   -0.5350    0.0470 f         1 F4P     -0.106100
     28 F27        -0.8120   -6.5520    0.1300 f         1 F4P     -0.106100
     29 H12         2.3230   -0.6110   -2.1400 ha        1 F4P      0.086500
     30 H16         2.2390   -1.1850    1.9030 ha        1 F4P      0.092000
     31 H17        -0.0410   -2.8020   -2.1340 ha        1 F4P      0.086500
     32 H21         0.2620   -2.7690    1.9680 ha        1 F4P      0.092000
     33 H13         4.6490   -0.3400   -2.0290 ha        1 F4P      0.086500
     34 H15         4.6010   -0.9040    1.9850 ha        1 F4P      0.093500
     35 H18        -0.4690   -5.1230   -2.0880 ha        1 F4P      0.086500
     36 H20        -0.1720   -5.1020    1.9730 ha        1 F4P      0.093500
     37 H5         -0.4720    6.5270   -0.5760 DU        1 F4P      0.222500
     38 H7         -4.3160    5.3050   -0.7900 DU        1 F4P      0.222500
     39 H23        -3.4140    0.5000    0.5860 h1        1 F4P      0.080450
     40 H23A       -2.4740    0.4760    1.8590 h1        1 F4P      0.080450
     41 H25        -0.5210    3.0220    0.4770 h1        1 F4P      0.080450
     42 H25A       -0.5620    2.1250    1.7520 h1        1 F4P      0.080450
     43 H22        -1.8710   -1.3160    0.4990 h1        1 F4P      0.050450
     44 H22A       -1.8110   -0.4060   -0.8120 h1        1 F4P      0.050450
     45 H26         0.0760    1.2870   -0.8910 h1        1 F4P      0.050450
     46 H26A        1.0880    1.2790    0.3880 h1        1 F4P      0.050450
     47 H9          0.3820   -0.9610   -1.3690 h1        1 F4P      0.033700
@<TRIPOS>BOND
     1    1    5 3   
     2    1   29 1   
     3    2   11 3   
     4    2   30 1   
     5    3    7 3   
     6    3   31 1   
     7    4   12 3   
     8    4   32 1   
     9    5   33 1   
    10    6   13 3   
    11    6   34 1   
    12    7   35 1   
    13    8   14 3   
    14    8   36 1   
    15    9   21 2   
    16    9   22 2   
    17   10   21 2   
    18   10   23 2   
    19   11   20 1   
    20   12   20 1   
    21   13   27 1   
    22   14   28 1   
    23   15   24 2   
    24   15   26 2   
    25   16   18 1   
    26   16   24 1   
    27   16   39 1   
    28   16   40 1   
    29   17   19 1   
    30   17   24 1   
    31   17   41 1   
    32   17   42 1   
    33   18   25 1   
    34   18   43 1   
    35   18   44 1   
    36   19   25 1   
    37   19   45 1   
    38   19   46 1   
    39   20   25 1   
    40   20   47 1   
    41   22   23 1   
@<TRIPOS>SUBSTRUCTURE
     1 F4P         1 TEMP              0 ****  ****    0 ROOT
