@<TRIPOS>MOLECULE
F4P
   47    50     1     0     0
SMALL
bcc


@<TRIPOS>ATOM
      1 C12         2.2070   -2.1800    1.4400 ca        1 F4P     -0.091750
      2 C16         2.0370   -1.8870   -0.9530 ca        1 F4P     -0.091750
      3 C17         3.0460    1.5510    1.4560 ca        1 F4P     -0.091750
      4 C21         2.7710    1.3790   -0.9390 ca        1 F4P     -0.091750
      5 C13         2.7570   -3.4450    1.2580 ca        1 F4P     -0.167500
      6 C15         2.5820   -3.1500   -1.1570 ca        1 F4P     -0.167500
      7 C18         4.0850    2.4600    1.2830 ca        1 F4P     -0.167500
      8 C20         3.8050    2.2880   -1.1340 ca        1 F4P     -0.167500
      9 C5         -6.5440   -1.0230   -0.0870 cc        1 F4P      0.522900
     10 C7         -6.0360    0.6530    1.1930 cd        1 F4P      0.463400
     11 C11         1.8440   -1.3930    0.3420 ca        1 F4P     -0.100800
     12 C8          2.3830    1.0030    0.3520 ca        1 F4P     -0.100800
     13 C14         2.9460   -3.9350   -0.0480 ca        1 F4P      0.129900
     14 C19         4.4690    2.8320   -0.0190 ca        1 F4P      0.129900
     15 C23        -1.7040    1.9020   -0.8210 c3        1 F4P      0.074500
     16 C25        -2.2370   -0.4550   -0.8410 c3        1 F4P      0.074500
     17 C22        -0.4280    1.6140   -0.0050 c3        1 F4P      0.130800
     18 C26        -0.9530   -0.7400   -0.0270 c3        1 F4P      0.130800
     19 C9          1.2820   -0.0090    0.5860 c3        1 F4P      0.281100
     20 N6         -7.0310   -0.2160    0.9720 nc        1 F4P     -0.683000
     21 N4         -5.3020   -0.6700   -0.4970 nd        1 F4P     -0.510800
     22 N2         -4.9580    0.3670    0.3010 n         1 F4P     -0.078500
     23 N24        -2.7440    0.8920   -0.6780 n         1 F4P     -0.410800
     24 N10         0.0820    0.2660   -0.2250 n3        1 F4P     -0.724600
     25 O3         -3.8350    2.2680    0.8570 o         1 F4P     -0.599100
     26 F28         3.4790   -5.1660   -0.2360 f         1 F4P     -0.138900
     27 F27         5.4780    3.7170   -0.1980 f         1 F4P     -0.138900
     28 H12         2.0620   -1.8010    2.4640 ha        1 F4P      0.143250
     29 H16         1.7540   -1.2720   -1.8220 ha        1 F4P      0.143250
     30 H17         2.7500    1.2630    2.4770 ha        1 F4P      0.143250
     31 H21         2.2530    0.9510   -1.8130 ha        1 F4P      0.143250
     32 H13         3.0450   -4.0640    2.1190 ha        1 F4P      0.151000
     33 H15         2.7340   -3.5400   -2.1740 ha        1 F4P      0.151000
     34 H18         4.6090    2.8890    2.1490 ha        1 F4P      0.151000
     35 H20         4.1110    2.5840   -2.1480 ha        1 F4P      0.151000
     36 H7         -5.9890    1.4710    1.9230 h5        1 F4P      0.095100
     37 H23        -2.0940    2.9130   -0.5150 h1        1 F4P      0.080450
     38 H23A       -1.4480    1.9280   -1.9190 h1        1 F4P      0.080450
     39 H25        -2.0110   -0.5750   -1.9400 h1        1 F4P      0.080450
     40 H25A       -2.9840   -1.2390   -0.5520 h1        1 F4P      0.080450
     41 H22         0.3630    2.3420   -0.3410 h1        1 F4P      0.050450
     42 H22A       -0.6420    1.8110    1.0860 h1        1 F4P      0.050450
     43 H26        -1.2300   -0.8480    1.0630 h1        1 F4P      0.050450
     44 H26A       -0.5450   -1.7300   -0.3800 h1        1 F4P      0.050450
     45 H9          1.0000    0.0500    1.6890 h1        1 F4P      0.033700
     46 C1         -3.7940    1.2070    0.1980 c         1 F4P      0.681900
     47 H5         -7.1280   -1.8440   -0.5170 h5        1 F4P      0.076100
@<TRIPOS>BOND
     1    1    5 ar  
     2    1   11 ar  
     3    1   28 1   
     4    2    6 ar  
     5    2   11 ar  
     6    2   29 1   
     7    3    7 ar  
     8    3   12 ar  
     9    3   30 1   
    10    4    8 ar  
    11    4   12 ar  
    12    4   31 1   
    13    5   13 ar  
    14    5   32 1   
    15    6   13 ar  
    16    6   33 1   
    17    7   14 ar  
    18    7   34 1   
    19    8   14 ar  
    20    8   35 1   
    21    9   20 1   
    22    9   21 2   
    23    9   47 1   
    24   10   20 2   
    25   10   22 1   
    26   10   36 1   
    27   11   19 1   
    28   12   19 1   
    29   13   26 1   
    30   14   27 1   
    31   15   17 1   
    32   15   23 1   
    33   15   37 1   
    34   15   38 1   
    35   16   18 1   
    36   16   23 1   
    37   16   39 1   
    38   16   40 1   
    39   17   24 1   
    40   17   41 1   
    41   17   42 1   
    42   18   24 1   
    43   18   43 1   
    44   18   44 1   
    45   19   24 1   
    46   19   45 1   
    47   21   22 1   
    48   22   46 1   
    49   23   46 1   
    50   25   46 2   
@<TRIPOS>SUBSTRUCTURE
     1 F4P         1 TEMP              0 ****  ****    0 ROOT
