@<TRIPOS>MOLECULE
F4P
   47    45     1     0     0
SMALL
bcc


@<TRIPOS>ATOM
      1 C12         4.9720   -2.7020   -1.0170 c2        1 F4P     -0.114000
      2 C16        -0.2010    1.2420    0.4570 c2        1 F4P     -0.474000
      3 C17        -3.3610   -1.4840    2.3650 c2        1 F4P     -0.063000
      4 C21        -2.4250   -0.5660    4.4340 c2        1 F4P     -0.523000
      5 C13         3.8880   -2.1080   -0.6310 c1        1 F4P     -0.224000
      6 C15         0.9780    1.2840   -0.1330 c1        1 F4P      0.236000
      7 C18        -3.4780   -2.7410    2.0610 c1        1 F4P     -0.238000
      8 C20        -1.6070   -0.6660    5.4570 c1        1 F4P      0.232000
      9 C5         -6.2940    6.8330    4.8410 c2        1 F4P     -0.144000
     10 C7         -7.1030    5.0140    5.7030 c2        1 F4P     -0.028000
     11 C11        -0.6950    0.1880    1.3090 c2        1 F4P     -0.049000
     12 C8         -2.1360   -0.9050    3.0100 c3        1 F4P      0.061000
     13 C14         2.8060   -1.4600   -0.2670 c2        1 F4P      0.027000
     14 C19        -3.6030   -3.9960    1.6960 c2        1 F4P      0.066000
     15 C23        -4.8770    1.8200    2.5900 c3        1 F4P      0.100000
     16 C25        -1.1080    4.9100    0.2570 c1        1 F4P     -0.236000
     17 C22        -3.6420    1.6970    1.8170 c2        1 F4P     -0.769000
     18 C26        -2.0880    4.2760    0.5230 c1        1 F4P     -0.236000
     19 C9         -1.6780    0.3050    2.2270 c2        1 F4P     -0.145000
     20 N6         -7.1630    6.3480    5.8480 n2        1 F4P     -0.165000
     21 N4         -5.7240    5.8430    4.1090 n2        1 F4P     -0.095000
     22 N2         -6.2210    4.7020    4.6350 n         1 F4P     -0.206000
     23 N24        -4.9990    3.1440    3.2020 n         1 F4P     -0.359000
     24 N10        -2.3900    1.5700    2.4750 n4        1 F4P      0.185000
     25 O3         -6.4920    2.4320    4.8300 o         1 F4P     -0.383000
     26 F28         1.8150   -2.0100    0.4750 f         1 F4P     -0.127000
     27 F27        -4.1130   -4.9630    2.4890 f         1 F4P     -0.105000
     28 H12         5.8930   -2.6940   -0.4140 ha        1 F4P      0.135000
     29 H16        -0.2030   -0.7970    1.1790 ha        1 F4P      0.164000
     30 H17        -1.3000   -1.6650    2.9820 hc        1 F4P      0.120000
     31 H21        -3.4740   -0.2510    4.6390 ha        1 F4P      0.212000
     32 H13         5.0360   -3.2480   -1.9710 ha        1 F4P      0.135000
     33 H15         2.6150   -0.4020   -0.5390 h4        1 F4P      0.169000
     34 H18        -4.1680   -0.7520    2.1520 ha        1 F4P      0.174000
     35 H20        -3.2960   -4.3600    0.6980 h4        1 F4P      0.157000
     36 H7         -7.6250    4.2380    6.2770 h5        1 F4P      0.230000
     37 H23        -5.7520    1.6510    1.8980 h1        1 F4P      0.076500
     38 H23A       -4.9570    1.0730    3.4370 h1        1 F4P      0.076500
     39 H25        -4.6460    3.9090    2.6710 hn        1 F4P      0.241000
     40 H25A       -0.2440    5.4800    0.0220 ha        1 F4P      0.236000
     41 H22        -2.5220    1.6620    3.4890 hn        1 F4P      0.210500
     42 H22A       -3.6540    1.4900    0.7500 hx        1 F4P      0.157000
     43 H26        -1.7740    2.3330    2.1620 hn        1 F4P      0.210500
     44 H26A       -2.9750    3.7260    0.7540 ha        1 F4P      0.236000
     45 H9         -0.8850    2.0990    0.2300 ha        1 F4P      0.213000
     46 C1         -5.9190    3.3510    4.2020 c2        1 F4P      0.416000
     47 H5         -6.1140    7.9010    4.6840 h5        1 F4P      0.209000
@<TRIPOS>BOND
     1    1    5 1   
     2    1   28 1   
     3    1   32 1   
     4    2    6 1   
     5    2   11 1   
     6    2   45 1   
     7    3    7 1   
     8    3   12 1   
     9    3   34 1   
    10    4    8 1   
    11    4   12 1   
    12    4   31 1   
    13    5   13 1   
    14    7   14 1   
    15    9   20 1   
    16    9   21 1   
    17    9   47 1   
    18   10   20 1   
    19   10   22 1   
    20   10   36 1   
    21   11   19 1   
    22   11   29 1   
    23   12   19 1   
    24   12   30 1   
    25   13   26 1   
    26   13   33 1   
    27   14   27 1   
    28   14   35 1   
    29   15   17 1   
    30   15   23 1   
    31   15   37 1   
    32   15   38 1   
    33   16   18 1   
    34   16   40 1   
    35   17   24 1   
    36   17   42 1   
    37   18   44 1   
    38   19   24 1   
    39   21   22 1   
    40   22   46 1   
    41   23   39 1   
    42   23   46 1   
    43   24   41 1   
    44   24   43 1   
    45   25   46 1   
@<TRIPOS>SUBSTRUCTURE
     1 F4P         1 TEMP              0 ****  ****    0 ROOT
