@<TRIPOS>MOLECULE
F4P
   47    44     1     0     0
SMALL
bcc


@<TRIPOS>ATOM
      1 C12         0.3900    2.8540    0.5020 c2        1 F4P     -0.115000
      2 C16        -0.8510   -2.4330    3.9270 c1        1 F4P     -0.572000
      3 C17        -2.4580   -4.3430   -0.6190 c1        1 F4P     -0.150000
      4 C21        -3.7420   -2.1680    1.7680 c2        1 F4P     -0.447000
      5 C13         1.0780    2.0730    1.2720 c1        1 F4P     -0.239000
      6 C15        -0.5830   -3.6690    4.1100 c1        1 F4P      0.211000
      7 C18        -2.8800   -4.0240    0.4530 c1        1 F4P     -0.218000
      8 C20        -4.9910   -1.7300    1.7670 c1        1 F4P      0.240000
      9 C5         -0.9420    6.1190    4.4110 c2        1 F4P     -0.133000
     10 C7         -2.2660    6.0560    2.6920 c2        1 F4P     -0.023000
     11 C11        -1.0950   -1.1460    3.7750 c2        1 F4P      0.221000
     12 C8         -2.5830   -1.2240    1.7460 c3        1 F4P     -0.095000
     13 C14         1.8100    1.2760    2.0150 c2        1 F4P      0.037000
     14 C19        -3.3690   -3.6430    1.7680 c3        1 F4P      0.254000
     15 C23        -4.7710    1.9840    4.0200 c3        1 F4P     -0.017000
     16 C25        -2.6010    1.3160   -0.8750 c1        1 F4P     -0.230500
     17 C22        -4.1950    0.8480    3.1470 c3        1 F4P     -0.154000
     18 C26        -3.2480    2.0970   -0.2400 c1        1 F4P     -0.230500
     19 C9         -2.3180   -0.6260    3.1080 c2        1 F4P     -0.033000
     20 N6         -1.2670    6.7880    3.2040 n2        1 F4P     -0.158000
     21 N4         -1.7060    5.0230    4.6340 n2        1 F4P     -0.083000
     22 N2         -2.5380    4.9660    3.5670 n         1 F4P     -0.208000
     23 N24        -3.8650    3.0600    4.3250 ns        1 F4P     -0.319000
     24 N10        -3.0100    0.2780    3.7180 n2        1 F4P     -0.160000
     25 O3         -4.1710    4.0440    2.2420 o         1 F4P     -0.389000
     26 F28         1.5090    0.9600    3.2970 f         1 F4P     -0.120000
     27 F27        -4.4310   -4.4410    2.1780 f         1 F4P     -0.151000
     28 H12        -0.4300    2.4810   -0.1360 ha        1 F4P      0.138500
     29 H16        -0.3750   -0.3730    4.1240 ha        1 F4P      0.163000
     30 H17        -1.6700   -1.7740    1.3890 hc        1 F4P      0.121500
     31 H21        -2.7780   -0.3930    1.0080 hc        1 F4P      0.121500
     32 H13         0.5800    3.9370    0.4420 ha        1 F4P      0.138500
     33 H15         2.7380    0.7970    1.6520 h4        1 F4P      0.158000
     34 H18        -2.0820   -4.6320   -1.5680 ha        1 F4P      0.228000
     35 H20        -2.5280   -3.7810    2.5270 h1        1 F4P      0.141000
     36 H7         -2.8260    6.2130    1.7620 h5        1 F4P      0.230000
     37 H23        -5.6570    2.4040    3.4580 h1        1 F4P      0.119000
     38 H23A       -5.1210    1.5650    5.0050 h1        1 F4P      0.119000
     39 H25        -3.2080    2.8950    5.0570 hn        1 F4P      0.256000
     40 H25A       -2.0360    0.6250   -1.4490 ha        1 F4P      0.232000
     41 H22        -3.9990    1.2590    2.1090 h1        1 F4P      0.118500
     42 H22A       -5.0140    0.0690    3.0500 h1        1 F4P      0.118500
     43 H26        -6.1430    3.1760    1.0440 ha        1 F4P      0.001500
     44 H26A       -5.9030    2.5620    1.1980 ha        1 F4P      0.001500
     45 H9         -3.8230    2.8000    0.3220 ha        1 F4P      0.232000
     46 C1         -3.5590    3.9780    3.3320 c2        1 F4P      0.427000
     47 H5         -0.1490    6.4690    5.0820 h5        1 F4P      0.215000
@<TRIPOS>BOND
     1    1    5 1   
     2    1   28 1   
     3    1   32 1   
     4    2    6 1   
     5    2   11 1   
     6    3    7 1   
     7    3   34 1   
     8    4    8 1   
     9    4   12 1   
    10    4   14 1   
    11    5   13 1   
    12    7   14 1   
    13    9   20 1   
    14    9   21 1   
    15    9   47 1   
    16   10   20 1   
    17   10   22 1   
    18   10   36 1   
    19   11   19 1   
    20   11   29 1   
    21   12   19 1   
    22   12   30 1   
    23   12   31 1   
    24   13   26 1   
    25   13   33 1   
    26   14   27 1   
    27   14   35 1   
    28   15   17 1   
    29   15   23 1   
    30   15   37 1   
    31   15   38 1   
    32   16   18 1   
    33   16   40 1   
    34   17   24 1   
    35   17   41 1   
    36   17   42 1   
    37   18   45 1   
    38   19   24 1   
    39   21   22 1   
    40   22   46 1   
    41   23   39 1   
    42   23   46 1   
    43   25   46 1   
    44   43   44 1   
@<TRIPOS>SUBSTRUCTURE
     1 F4P         1 TEMP              0 ****  ****    0 ROOT
