@<TRIPOS>MOLECULE
F50
    9     8     1     0     0
SMALL
bcc


@<TRIPOS>ATOM
      1 C           0.4290   -0.0200    0.0110 c         1 F50      0.599100
      2 OX1        -1.7690   -0.4590    0.3620 oh        1 F50     -0.367000
      3 O           0.0730    1.1530   -0.0820 o         1 F50     -0.514000
      4 OXT        -0.6030   -0.9580    0.1160 os        1 F50     -0.227100
      5 CH3         1.7770   -0.6330   -0.0100 c3        1 F50     -0.154100
      6 HX1        -2.0230    0.1460   -0.3740 ho        1 F50      0.413000
      7 HH31        2.2620   -0.4660    0.9850 hc        1 F50      0.083033
      8 HH32        1.7120   -1.7320   -0.2040 hc        1 F50      0.083033
      9 HH33        2.3940   -0.1460   -0.8040 hc        1 F50      0.083033
@<TRIPOS>BOND
     1    1    3 2   
     2    1    4 1   
     3    1    5 1   
     4    2    4 1   
     5    2    6 1   
     6    5    7 1   
     7    5    8 1   
     8    5    9 1   
@<TRIPOS>SUBSTRUCTURE
     1 F50         1 TEMP              0 ****  ****    0 ROOT
