@<TRIPOS>MOLECULE
F50
    9     8     1     0     0
SMALL
bcc


@<TRIPOS>ATOM
      1 C          -0.1620    0.2070    0.0800 c         1 F50      0.599100
      2 OX1        -0.0440   -0.6880    2.1610 oh        1 F50     -0.367000
      3 O           0.6680    1.0140    0.4920 o         1 F50     -0.514000
      4 OXT        -0.6840   -0.6670    1.0390 os        1 F50     -0.227100
      5 CH3        -0.7510    0.0160   -1.2660 c3        1 F50     -0.154100
      6 HX1        -0.0730    0.2120    2.5650 ho        1 F50      0.413000
      7 HH31       -0.9850    1.0140   -1.7130 hc        1 F50      0.083033
      8 HH32       -0.0030   -0.5080   -1.9130 hc        1 F50      0.083033
      9 HH33       -1.6810   -0.6000   -1.2110 hc        1 F50      0.083033
@<TRIPOS>BOND
     1    1    3 2   
     2    1    4 1   
     3    1    5 1   
     4    2    4 1   
     5    2    6 1   
     6    5    7 1   
     7    5    8 1   
     8    5    9 1   
@<TRIPOS>SUBSTRUCTURE
     1 F50         1 TEMP              0 ****  ****    0 ROOT
