@<TRIPOS>MOLECULE
F50
    9     7     1     0     0
SMALL
bcc


@<TRIPOS>ATOM
      1 C           0.3140    0.0000   -0.0560 c1        1 F50      0.270000
      2 OX1         0.6080    0.0000    2.2400 oh        1 F50     -0.166000
      3 O           1.5290    0.0000   -0.0560 o         1 F50     -0.325000
      4 OXT        -0.3880    0.0000    1.1600 o         1 F50     -0.137000
      5 CH3        -0.4420   -0.0000   -1.3670 c3        1 F50     -0.222000
      6 HX1         0.1940    0.0000    3.0250 ho        1 F50      0.212000
      7 HH31       -1.0020    0.7980   -1.4190 hc        1 F50      0.122333
      8 HH32        0.1920   -0.0020   -2.1090 hc        1 F50      0.122333
      9 HH33       -1.0050   -0.7960   -1.4180 hc        1 F50      0.122333
@<TRIPOS>BOND
     1    1    3 1   
     2    1    5 1   
     3    2    4 1   
     4    2    6 1   
     5    5    7 1   
     6    5    8 1   
     7    5    9 1   
@<TRIPOS>SUBSTRUCTURE
     1 F50         1 TEMP              0 ****  ****    0 ROOT
