@<TRIPOS>MOLECULE
F50
    9     8     1     0     0
SMALL
bcc


@<TRIPOS>ATOM
      1 C          -0.1160    0.1380    0.0640 c         1 F50      0.599100
      2 OX1        -0.1220   -0.7370    2.1560 oh        1 F50     -0.367000
      3 O           0.9070    0.7180    0.4210 o         1 F50     -0.514000
      4 OXT        -0.7910   -0.5690    1.0650 os        1 F50     -0.227100
      5 CH3        -0.7990    0.0870   -1.2500 c3        1 F50     -0.154100
      6 HX1         0.0930    0.1450    2.5420 ho        1 F50      0.413000
      7 HH31       -0.8030    1.1080   -1.7050 hc        1 F50      0.083033
      8 HH32       -0.2350   -0.6100   -1.9190 hc        1 F50      0.083033
      9 HH33       -1.8480   -0.2810   -1.1390 hc        1 F50      0.083033
@<TRIPOS>BOND
     1    1    3 2   
     2    1    4 1   
     3    1    5 1   
     4    2    4 1   
     5    2    6 1   
     6    5    7 1   
     7    5    8 1   
     8    5    9 1   
@<TRIPOS>SUBSTRUCTURE
     1 F50         1 TEMP              0 ****  ****    0 ROOT
