@<TRIPOS>MOLECULE
F53
   85    87     1     0     0
SMALL
bcc


@<TRIPOS>ATOM
      1 C1          1.1970   -1.0700    1.5540 c3        1 F53      0.140700
      2 O1          0.7430   -0.9020    0.2230 oh        1 F53     -0.603800
      3 C2          0.2970   -0.3040    2.4650 ca        1 F53      0.100700
      4 C3         -0.7390    0.5080    1.9640 ca        1 F53     -0.150500
      5 C4         -1.5480    1.2170    2.8280 ca        1 F53      0.032000
      6 C5         -1.3700    1.1570    4.2400 ca        1 F53     -0.635500
      7 C6         -0.3230    0.3170    4.7190 ca        1 F53      0.032000
      8 C7          0.4900   -0.3910    3.8570 ca        1 F53     -0.150500
      9 O8         -5.9290    6.2370   -3.0250 os        1 F53     -0.395600
     10 S8         -2.2230    2.0110    5.2050 s4        1 F53      1.684300
     11 O9         -1.9280    1.9980    6.5290 o         1 F53     -0.450400
     12 O10        -3.0400    2.9660    4.6680 o         1 F53     -0.450400
     13 N11        -4.1360    0.5820    5.6280 n3        1 F53     -0.915200
     14 C12        -4.1190   -0.7450    5.0090 c3        1 F53      0.132800
     15 C13        -4.3240   -1.9480    5.9410 c3        1 F53     -0.089700
     16 C14        -3.1840   -2.1130    6.9360 c3        1 F53     -0.091400
     17 C15        -5.6580   -1.9130    6.6720 c3        1 F53     -0.091400
     18 C16        -5.3810    1.3330    5.4540 c3        1 F53      0.095800
     19 C17        -5.7140    1.7240    3.9990 c3        1 F53      0.126100
     20 C18        -6.8410   -2.0880    5.7560 c3        1 F53     -0.097600
     21 O18        -6.8370    1.0120    3.5070 oh        1 F53     -0.617800
     22 C19        -6.1110    3.2240    3.9160 c3        1 F53      0.149500
     23 C20        -1.8970   -2.5560    6.2890 c3        1 F53     -0.097600
     24 N20        -6.4720    3.5910    2.4910 n4        1 F53     -0.639800
     25 C21        -5.2890    3.8000    1.6130 c         1 F53      0.635100
     26 O22        -4.2630    3.1310    1.6810 o         1 F53     -0.473000
     27 O23        -5.5180    4.8100    0.7540 os        1 F53     -0.386900
     28 C24        -4.4630    5.0870   -0.2220 c3        1 F53      0.129100
     29 C25        -4.4780    4.0270   -1.3380 c3        1 F53      0.103400
     30 O26        -4.3220    4.7170   -2.5710 os        1 F53     -0.386600
     31 C27        -4.6590    6.0930   -2.4240 c3        1 F53      0.323900
     32 C29        -6.9180    6.5890   -2.0500 c3        1 F53      0.121400
     33 C30        -6.1980    6.9600   -0.7530 c3        1 F53     -0.104400
     34 C31        -4.7790    6.4240   -0.9080 c3        1 F53     -0.120700
     35 C32        -7.3000    3.5480    4.8370 c3        1 F53     -0.055100
     36 C33        -8.9710    5.1700    3.9240 ca        1 F53     -0.132000
     37 C34        -9.4700    6.4660    3.7970 ca        1 F53     -0.111500
     38 C35        -8.8000    7.5360    4.3930 ca        1 F53     -0.090000
     39 C36        -7.6300    7.3080    5.1190 ca        1 F53     -0.111500
     40 C37        -7.1290    6.0130    5.2500 ca        1 F53     -0.132000
     41 C38        -7.7960    4.9370    4.6510 ca        1 F53     -0.177300
     42 H1          1.1780   -2.1620    1.8360 h1        1 F53      0.082700
     43 H1A         2.2510   -0.6820    1.6640 h1        1 F53      0.082700
     44 HO1         1.3750   -1.3580   -0.3510 ho        1 F53      0.445000
     45 H3         -0.8870    0.5710    0.8690 ha        1 F53      0.195500
     46 H4         -2.3530    1.8610    2.4200 ha        1 F53      0.174000
     47 H6         -0.1540    0.2450    5.8120 ha        1 F53      0.174000
     48 H7          1.3000   -1.0260    4.2590 ha        1 F53      0.195500
     49 H12        -3.1070   -0.8530    4.5190 h1        1 F53      0.058200
     50 H12A       -4.8970   -0.7960    4.1970 h1        1 F53      0.058200
     51 H13        -4.3250   -2.8540    5.2650 hc        1 F53      0.086700
     52 H14        -3.4840   -2.8920    7.6910 hc        1 F53      0.056700
     53 H14A       -3.0180   -1.1650    7.5120 hc        1 F53      0.056700
     54 H15        -5.7580   -0.9620    7.2580 hc        1 F53      0.056700
     55 H15A       -5.6690   -2.7510    7.4250 hc        1 F53      0.056700
     56 H16        -5.2640    2.2720    6.0700 h1        1 F53      0.093200
     57 H16A       -6.2660    0.7580    5.8640 h1        1 F53      0.093200
     58 H17        -4.8280    1.5470    3.3200 h1        1 F53      0.065700
     59 H18        -6.7350   -3.0140    5.1400 hc        1 F53      0.039700
     60 H18A       -6.9530   -1.2160    5.0660 hc        1 F53      0.039700
     61 H18B       -7.7790   -2.1750    6.3570 hc        1 F53      0.039700
     62 HO18       -6.6420    0.0650    3.5320 ho        1 F53      0.449000
     63 H19        -5.2060    3.8430    4.2030 hx        1 F53      0.134700
     64 H20        -1.4850   -1.7650    5.6140 hc        1 F53      0.039700
     65 H20A       -2.0540   -3.4850    5.6880 hc        1 F53      0.039700
     66 H20B       -1.1330   -2.7750    7.0750 hc        1 F53      0.039700
     67 HN20       -7.0460    4.4580    2.5060 hn        1 F53      0.494300
     68 H24        -3.4890    5.1150    0.3330 h1        1 F53      0.092700
     69 H25        -5.4500    3.4690   -1.3470 h1        1 F53      0.069700
     70 H25A       -3.6170    3.3150   -1.2630 h1        1 F53      0.069700
     71 H27        -3.9120    6.6790   -3.0200 h2        1 F53      0.134700
     72 H29        -7.4920    7.4470   -2.4860 h1        1 F53      0.067200
     73 H29A       -7.5940    5.7060   -1.9160 h1        1 F53      0.067200
     74 H30        -6.7290    6.5420    0.1340 hc        1 F53      0.067700
     75 H30A       -6.1660    8.0730   -0.6320 hc        1 F53      0.067700
     76 H31        -4.0240    7.1870   -0.5950 hc        1 F53      0.103700
     77 H32        -6.9530    3.4140    5.8980 hc        1 F53      0.096700
     78 H32A       -8.1220    2.8010    4.6590 hc        1 F53      0.096700
     79 H35        -9.2040    8.5580    4.3030 ha        1 F53      0.166000
     80 H36        -7.1100    8.1500    5.6040 ha        1 F53      0.161500
     81 H37        -6.2210    5.8360    5.8460 ha        1 F53      0.136500
     82 H33        -9.5330    4.3270    3.4930 ha        1 F53      0.136500
     83 H111       -4.0030    0.4660    6.6300 hn        1 F53      0.415800
     84 H202       -7.0430    2.8270    2.0920 hn        1 F53      0.494300
     85 H34       -10.4050    6.6430    3.2400 ha        1 F53      0.161500
@<TRIPOS>BOND
     1    1    2 1   
     2    1    3 1   
     3    1   42 1   
     4    1   43 1   
     5    2   44 1   
     6    3    4 ar  
     7    3    8 ar  
     8    4    5 ar  
     9    4   45 1   
    10    5    6 ar  
    11    5   46 1   
    12    6    7 ar  
    13    6   10 1   
    14    7    8 ar  
    15    7   47 1   
    16    8   48 1   
    17    9   31 1   
    18    9   32 1   
    19   10   11 1   
    20   10   12 1   
    21   13   14 1   
    22   13   18 1   
    23   13   83 1   
    24   14   15 1   
    25   14   49 1   
    26   14   50 1   
    27   15   16 1   
    28   15   17 1   
    29   15   51 1   
    30   16   23 1   
    31   16   52 1   
    32   16   53 1   
    33   17   20 1   
    34   17   54 1   
    35   17   55 1   
    36   18   19 1   
    37   18   56 1   
    38   18   57 1   
    39   19   21 1   
    40   19   22 1   
    41   19   58 1   
    42   20   59 1   
    43   20   60 1   
    44   20   61 1   
    45   21   62 1   
    46   22   24 1   
    47   22   35 1   
    48   22   63 1   
    49   23   64 1   
    50   23   65 1   
    51   23   66 1   
    52   24   25 1   
    53   24   67 1   
    54   24   84 1   
    55   25   26 2   
    56   25   27 1   
    57   27   28 1   
    58   28   29 1   
    59   28   34 1   
    60   28   68 1   
    61   29   30 1   
    62   29   69 1   
    63   29   70 1   
    64   30   31 1   
    65   31   34 1   
    66   31   71 1   
    67   32   33 1   
    68   32   72 1   
    69   32   73 1   
    70   33   34 1   
    71   33   74 1   
    72   33   75 1   
    73   34   76 1   
    74   35   41 1   
    75   35   77 1   
    76   35   78 1   
    77   36   37 ar  
    78   36   41 ar  
    79   36   82 1   
    80   37   38 ar  
    81   37   85 1   
    82   38   39 ar  
    83   38   79 1   
    84   39   40 ar  
    85   39   80 1   
    86   40   41 ar  
    87   40   81 1   
@<TRIPOS>SUBSTRUCTURE
     1 F53         1 TEMP              0 ****  ****    0 ROOT
