@<TRIPOS>MOLECULE
F53
   85    87     1     0     0
SMALL
bcc


@<TRIPOS>ATOM
      1 C1          1.0170   -1.7310    1.0760 c3        1 F53      0.138700
      2 O1          0.8330   -1.5870   -0.3120 oh        1 F53     -0.572800
      3 C2          0.2690   -0.6960    1.8550 ca        1 F53      0.062700
      4 C3         -0.6020    0.2060    1.2220 ca        1 F53     -0.157500
      5 C4         -1.3040    1.1410    1.9580 ca        1 F53      0.038000
      6 C5         -1.1690    1.2260    3.3740 ca        1 F53     -0.643500
      7 C6         -0.2880    0.2870    3.9930 ca        1 F53      0.038000
      8 C7          0.4140   -0.6410    3.2560 ca        1 F53     -0.157500
      9 O8         -3.6920    2.0110   -0.1050 os        1 F53     -0.448600
     10 S8         -1.8880    2.3000    4.2110 s4        1 F53      1.689300
     11 O9         -1.6150    2.3780    5.5410 o         1 F53     -0.454900
     12 O10        -2.5700    3.3090    3.5960 o         1 F53     -0.454900
     13 N11        -3.9950    1.1750    4.7660 n7        1 F53     -0.907200
     14 C12        -4.3690    0.1240    3.8240 c3        1 F53      0.120800
     15 C13        -5.0180   -1.1540    4.3720 c3        1 F53     -0.090700
     16 C14        -4.3300   -1.7080    5.6100 c3        1 F53     -0.087900
     17 C15        -6.5090   -0.9880    4.6300 c3        1 F53     -0.087900
     18 C16        -5.0180    2.1680    5.0900 c3        1 F53      0.111800
     19 C17        -5.6140    2.9200    3.8880 c3        1 F53      0.112100
     20 C18        -7.3250   -1.0030    3.3620 c3        1 F53     -0.103600
     21 O18        -6.6120    2.1980    3.2010 oh        1 F53     -0.603800
     22 C19        -6.1930    4.2830    4.3650 c3        1 F53      0.103500
     23 C20        -2.8720   -2.0180    5.3910 c3        1 F53     -0.103600
     24 N20        -6.7880    5.0220    3.1870 ny        1 F53     -0.635800
     25 C21        -5.7320    5.5860    2.2970 c         1 F53      0.616100
     26 O22        -5.1600    6.6410    2.5280 o         1 F53     -0.410000
     27 O23        -5.5320    4.7810    1.2340 os        1 F53     -0.401900
     28 C24        -4.4830    5.1780    0.2920 c3        1 F53      0.138100
     29 C25        -3.1020    5.0270    0.9430 c3        1 F53      0.097400
     30 O26        -2.5080    3.8140    0.4730 os        1 F53     -0.435600
     31 C27        -3.2630    3.2710   -0.6030 c3        1 F53      0.320900
     32 C29        -5.1270    1.9210   -0.1380 c3        1 F53      0.124400
     33 C30        -5.6680    3.1580   -0.8540 c3        1 F53     -0.099400
     34 C31        -4.5140    4.1530   -0.8530 c3        1 F53     -0.112700
     35 C32        -7.2520    4.1070    5.4640 c3        1 F53     -0.051100
     36 C33        -9.1930    5.6690    5.2230 ca        1 F53     -0.132500
     37 C34        -9.8610    6.8440    5.5590 ca        1 F53     -0.108000
     38 C35        -9.2870    7.7430    6.4610 ca        1 F53     -0.086000
     39 C36        -8.0440    7.4610    7.0280 ca        1 F53     -0.108000
     40 C37        -7.3730    6.2850    6.6960 ca        1 F53     -0.132500
     41 C38        -7.9420    5.3840    5.7880 ca        1 F53     -0.177300
     42 H1          2.1050   -1.7140    1.3630 h1        1 F53      0.099200
     43 H1A         0.5890   -2.7470    1.3270 h1        1 F53      0.099200
     44 HO1         1.5430   -1.0270   -0.6530 ho        1 F53      0.422000
     45 H3         -0.7280    0.1510    0.1240 ha        1 F53      0.191500
     46 H4         -1.9850    1.8480    1.4320 ha        1 F53      0.188500
     47 H6         -0.1620    0.3220    5.0930 ha        1 F53      0.188500
     48 H7          1.0970   -1.3470    3.7610 ha        1 F53      0.191500
     49 H12        -3.4000   -0.1820    3.3240 h1        1 F53      0.073700
     50 H12A       -5.0420    0.5550    3.0280 h1        1 F53      0.073700
     51 H13        -4.9000   -1.9200    3.5480 hc        1 F53      0.085700
     52 H14        -4.8540   -2.6620    5.8990 hc        1 F53      0.050950
     53 H14A       -4.4560   -1.0110    6.4790 hc        1 F53      0.050950
     54 H15        -6.8590   -1.8300    5.2890 hc        1 F53      0.050950
     55 H15A       -6.6970   -0.0400    5.1980 hc        1 F53      0.050950
     56 H16        -4.5180    2.9250    5.7660 h1        1 F53      0.079200
     57 H16A       -5.8690    1.7060    5.6730 h1        1 F53      0.079200
     58 H17        -4.8230    3.1210    3.0990 h1        1 F53      0.118700
     59 H18        -7.0020   -0.2000    2.6550 hc        1 F53      0.041867
     60 H18A       -7.2210   -1.9860    2.8410 hc        1 F53      0.041867
     61 H18B       -8.4060   -0.8500    3.6000 hc        1 F53      0.041867
     62 HO18       -7.1150    1.6590    3.8320 ho        1 F53      0.439000
     63 H19        -5.3500    4.9270    4.7580 hx        1 F53      0.124700
     64 H20        -2.2810   -1.0920    5.1830 hc        1 F53      0.041867
     65 H20A       -2.7430   -2.7160    4.5290 hc        1 F53      0.041867
     66 H20B       -2.4450   -2.5040    6.3030 hc        1 F53      0.041867
     67 HN20       -7.3740    5.7990    3.5470 hn        1 F53      0.491800
     68 H24        -4.7020    6.2260   -0.0360 h1        1 F53      0.114700
     69 H25        -3.1600    4.9500    2.0610 h1        1 F53      0.087200
     70 H25A       -2.4280    5.8730    0.6440 h1        1 F53      0.087200
     71 H27        -2.5770    3.1070   -1.4720 h2        1 F53      0.123700
     72 H29        -5.3710    0.9700   -0.6770 h1        1 F53      0.061700
     73 H29A       -5.4810    1.8680    0.9250 h1        1 F53      0.061700
     74 H30        -6.5800    3.5560   -0.3480 hc        1 F53      0.079700
     75 H30A       -5.9490    2.9080   -1.9090 hc        1 F53      0.079700
     76 H31        -4.4470    4.7020   -1.8260 hc        1 F53      0.119700
     77 H32        -7.9970    3.3280    5.1490 hc        1 F53      0.084700
     78 H32A       -6.7200    3.7220    6.3770 hc        1 F53      0.084700
     79 H35        -9.8220    8.6680    6.7330 ha        1 F53      0.168000
     80 H36        -7.5950    8.1630    7.7510 ha        1 F53      0.163500
     81 H37        -6.4020    6.0590    7.1640 ha        1 F53      0.134500
     82 H33        -9.6750    4.9430    4.5500 ha        1 F53      0.134500
     83 H111       -3.7210    0.7440    5.6440 hn        1 F53      0.409800
     84 H202       -7.3730    4.3610    2.6520 hn        1 F53      0.491800
     85 H34       -10.8520    7.0580    5.1250 ha        1 F53      0.163500
@<TRIPOS>BOND
     1    1    2 1   
     2    1    3 1   
     3    1   42 1   
     4    1   43 1   
     5    2   44 1   
     6    3    4 ar  
     7    3    8 ar  
     8    4    5 ar  
     9    4   45 1   
    10    5    6 ar  
    11    5   46 1   
    12    6    7 ar  
    13    6   10 1   
    14    7    8 ar  
    15    7   47 1   
    16    8   48 1   
    17    9   31 1   
    18    9   32 1   
    19   10   11 1   
    20   10   12 1   
    21   13   14 1   
    22   13   18 1   
    23   13   83 1   
    24   14   15 1   
    25   14   49 1   
    26   14   50 1   
    27   15   16 1   
    28   15   17 1   
    29   15   51 1   
    30   16   23 1   
    31   16   52 1   
    32   16   53 1   
    33   17   20 1   
    34   17   54 1   
    35   17   55 1   
    36   18   19 1   
    37   18   56 1   
    38   18   57 1   
    39   19   21 1   
    40   19   22 1   
    41   19   58 1   
    42   20   59 1   
    43   20   60 1   
    44   20   61 1   
    45   21   62 1   
    46   22   24 1   
    47   22   35 1   
    48   22   63 1   
    49   23   64 1   
    50   23   65 1   
    51   23   66 1   
    52   24   25 1   
    53   24   67 1   
    54   24   84 1   
    55   25   26 2   
    56   25   27 1   
    57   27   28 1   
    58   28   29 1   
    59   28   34 1   
    60   28   68 1   
    61   29   30 1   
    62   29   69 1   
    63   29   70 1   
    64   30   31 1   
    65   31   34 1   
    66   31   71 1   
    67   32   33 1   
    68   32   72 1   
    69   32   73 1   
    70   33   34 1   
    71   33   74 1   
    72   33   75 1   
    73   34   76 1   
    74   35   41 1   
    75   35   77 1   
    76   35   78 1   
    77   36   37 ar  
    78   36   41 ar  
    79   36   82 1   
    80   37   38 ar  
    81   37   85 1   
    82   38   39 ar  
    83   38   79 1   
    84   39   40 ar  
    85   39   80 1   
    86   40   41 ar  
    87   40   81 1   
@<TRIPOS>SUBSTRUCTURE
     1 F53         1 TEMP              0 ****  ****    0 ROOT
