@<TRIPOS>MOLECULE
F53
   85    87     1     0     0
SMALL
bcc


@<TRIPOS>ATOM
      1 C1          1.1650   -1.1110    1.5250 c3        1 F53      0.140700
      2 O1          0.7050   -0.9420    0.1970 oh        1 F53     -0.603800
      3 C2          0.2740   -0.3390    2.4410 ca        1 F53      0.100700
      4 C3         -0.7590    0.4800    1.9440 ca        1 F53     -0.150500
      5 C4         -1.5590    1.1940    2.8110 ca        1 F53      0.032000
      6 C5         -1.3750    1.1340    4.2220 ca        1 F53     -0.635500
      7 C6         -0.3310    0.2890    4.6970 ca        1 F53      0.032000
      8 C7          0.4740   -0.4250    3.8310 ca        1 F53     -0.150500
      9 O8         -5.9190    6.2710   -3.0100 os        1 F53     -0.395600
     10 S8         -2.2180    1.9950    5.1900 s4        1 F53      1.684300
     11 O9         -1.9160    1.9810    6.5130 o         1 F53     -0.450400
     12 O10        -3.0320    2.9540    4.6570 o         1 F53     -0.450400
     13 N11        -4.1370    0.5770    5.6250 n3        1 F53     -0.915200
     14 C12        -4.1310   -0.7500    5.0080 c3        1 F53      0.132800
     15 C13        -4.3390   -1.9500    5.9420 c3        1 F53     -0.089700
     16 C14        -3.1950   -2.1210    6.9330 c3        1 F53     -0.091400
     17 C15        -5.6690   -1.9070    6.6790 c3        1 F53     -0.091400
     18 C16        -5.3790    1.3360    5.4550 c3        1 F53      0.095800
     19 C17        -5.7150    1.7270    4.0020 c3        1 F53      0.126100
     20 C18        -6.8570   -2.0760    5.7680 c3        1 F53     -0.097600
     21 O18        -6.8440    1.0220    3.5140 oh        1 F53     -0.617800
     22 C19        -6.1050    3.2290    3.9200 c3        1 F53      0.149500
     23 C20        -1.9140   -2.5720    6.2810 c3        1 F53     -0.097600
     24 N20        -6.4690    3.5990    2.4960 n4        1 F53     -0.639800
     25 C21        -5.2870    3.8020    1.6150 c         1 F53      0.635100
     26 O22        -4.2670    3.1250    1.6770 o         1 F53     -0.473000
     27 O23        -5.5110    4.8170    0.7610 os        1 F53     -0.386900
     28 C24        -4.4570    5.0910   -0.2170 c3        1 F53      0.129100
     29 C25        -4.4850    4.0380   -1.3390 c3        1 F53      0.103400
     30 O26        -4.3250    4.7340   -2.5680 os        1 F53     -0.386600
     31 C27        -4.6500    6.1130   -2.4130 c3        1 F53      0.323900
     32 C29        -6.9040    6.6250   -2.0310 c3        1 F53      0.121400
     33 C30        -6.1780    6.9810   -0.7330 c3        1 F53     -0.104400
     34 C31        -4.7640    6.4350   -0.8940 c3        1 F53     -0.120700
     35 C32        -7.2890    3.5590    4.8440 c3        1 F53     -0.055100
     36 C33        -8.9560    5.1900    3.9360 ca        1 F53     -0.132000
     37 C34        -9.4490    6.4880    3.8100 ca        1 F53     -0.111500
     38 C35        -8.7720    7.5540    4.4050 ca        1 F53     -0.090000
     39 C36        -7.6010    7.3210    5.1280 ca        1 F53     -0.111500
     40 C37        -7.1060    6.0240    5.2570 ca        1 F53     -0.132000
     41 C38        -7.7790    4.9510    4.6590 ca        1 F53     -0.177300
     42 H1          2.2210   -0.7300    1.6300 h1        1 F53      0.082700
     43 H1A         1.1410   -2.2020    1.8090 h1        1 F53      0.082700
     44 HO1         1.3320   -1.4010   -0.3800 ho        1 F53      0.445000
     45 H3         -0.9120    0.5420    0.8490 ha        1 F53      0.195500
     46 H4         -2.3620    1.8430    2.4070 ha        1 F53      0.174000
     47 H6         -0.1560    0.2170    5.7890 ha        1 F53      0.174000
     48 H7          1.2820   -1.0650    4.2300 ha        1 F53      0.195500
     49 H12        -4.9130   -0.7980    4.1980 h1        1 F53      0.058200
     50 H12A       -3.1220   -0.8640    4.5130 h1        1 F53      0.058200
     51 H13        -4.3480   -2.8570    5.2670 hc        1 F53      0.086700
     52 H14        -3.0210   -1.1730    7.5060 hc        1 F53      0.056700
     53 H14A       -3.4970   -2.8970    7.6900 hc        1 F53      0.056700
     54 H15        -5.6820   -2.7430    7.4330 hc        1 F53      0.056700
     55 H15A       -5.7610   -0.9540    7.2630 hc        1 F53      0.056700
     56 H16        -5.2550    2.2750    6.0710 h1        1 F53      0.093200
     57 H16A       -6.2650    0.7650    5.8690 h1        1 F53      0.093200
     58 H17        -4.8330    1.5460    3.3190 h1        1 F53      0.065700
     59 H18        -6.7590   -3.0040    5.1540 hc        1 F53      0.039700
     60 H18A       -6.9660   -1.2060    5.0760 hc        1 F53      0.039700
     61 H18B       -7.7940   -2.1560    6.3730 hc        1 F53      0.039700
     62 HO18       -6.6540    0.0740    3.5400 ho        1 F53      0.449000
     63 H19        -5.1970    3.8440    4.2030 hx        1 F53      0.133700
     64 H20        -2.0790   -3.5010    5.6820 hc        1 F53      0.039700
     65 H20A       -1.1470   -2.7940    7.0640 hc        1 F53      0.039700
     66 H20B       -1.5010   -1.7850    5.6030 hc        1 F53      0.039700
     67 HN20       -7.0440    2.8370    2.0990 hn        1 F53      0.494300
     68 H24        -3.4810    5.1080    0.3350 h1        1 F53      0.092700
     69 H25        -3.6310    3.3180   -1.2710 h1        1 F53      0.069700
     70 H25A       -5.4620    3.4900   -1.3500 h1        1 F53      0.069700
     71 H27        -3.8990    6.6960   -3.0070 h2        1 F53      0.134700
     72 H29        -7.5870    5.7460   -1.9010 h1        1 F53      0.067200
     73 H29A       -7.4720    7.4890   -2.4600 h1        1 F53      0.067200
     74 H30        -6.7110    6.5610    0.1530 hc        1 F53      0.067700
     75 H30A       -6.1370    8.0930   -0.6050 hc        1 F53      0.067700
     76 H31        -4.0030    7.1910   -0.5790 hc        1 F53      0.103700
     77 H32        -8.1160    2.8170    4.6690 hc        1 F53      0.096700
     78 H32A       -6.9400    3.4240    5.9040 hc        1 F53      0.096700
     79 H35        -9.1710    8.5790    4.3160 ha        1 F53      0.166000
     80 H36        -7.0760    8.1600    5.6120 ha        1 F53      0.161500
     81 H37        -6.1970    5.8430    5.8510 ha        1 F53      0.136500
     82 H33        -9.5220    4.3490    3.5060 ha        1 F53      0.136500
     83 H111       -4.0000    0.4630    6.6260 hn        1 F53      0.415800
     84 H202       -7.0390    4.4680    2.5130 hn        1 F53      0.494300
     85 H34       -10.3840    6.6690    3.2560 ha        1 F53      0.161500
@<TRIPOS>BOND
     1    1    2 1   
     2    1    3 1   
     3    1   42 1   
     4    1   43 1   
     5    2   44 1   
     6    3    4 ar  
     7    3    8 ar  
     8    4    5 ar  
     9    4   45 1   
    10    5    6 ar  
    11    5   46 1   
    12    6    7 ar  
    13    6   10 1   
    14    7    8 ar  
    15    7   47 1   
    16    8   48 1   
    17    9   31 1   
    18    9   32 1   
    19   10   11 1   
    20   10   12 1   
    21   13   14 1   
    22   13   18 1   
    23   13   83 1   
    24   14   15 1   
    25   14   49 1   
    26   14   50 1   
    27   15   16 1   
    28   15   17 1   
    29   15   51 1   
    30   16   23 1   
    31   16   52 1   
    32   16   53 1   
    33   17   20 1   
    34   17   54 1   
    35   17   55 1   
    36   18   19 1   
    37   18   56 1   
    38   18   57 1   
    39   19   21 1   
    40   19   22 1   
    41   19   58 1   
    42   20   59 1   
    43   20   60 1   
    44   20   61 1   
    45   21   62 1   
    46   22   24 1   
    47   22   35 1   
    48   22   63 1   
    49   23   64 1   
    50   23   65 1   
    51   23   66 1   
    52   24   25 1   
    53   24   67 1   
    54   24   84 1   
    55   25   26 2   
    56   25   27 1   
    57   27   28 1   
    58   28   29 1   
    59   28   34 1   
    60   28   68 1   
    61   29   30 1   
    62   29   69 1   
    63   29   70 1   
    64   30   31 1   
    65   31   34 1   
    66   31   71 1   
    67   32   33 1   
    68   32   72 1   
    69   32   73 1   
    70   33   34 1   
    71   33   74 1   
    72   33   75 1   
    73   34   76 1   
    74   35   41 1   
    75   35   77 1   
    76   35   78 1   
    77   36   37 ar  
    78   36   41 ar  
    79   36   82 1   
    80   37   38 ar  
    81   37   85 1   
    82   38   39 ar  
    83   38   79 1   
    84   39   40 ar  
    85   39   80 1   
    86   40   41 ar  
    87   40   81 1   
@<TRIPOS>SUBSTRUCTURE
     1 F53         1 TEMP              0 ****  ****    0 ROOT
