@<TRIPOS>MOLECULE
F53
   83    86     1     0     0
SMALL
bcc


@<TRIPOS>ATOM
      1 C1          0.3770   -4.9850   -1.1550 c3        1 F53      0.163700
      2 O1          1.2120   -5.9540   -0.5380 oh        1 F53     -0.598800
      3 C2          1.1090   -3.6870   -1.2480 ca        1 F53     -0.024300
      4 C3          0.3910   -2.5350   -1.5930 ca        1 F53     -0.144000
      5 C4          1.0440   -1.3120   -1.6970 ca        1 F53     -0.018500
      6 C5          2.4200   -1.2050   -1.4570 ca        1 F53     -0.397500
      7 C6          3.1280   -2.3660   -1.1180 ca        1 F53     -0.018500
      8 C7          2.4860   -3.5960   -1.0140 ca        1 F53     -0.144000
      9 O8         -5.6820   -3.5150    2.1920 os        1 F53     -0.418600
     10 S8          3.2130    0.2710   -1.6130 sy        1 F53      1.499200
     11 O9          4.5800    0.0190   -1.8450 o         1 F53     -0.650800
     12 O10         2.5520    1.0540   -2.5900 o         1 F53     -0.650800
     13 N11         2.9890    0.9700   -0.1420 n3        1 F53     -0.788500
     14 C12         3.6710    0.5100    1.0410 c3        1 F53      0.224800
     15 C13         4.9280    1.2620    1.5110 c3        1 F53     -0.074700
     16 C14         6.1200    1.0670    0.5860 c3        1 F53     -0.080400
     17 C15         4.7040    2.7440    1.7620 c3        1 F53     -0.080400
     18 C16         1.9170    1.9070    0.0510 c3        1 F53      0.182800
     19 C17         0.6410    1.3150    0.6960 c3        1 F53      0.072100
     20 C18         3.8280    3.0040    2.9610 c3        1 F53     -0.093600
     21 O18         0.6700    1.4200    2.1060 oh        1 F53     -0.593800
     22 C19        -0.6340    1.9820    0.1050 c3        1 F53      0.065700
     23 C20         6.6330   -0.3510    0.5800 c3        1 F53     -0.093600
     24 N20        -1.8500    1.3330    0.5600 n         1 F53     -0.499900
     25 C21        -2.2520    0.1650   -0.0600 c         1 F53      0.734100
     26 O22        -1.9050   -0.2810   -1.1670 o         1 F53     -0.593000
     27 O23        -3.2040   -0.5230    0.6750 os        1 F53     -0.433900
     28 C24        -3.8090   -1.6480    0.0300 c3        1 F53      0.130100
     29 C25        -3.0880   -2.9450    0.4460 c3        1 F53      0.104400
     30 O26        -4.0900   -3.9420    0.6470 os        1 F53     -0.419600
     31 C27        -5.3650   -3.3370    0.8230 c3        1 F53      0.319900
     32 C29        -5.6160   -2.2610    2.8850 c3        1 F53      0.123400
     33 C30        -5.5990   -1.1420    1.8450 c3        1 F53     -0.102400
     34 C31        -5.2560   -1.8190    0.5230 c3        1 F53     -0.113700
     35 C32        -0.6580    3.4860    0.4330 c3        1 F53     -0.040100
     36 C33        -2.7920    4.7880    0.2540 ca        1 F53     -0.121000
     37 C34        -3.7290    5.4950   -0.4990 ca        1 F53     -0.126000
     38 C35        -3.5560    5.6400   -1.8750 ca        1 F53     -0.126000
     39 C36        -2.4420    5.0780   -2.4980 ca        1 F53     -0.126000
     40 C37        -1.5030    4.3720   -1.7490 ca        1 F53     -0.121000
     41 C38        -1.6730    4.2220   -0.3660 ca        1 F53     -0.084300
     42 H1          0.0980   -5.3300   -2.1900 h1        1 F53      0.042700
     43 H1A        -0.5640   -4.8510   -0.5510 h1        1 F53      0.042700
     44 HO1         0.6810   -6.7550   -0.4570 ho        1 F53      0.409000
     45 H3         -0.6950   -2.5840   -1.7760 ha        1 F53      0.156000
     46 H4          0.4600   -0.4160   -1.9800 ha        1 F53      0.157500
     47 H6          4.2180   -2.3010   -0.9470 ha        1 F53      0.157500
     48 H7          3.0520   -4.5020   -0.7440 ha        1 F53      0.156000
     49 H12         2.9350    0.5100    1.9000 h1        1 F53      0.053700
     50 H12A        3.9790   -0.5640    0.8560 h1        1 F53      0.053700
     51 H13         5.1850    0.7850    2.5040 hc        1 F53      0.050700
     52 H14         5.8470    1.3690   -0.4600 hc        1 F53      0.047450
     53 H14A        6.9480    1.7480    0.9220 hc        1 F53      0.047450
     54 H15         5.7010    3.2340    1.9380 hc        1 F53      0.047450
     55 H15A        4.2730    3.2280    0.8470 hc        1 F53      0.047450
     56 H16         2.2760    2.7510    0.7090 h1        1 F53      0.074200
     57 H16A        1.6450    2.3480   -0.9550 h1        1 F53      0.074200
     58 H17         0.5830    0.2010    0.5110 h1        1 F53      0.095700
     59 H18         3.6400    4.1000    3.0700 hc        1 F53      0.032867
     60 H18A        2.8450    2.4830    2.8640 hc        1 F53      0.032867
     61 H18B        4.3220    2.6380    3.8940 hc        1 F53      0.032867
     62 HO18        0.7740    2.3540    2.3290 ho        1 F53      0.400000
     63 H19        -0.5880    1.8570   -1.0210 h1        1 F53      0.103700
     64 H20         7.6360   -0.3890    0.0890 hc        1 F53      0.032867
     65 H20A        6.7310   -0.7510    1.6170 hc        1 F53      0.032867
     66 H20B        5.9460   -1.0160   -0.0010 hc        1 F53      0.032867
     67 HN20       -2.0590    1.4190    1.5310 hn        1 F53      0.321500
     68 H24        -3.7850   -1.5140   -1.0860 h1        1 F53      0.093700
     69 H25        -2.4140   -3.3320   -0.3590 h1        1 F53      0.062200
     70 H25A       -2.5190   -2.8030    1.4000 h1        1 F53      0.062200
     71 H27        -6.1020   -3.9260    0.2200 h2        1 F53      0.102700
     72 H29        -6.5200   -2.2260    3.5440 h1        1 F53      0.052700
     73 H29A       -4.6870   -2.2620    3.5100 h1        1 F53      0.052700
     74 H30        -6.6040   -0.6570    1.7760 hc        1 F53      0.066700
     75 H30A       -4.8580   -0.3530    2.1210 hc        1 F53      0.066700
     76 H31        -5.9660   -1.5090   -0.2810 hc        1 F53      0.081700
     77 H32        -0.8430    3.6370    1.5300 hc        1 F53      0.055700
     78 H32A        0.3600    3.9020    0.2030 hc        1 F53      0.055700
     79 H34        -4.6060    5.9380   -0.0050 ha        1 F53      0.134000
     80 H35        -4.2960    6.1970   -2.4680 ha        1 F53      0.133000
     81 H36        -2.3030    5.1890   -3.5840 ha        1 F53      0.134000
     82 H37        -0.6250    3.9300   -2.2440 ha        1 F53      0.133000
     83 H33        -2.9350    4.6760    1.3380 ha        1 F53      0.133000
@<TRIPOS>BOND
     1    1    2 1   
     2    1    3 1   
     3    1   42 1   
     4    1   43 1   
     5    2   44 1   
     6    3    4 ar  
     7    3    8 ar  
     8    4    5 ar  
     9    4   45 1   
    10    5    6 ar  
    11    5   46 1   
    12    6    7 ar  
    13    6   10 1   
    14    7    8 ar  
    15    7   47 1   
    16    8   48 1   
    17    9   31 1   
    18    9   32 1   
    19   10   11 2   
    20   10   12 2   
    21   10   13 1   
    22   13   14 1   
    23   13   18 1   
    24   14   15 1   
    25   14   49 1   
    26   14   50 1   
    27   15   16 1   
    28   15   17 1   
    29   15   51 1   
    30   16   23 1   
    31   16   52 1   
    32   16   53 1   
    33   17   20 1   
    34   17   54 1   
    35   17   55 1   
    36   18   19 1   
    37   18   56 1   
    38   18   57 1   
    39   19   21 1   
    40   19   22 1   
    41   19   58 1   
    42   20   59 1   
    43   20   60 1   
    44   20   61 1   
    45   21   62 1   
    46   22   24 1   
    47   22   35 1   
    48   22   63 1   
    49   23   64 1   
    50   23   65 1   
    51   23   66 1   
    52   24   25 1   
    53   24   67 1   
    54   25   26 2   
    55   25   27 1   
    56   27   28 1   
    57   28   29 1   
    58   28   34 1   
    59   28   68 1   
    60   29   30 1   
    61   29   69 1   
    62   29   70 1   
    63   30   31 1   
    64   31   34 1   
    65   31   71 1   
    66   32   33 1   
    67   32   72 1   
    68   32   73 1   
    69   33   34 1   
    70   33   74 1   
    71   33   75 1   
    72   34   76 1   
    73   35   41 1   
    74   35   77 1   
    75   35   78 1   
    76   36   37 ar  
    77   36   41 ar  
    78   36   83 1   
    79   37   38 ar  
    80   37   79 1   
    81   38   39 ar  
    82   38   80 1   
    83   39   40 ar  
    84   39   81 1   
    85   40   41 ar  
    86   40   82 1   
@<TRIPOS>SUBSTRUCTURE
     1 F53         1 TEMP              0 ****  ****    0 ROOT
