@<TRIPOS>MOLECULE
F55
   41    42     1     0     0
SMALL
bcc


@<TRIPOS>ATOM
      1 C14        -4.4110   -1.1820   -0.8200 ca        1 F55     -0.083000
      2 C13        -5.6470   -1.3230   -0.1920 ca        1 F55     -0.131000
      3 C12        -6.0500   -0.3770    0.7560 ca        1 F55      0.037400
      4 CL1        -7.5540   -0.5430    1.5260 cl        1 F55     -0.079400
      5 C11        -5.2270    0.7100    1.0730 ca        1 F55     -0.131000
      6 C10        -3.9900    0.8420    0.4460 ca        1 F55     -0.083000
      7 C9         -3.5780   -0.1060   -0.4950 ca        1 F55     -0.151600
      8 C8         -2.2720    0.0130   -1.2100 c         1 F55      0.684700
      9 O8         -2.1710   -0.1650   -2.4290 o         1 F55     -0.510100
     10 N2         -1.1710    0.3150   -0.3940 n         1 F55     -0.609500
     11 C7          0.1500    0.4610   -0.8780 c         1 F55      0.753100
     12 O7          0.4320    0.2800   -2.0760 o         1 F55     -0.551100
     13 N1          1.1410    0.9180    0.0400 n         1 F55     -0.526900
     14 C1          2.5180    0.5840   -0.2670 c3        1 F55      0.241500
     15 O5          2.8620   -0.5470    0.5580 os        1 F55     -0.447600
     16 C5          4.1650   -1.0590    0.2760 c3        1 F55      0.151100
     17 C6          4.3350   -2.3050    1.1480 c3        1 F55      0.135400
     18 O6          3.7860   -3.3920    0.4220 oh        1 F55     -0.594800
     19 C4          5.2120    0.0080    0.6410 c3        1 F55      0.117100
     20 O4          6.4860   -0.5160    0.3140 oh        1 F55     -0.594800
     21 C3          4.9310    1.2890   -0.1620 c3        1 F55      0.108100
     22 O3          5.8510    2.2620    0.3020 oh        1 F55     -0.607800
     23 C2          3.4840    1.7550    0.0710 c3        1 F55      0.091100
     24 O2          3.2970    2.8550   -0.7990 oh        1 F55     -0.601800
     25 H14        -4.0880   -1.9100   -1.5830 ha        1 F55      0.151000
     26 H13        -6.3000   -2.1710   -0.4470 ha        1 F55      0.155000
     27 H11        -5.5540    1.4590    1.8100 ha        1 F55      0.155000
     28 H10        -3.3560    1.7090    0.6850 ha        1 F55      0.151000
     29 HN2        -1.3460    0.4360    0.5780 hn        1 F55      0.318500
     30 HN1         0.9290    0.8070    1.0110 hn        1 F55      0.292500
     31 H1          2.6230    0.3150   -1.3620 h2        1 F55      0.110700
     32 H5          4.2460   -1.3340   -0.8120 h1        1 F55      0.085700
     33 H6          5.4310   -2.4730    1.3300 h1        1 F55      0.046200
     34 H6A         3.7970   -2.1750    2.1240 h1        1 F55      0.046200
     35 HO6         3.8870   -4.1720    0.9800 ho        1 F55      0.403000
     36 H4          5.1680    0.2390    1.7420 h1        1 F55      0.058700
     37 HO4         7.1150    0.2110    0.4200 ho        1 F55      0.426000
     38 H3          5.0980    1.1050   -1.2600 h1        1 F55      0.069700
     39 HO3         5.6440    3.0820   -0.1670 ho        1 F55      0.429000
     40 H2          3.3540    2.0830    1.1390 h1        1 F55      0.059700
     41 HO2         2.3680    3.1120   -0.7540 ho        1 F55      0.426000
@<TRIPOS>BOND
     1    1    2 ar  
     2    1    7 ar  
     3    1   25 1   
     4    2    3 ar  
     5    2   26 1   
     6    3    4 1   
     7    3    5 ar  
     8    5    6 ar  
     9    5   27 1   
    10    6    7 ar  
    11    6   28 1   
    12    7    8 1   
    13    8    9 2   
    14    8   10 1   
    15   10   11 1   
    16   10   29 1   
    17   11   12 2   
    18   11   13 1   
    19   13   14 1   
    20   13   30 1   
    21   14   15 1   
    22   14   23 1   
    23   14   31 1   
    24   15   16 1   
    25   16   17 1   
    26   16   19 1   
    27   16   32 1   
    28   17   18 1   
    29   17   33 1   
    30   17   34 1   
    31   18   35 1   
    32   19   20 1   
    33   19   21 1   
    34   19   36 1   
    35   20   37 1   
    36   21   22 1   
    37   21   23 1   
    38   21   38 1   
    39   22   39 1   
    40   23   24 1   
    41   23   40 1   
    42   24   41 1   
@<TRIPOS>SUBSTRUCTURE
     1 F55         1 TEMP              0 ****  ****    0 ROOT
