@<TRIPOS>MOLECULE
F55
   43    44     1     0     0
SMALL
bcc


@<TRIPOS>ATOM
      1 C14        -0.3230   -0.6150    2.3600 ca        1 F55     -0.033500
      2 C13         0.8960    0.0240    2.5370 ca        1 F55     -0.131500
      3 C12         0.9530    1.4240    2.6310 ca        1 F55      0.115400
      4 CL1         2.4220    2.1970    2.8400 cl        1 F55      0.049600
      5 C11        -0.2360    2.1820    2.5570 ca        1 F55     -0.131500
      6 C10        -1.4550    1.5520    2.3730 ca        1 F55     -0.033500
      7 C9         -1.5120    0.1460    2.2600 ca        1 F55     -0.246600
      8 C8         -2.7360   -0.5900    2.0830 c         1 F55      0.634700
      9 O8         -3.0570   -1.7380    2.3550 o         1 F55     -0.479100
     10 N2         -3.8830    0.2080    1.3820 n4        1 F55     -0.583600
     11 C7         -4.9670   -0.6440    0.8350 c         1 F55      0.522100
     12 O7         -5.1810   -0.6940   -0.3670 o         1 F55     -0.319100
     13 N1         -5.8040   -1.4570    1.7670 n4        1 F55     -0.651800
     14 C1         -6.7840   -0.5950    2.5570 c3        1 F55      0.346300
     15 O5         -5.9720    0.4140    3.1150 os        1 F55     -0.497600
     16 C5         -6.6830    1.4090    3.8860 c3        1 F55      0.135100
     17 C6         -5.5400    2.3170    4.3630 c3        1 F55      0.135400
     18 O6         -4.7040    2.5910    3.2460 oh        1 F55     -0.662800
     19 C4         -7.4580    0.7390    5.0300 c3        1 F55      0.092100
     20 O4         -8.2980    1.7450    5.5610 oh        1 F55     -0.576800
     21 C3         -8.3360   -0.4090    4.4810 c3        1 F55      0.083100
     22 O3         -8.8690   -1.1650    5.5480 oh        1 F55     -0.582800
     23 C2         -7.4680   -1.4060    3.6870 c3        1 F55      0.118100
     24 O2         -8.2140   -2.4050    3.0320 oh        1 F55     -0.617800
     25 H14        -0.3650   -1.7170    2.2940 ha        1 F55      0.161500
     26 H13         1.8230   -0.5750    2.6070 ha        1 F55      0.195500
     27 H11        -0.1910    3.2820    2.6530 ha        1 F55      0.195500
     28 H10        -2.3700    2.1690    2.3670 ha        1 F55      0.161500
     29 HN2        -3.4730    0.7370    0.5930 hn        1 F55      0.518300
     30 HN1        -5.1980   -1.9880    2.4220 hn        1 F55      0.516800
     31 H1         -7.5400   -0.1790    1.8240 hx        1 F55      0.136700
     32 H5         -7.3860    1.9610    3.2030 h1        1 F55      0.096700
     33 H6         -5.9790    3.2430    4.8180 h1        1 F55      0.099200
     34 H6A        -4.8930    1.7850    5.1110 h1        1 F55      0.099200
     35 HO6        -4.8710    3.5010    2.9650 ho        1 F55      0.445000
     36 H4         -6.7530    0.3350    5.8070 h1        1 F55      0.086700
     37 HO4        -8.4920    1.5080    6.4800 ho        1 F55      0.447000
     38 H3         -9.1560    0.0080    3.8320 h1        1 F55      0.088700
     39 HO3        -9.6680   -0.7140    5.8590 ho        1 F55      0.451000
     40 H2         -6.7110   -1.8760    4.3760 h1        1 F55      0.096700
     41 HO2        -8.8700   -2.7500    3.6640 ho        1 F55      0.485000
     42 H22        -4.2690    0.8990    2.0710 hn        1 F55      0.518300
     43 H12        -6.3690   -2.1330    1.2130 hn        1 F55      0.516800
@<TRIPOS>BOND
     1    1    2 ar  
     2    1    7 ar  
     3    1   25 1   
     4    2    3 ar  
     5    2   26 1   
     6    3    4 1   
     7    3    5 ar  
     8    5    6 ar  
     9    5   27 1   
    10    6    7 ar  
    11    6   28 1   
    12    7    8 1   
    13    8    9 2   
    14    8   10 1   
    15   10   11 1   
    16   10   29 1   
    17   10   42 1   
    18   11   12 2   
    19   11   13 1   
    20   13   14 1   
    21   13   30 1   
    22   13   43 1   
    23   14   15 1   
    24   14   23 1   
    25   14   31 1   
    26   15   16 1   
    27   16   17 1   
    28   16   19 1   
    29   16   32 1   
    30   17   18 1   
    31   17   33 1   
    32   17   34 1   
    33   18   35 1   
    34   19   20 1   
    35   19   21 1   
    36   19   36 1   
    37   20   37 1   
    38   21   22 1   
    39   21   23 1   
    40   21   38 1   
    41   22   39 1   
    42   23   24 1   
    43   23   40 1   
    44   24   41 1   
@<TRIPOS>SUBSTRUCTURE
     1 F55         1 TEMP              0 ****  ****    0 ROOT
