@<TRIPOS>MOLECULE
F55
   41    39     1     0     0
SMALL
bcc


@<TRIPOS>ATOM
      1 C14         4.0180    1.3350   -0.9270 c1        1 F55     -0.095000
      2 C13         5.3590    1.7300   -0.8540 c1        1 F55     -0.133000
      3 C12         6.0470    2.0410   -2.0050 c1        1 F55     -0.041000
      4 CL1         7.6710    2.5850   -1.9180 cl        1 F55     -0.001000
      5 C11         5.4140    1.9620   -3.2280 c2        1 F55     -0.131000
      6 C10         4.0880    1.5710   -3.2990 c1        1 F55     -0.069000
      7 C9          3.3930    1.2580   -2.1440 c1        1 F55     -0.132000
      8 C8          1.8760    0.8420   -2.2290 c2        1 F55      0.359000
      9 O8          1.3310    0.7750   -3.3000 o         1 F55     -0.276000
     10 N2          1.1810    0.4520   -1.0580 n         1 F55     -0.392000
     11 C7         -0.2230    0.7520   -0.9240 c2        1 F55      0.410000
     12 O7         -0.7770    1.6400   -1.7120 o         1 F55     -0.335000
     13 N1         -1.0340   -0.0130   -0.0120 n         1 F55     -0.411000
     14 C1         -2.4360    0.1940    0.0350 c3        1 F55      0.125000
     15 O5         -2.7920    0.7380    1.3330 os        1 F55     -0.269000
     16 C5         -2.6290   -0.2230    2.4130 c3        1 F55     -0.040000
     17 C6         -1.1890   -0.4820    2.6160 c3        1 F55     -0.051000
     18 O6         -0.9610   -0.7810    3.9530 oh        1 F55     -0.323000
     19 C4         -3.3320   -1.5350    2.1240 c3        1 F55     -0.015000
     20 O4         -4.7530   -1.3010    2.1410 oh        1 F55     -0.315000
     21 C3         -2.9690   -2.0870    0.8220 c3        1 F55     -0.005000
     22 O3         -1.5590   -2.5110    0.8580 oh        1 F55     -0.338000
     23 C2         -3.1340   -1.1190   -0.2550 c3        1 F55      0.003000
     24 O2         -4.5530   -0.8670   -0.4430 oh        1 F55     -0.325000
     25 H14         3.5380    1.1180   -0.1250 ha        1 F55      0.142000
     26 H13         5.8060    1.7850    0.0070 ha        1 F55      0.154000
     27 H11         5.8990    2.1810   -4.0410 ha        1 F55      0.156000
     28 H10         3.6410    1.5160   -4.1680 ha        1 F55      0.161000
     29 HN2         1.6770    0.0570   -0.2960 hn        1 F55      0.232000
     30 HN1        -0.6010   -0.6570    0.6180 hn        1 F55      0.238000
     31 H1         -2.6970    0.8700   -0.6860 h2        1 F55      0.163000
     32 H5         -2.9910    0.1510    3.2160 h1        1 F55      0.132000
     33 H6         -0.6600    0.3370    2.3580 h1        1 F55      0.095500
     34 H6A        -0.9160   -1.2220    2.0720 h1        1 F55      0.095500
     35 HO6        -0.0410   -0.7680    4.1240 ho        1 F55      0.204000
     36 H4         -3.0940   -2.2200    2.8610 h1        1 F55      0.131000
     37 HO4        -5.0750   -1.5320    2.9110 ho        1 F55      0.225000
     38 H3         -3.5130   -2.8380    0.6450 h1        1 F55      0.116000
     39 HO3        -1.5170   -3.3840    0.9070 ho        1 F55      0.218000
     40 H2         -2.7590   -1.5020   -1.0930 h1        1 F55      0.115000
     41 HO2        -4.7340   -0.8500   -1.3010 ho        1 F55      0.220000
@<TRIPOS>BOND
     1    1    7 1   
     2    1   25 1   
     3    2    3 1   
     4    2   26 1   
     5    3    5 1   
     6    5    6 1   
     7    5   27 1   
     8    6   28 1   
     9    7    8 1   
    10    8    9 1   
    11    8   10 1   
    12   10   11 1   
    13   10   29 1   
    14   11   12 1   
    15   11   13 1   
    16   13   14 1   
    17   13   30 1   
    18   14   15 1   
    19   14   23 1   
    20   14   31 1   
    21   15   16 1   
    22   16   17 1   
    23   16   19 1   
    24   16   32 1   
    25   17   18 1   
    26   17   33 1   
    27   17   34 1   
    28   18   35 1   
    29   19   20 1   
    30   19   21 1   
    31   19   36 1   
    32   20   37 1   
    33   21   22 1   
    34   21   23 1   
    35   21   38 1   
    36   22   39 1   
    37   23   24 1   
    38   23   40 1   
    39   24   41 1   
@<TRIPOS>SUBSTRUCTURE
     1 F55         1 TEMP              0 ****  ****    0 ROOT
