@<TRIPOS>MOLECULE
F55
   43    44     1     0     0
SMALL
bcc


@<TRIPOS>ATOM
      1 C14        -0.3550   -0.4590    2.0640 ca        1 F55     -0.033500
      2 C13         0.8470    0.2320    2.1350 ca        1 F55     -0.131500
      3 C12         0.8520    1.6360    2.1890 ca        1 F55      0.115400
      4 Cl1         2.3000    2.4720    2.2710 cl        1 F55      0.049600
      5 C11        -0.3700    2.3430    2.1830 ca        1 F55     -0.131500
      6 C10        -1.5710    1.6620    2.1050 ca        1 F55     -0.033500
      7 C9         -1.5780    0.2520    2.0310 ca        1 F55     -0.246600
      8 C8         -2.7800   -0.5360    1.9630 c         1 F55      0.634700
      9 O8         -3.0330   -1.6880    2.2880 o         1 F55     -0.479100
     10 N2         -4.0060    0.1950    1.3280 ny        1 F55     -0.583600
     11 C7         -5.0900   -0.7140    0.8820 c         1 F55      0.522100
     12 O7         -5.3880   -0.8060   -0.2990 o         1 F55     -0.319100
     13 N1         -5.8250   -1.5320    1.8940 ny        1 F55     -0.651800
     14 C1         -6.7800   -0.6880    2.7300 c3        1 F55      0.346300
     15 O5         -5.9740    0.3680    3.2010 os        1 F55     -0.497600
     16 C5         -6.6680    1.3560    3.9970 c3        1 F55      0.135100
     17 C6         -5.5320    2.3220    4.3660 c3        1 F55      0.135400
     18 O6         -4.7900    2.5960    3.1860 oh        1 F55     -0.662800
     19 C4         -7.3320    0.6890    5.2100 c3        1 F55      0.092100
     20 O4         -8.1720    1.6750    5.7750 oh        1 F55     -0.576800
     21 C3         -8.1990   -0.5080    4.7550 c3        1 F55      0.083100
     22 O3         -8.6220   -1.2540    5.8770 oh        1 F55     -0.582800
     23 C2         -7.3490   -1.4920    3.9260 c3        1 F55      0.118100
     24 O2         -8.0980   -2.5370    3.3530 oh        1 F55     -0.617800
     25 H14        -0.3550   -1.5630    2.0290 ha        1 F55      0.161500
     26 H13         1.8010   -0.3280    2.1530 ha        1 F55      0.195500
     27 H11        -0.3620    3.4470    2.2480 ha        1 F55      0.195500
     28 H10        -2.5090    2.2410    2.1500 ha        1 F55      0.161500
     29 HN2        -4.3700    0.8900    2.0250 hn        1 F55      0.518300
     30 HN1        -5.1520   -2.0200    2.5160 hn        1 F55      0.516800
     31 H1         -7.6030   -0.3220    2.0430 hx        1 F55      0.136700
     32 H5         -7.4400    1.8600    3.3520 h1        1 F55      0.096700
     33 H6         -5.9760    3.2420    4.8280 h1        1 F55      0.099200
     34 H6A        -4.8120    1.8360    5.0790 h1        1 F55      0.099200
     35 HO6        -5.0140    3.4900    2.8950 ho        1 F55      0.445000
     36 H4         -6.5570    0.3340    5.9450 h1        1 F55      0.086700
     37 HO4        -8.2900    1.4580    6.7110 ho        1 F55      0.447000
     38 H3         -9.0780   -0.1420    4.1570 h1        1 F55      0.088700
     39 HO3        -9.4160   -0.8260    6.2330 ho        1 F55      0.451000
     40 H2         -6.5250   -1.9130    4.5710 h1        1 F55      0.096700
     41 HO2        -8.6920   -2.8900    4.0380 ho        1 F55      0.485000
     42 H22        -3.6760    0.7170    0.4970 hn        1 F55      0.518300
     43 H12        -6.3990   -2.2460    1.3990 hn        1 F55      0.516800
@<TRIPOS>BOND
     1    1    2 ar  
     2    1    7 ar  
     3    1   25 1   
     4    2    3 ar  
     5    2   26 1   
     6    3    4 1   
     7    3    5 ar  
     8    5    6 ar  
     9    5   27 1   
    10    6    7 ar  
    11    6   28 1   
    12    7    8 1   
    13    8    9 2   
    14    8   10 1   
    15   10   11 1   
    16   10   29 1   
    17   10   42 1   
    18   11   12 2   
    19   11   13 1   
    20   13   14 1   
    21   13   30 1   
    22   13   43 1   
    23   14   15 1   
    24   14   23 1   
    25   14   31 1   
    26   15   16 1   
    27   16   17 1   
    28   16   19 1   
    29   16   32 1   
    30   17   18 1   
    31   17   33 1   
    32   17   34 1   
    33   18   35 1   
    34   19   20 1   
    35   19   21 1   
    36   19   36 1   
    37   20   37 1   
    38   21   22 1   
    39   21   23 1   
    40   21   38 1   
    41   22   39 1   
    42   23   24 1   
    43   23   40 1   
    44   24   41 1   
@<TRIPOS>SUBSTRUCTURE
     1 F55         1 TEMP              0 ****  ****    0 ROOT
