@<TRIPOS>MOLECULE
F55
   43    44     1     0     0
SMALL
bcc


@<TRIPOS>ATOM
      1 C14        -0.3640   -0.6930    2.2310 ca        1 F55     -0.033500
      2 C13         0.8770   -0.1080    2.4360 ca        1 F55     -0.131500
      3 C12         0.9790    1.2800    2.6310 ca        1 F55      0.115400
      4 CL1         2.4750    1.9890    2.8750 cl        1 F55      0.049600
      5 C11        -0.1860    2.0770    2.6300 ca        1 F55     -0.131500
      6 C10        -1.4260    1.5010    2.4190 ca        1 F55     -0.033500
      7 C9         -1.5290    0.1090    2.2040 ca        1 F55     -0.246600
      8 C8         -2.7780   -0.5730    1.9910 c         1 F55      0.634700
      9 O8         -3.1320   -1.7280    2.1840 o         1 F55     -0.479100
     10 N2         -3.9080    0.3080    1.3670 n4        1 F55     -0.583600
     11 C7         -5.0250   -0.4660    0.7750 c         1 F55      0.522100
     12 O7         -5.2550   -0.4220   -0.4240 o         1 F55     -0.319100
     13 N1         -5.8770   -1.3190    1.6580 n4        1 F55     -0.651800
     14 C1         -6.8180   -0.4880    2.5220 c3        1 F55      0.346300
     15 O5         -5.9690    0.4520    3.1400 os        1 F55     -0.497600
     16 C5         -6.6370    1.4090    3.9920 c3        1 F55      0.135100
     17 C6         -5.4610    2.2440    4.5180 c3        1 F55      0.135400
     18 O6         -4.6300    2.5730    3.4130 oh        1 F55     -0.662800
     19 C4         -7.4210    0.6820    5.0950 c3        1 F55      0.092100
     20 O4         -8.2210    1.6710    5.7100 oh        1 F55     -0.576800
     21 C3         -8.3420   -0.3950    4.4760 c3        1 F55      0.083100
     22 O3         -8.8850   -1.2110    5.4930 oh        1 F55     -0.582800
     23 C2         -7.5150   -1.3580    3.5990 c3        1 F55      0.118100
     24 O2         -8.3010   -2.2820    2.8840 oh        1 F55     -0.617800
     25 H14        -0.4420   -1.7860    2.0850 ha        1 F55      0.161500
     26 H13         1.7850   -0.7390    2.4490 ha        1 F55      0.195500
     27 H11        -0.1040    3.1650    2.8060 ha        1 F55      0.195500
     28 H10        -2.3210    2.1440    2.4720 ha        1 F55      0.161500
     29 HN2        -3.4910    0.8810    0.6130 hn        1 F55      0.518300
     30 HN1        -5.2800   -1.9150    2.2630 hn        1 F55      0.516800
     31 H1         -7.5700    0.0050    1.8320 hx        1 F55      0.136700
     32 H5         -7.3310    2.0310    3.3610 h1        1 F55      0.096700
     33 H6         -5.8640    3.1470    5.0450 h1        1 F55      0.099200
     34 H6A        -4.8220    1.6380    5.2150 h1        1 F55      0.099200
     35 HO6        -4.7710    3.5050    3.2010 ho        1 F55      0.445000
     36 H4         -6.7200    0.1990    5.8310 h1        1 F55      0.086700
     37 HO4        -8.4110    1.3740    6.6120 ho        1 F55      0.447000
     38 H3         -9.1550    0.0940    3.8710 h1        1 F55      0.088700
     39 HO3        -9.6660   -0.7590    5.8470 ho        1 F55      0.451000
     40 H2         -6.7650   -1.9010    4.2420 h1        1 F55      0.096700
     41 HO2        -8.9590   -2.6520    3.4980 ho        1 F55      0.485000
     42 H22        -4.2630    0.9590    2.1100 hn        1 F55      0.518300
     43 H12        -6.4690   -1.9350    1.0640 hn        1 F55      0.516800
@<TRIPOS>BOND
     1    1    2 ar  
     2    1    7 ar  
     3    1   25 1   
     4    2    3 ar  
     5    2   26 1   
     6    3    4 1   
     7    3    5 ar  
     8    5    6 ar  
     9    5   27 1   
    10    6    7 ar  
    11    6   28 1   
    12    7    8 1   
    13    8    9 2   
    14    8   10 1   
    15   10   11 1   
    16   10   29 1   
    17   10   42 1   
    18   11   12 2   
    19   11   13 1   
    20   13   14 1   
    21   13   30 1   
    22   13   43 1   
    23   14   15 1   
    24   14   23 1   
    25   14   31 1   
    26   15   16 1   
    27   16   17 1   
    28   16   19 1   
    29   16   32 1   
    30   17   18 1   
    31   17   33 1   
    32   17   34 1   
    33   18   35 1   
    34   19   20 1   
    35   19   21 1   
    36   19   36 1   
    37   20   37 1   
    38   21   22 1   
    39   21   23 1   
    40   21   38 1   
    41   22   39 1   
    42   23   24 1   
    43   23   40 1   
    44   24   41 1   
@<TRIPOS>SUBSTRUCTURE
     1 F55         1 TEMP              0 ****  ****    0 ROOT
