@<TRIPOS>MOLECULE
F58
   47    48     1     0     0
SMALL
bcc


@<TRIPOS>ATOM
      1 C1          1.8360    0.5280   -0.2850 c3        1 F58      0.241500
      2 N1          0.4820    0.8800    0.0940 n         1 F58     -0.528900
      3 C2          2.8060    1.7360   -0.1470 c3        1 F58      0.092100
      4 N2         -1.8400    0.1910   -0.0910 n         1 F58     -0.613500
      5 O2          2.5340    2.7380   -1.1090 oh        1 F58     -0.601800
      6 C3          4.2380    1.2610   -0.4440 c3        1 F58      0.108100
      7 O3          5.1750    2.2850   -0.1580 oh        1 F58     -0.608800
      8 C4          4.6020    0.0740    0.4630 c3        1 F58      0.117100
      9 O4          5.8550   -0.4710    0.0920 oh        1 F58     -0.594800
     10 C5          3.5480   -1.0350    0.2930 c3        1 F58      0.151100
     11 O5          2.2630   -0.5090    0.6230 os        1 F58     -0.448600
     12 C6          3.8080   -2.1820    1.2730 c3        1 F58      0.135400
     13 O6          3.2190   -3.3430    0.7110 oh        1 F58     -0.594800
     14 C7         -0.5710    0.3300   -0.6950 c         1 F58      0.753100
     15 O7         -0.3800    0.0500   -1.8930 o         1 F58     -0.554100
     16 C8         -3.0290   -0.0330   -0.8050 c         1 F58      0.670100
     17 O8         -3.0610   -0.0360   -2.0400 o         1 F58     -0.520100
     18 C9         -4.2710   -0.2630    0.0550 c3        1 F58     -0.133700
     19 C10        -5.3680   -0.8910   -0.7940 c3        1 F58     -0.072900
     20 C11        -6.6340   -1.0790    0.0140 c3        1 F58     -0.077400
     21 C12        -7.1010    0.2280    0.6220 c3        1 F58     -0.079400
     22 C13        -6.0090    0.8650    1.4560 c3        1 F58     -0.077400
     23 C14        -4.7390    1.0580    0.6520 c3        1 F58     -0.072900
     24 H1          1.8600    0.1470   -1.3510 h2        1 F58      0.109700
     25 HN1         0.3470    0.8700    1.0840 hn        1 F58      0.291500
     26 H2          2.7530    2.1730    0.8870 h1        1 F58      0.058700
     27 HN2        -1.9180    0.2980    0.8940 hn        1 F58      0.314500
     28 HO2         1.6030    2.9780   -1.0300 ho        1 F58      0.427000
     29 H3          4.3230    0.9640   -1.5270 h1        1 F58      0.069700
     30 HO3         4.9160    3.0510   -0.6880 ho        1 F58      0.429000
     31 H4          4.6390    0.4170    1.5340 h1        1 F58      0.058700
     32 HO4         6.4780    0.2690    0.0690 ho        1 F58      0.426000
     33 H5          3.5500   -1.4210   -0.7630 h1        1 F58      0.084700
     34 H6          4.9170   -2.3220    1.3810 h1        1 F58      0.046200
     35 H6A         3.3470   -1.9550    2.2700 h1        1 F58      0.046200
     36 HO6         3.3910   -4.0620    1.3290 ho        1 F58      0.403000
     37 H9         -4.0190   -0.9750    0.8910 hc        1 F58      0.065700
     38 H10        -5.5700   -0.2330   -1.6810 hc        1 F58      0.054450
     39 H10A       -5.0120   -1.8780   -1.1870 hc        1 F58      0.054450
     40 H11        -7.4370   -1.4920   -0.6500 hc        1 F58      0.043200
     41 H11A       -6.4530   -1.8280    0.8290 hc        1 F58      0.043200
     42 H12        -7.4050    0.9330   -0.1960 hc        1 F58      0.044700
     43 H12A       -8.0020    0.0440    1.2620 hc        1 F58      0.044700
     44 H13        -6.3590    1.8600    1.8380 hc        1 F58      0.043200
     45 H13A       -5.7930    0.2190    2.3470 hc        1 F58      0.043200
     46 H14        -3.9420    1.4850    1.3130 hc        1 F58      0.054450
     47 H14A       -4.9250    1.7920   -0.1760 hc        1 F58      0.054450
@<TRIPOS>BOND
     1    1    2 1   
     2    1    3 1   
     3    1   11 1   
     4    1   24 1   
     5    2   14 1   
     6    2   25 1   
     7    3    5 1   
     8    3    6 1   
     9    3   26 1   
    10    4   14 1   
    11    4   16 1   
    12    4   27 1   
    13    5   28 1   
    14    6    7 1   
    15    6    8 1   
    16    6   29 1   
    17    7   30 1   
    18    8    9 1   
    19    8   10 1   
    20    8   31 1   
    21    9   32 1   
    22   10   11 1   
    23   10   12 1   
    24   10   33 1   
    25   12   13 1   
    26   12   34 1   
    27   12   35 1   
    28   13   36 1   
    29   14   15 2   
    30   16   17 2   
    31   16   18 1   
    32   18   19 1   
    33   18   23 1   
    34   18   37 1   
    35   19   20 1   
    36   19   38 1   
    37   19   39 1   
    38   20   21 1   
    39   20   40 1   
    40   20   41 1   
    41   21   22 1   
    42   21   42 1   
    43   21   43 1   
    44   22   23 1   
    45   22   44 1   
    46   22   45 1   
    47   23   46 1   
    48   23   47 1   
@<TRIPOS>SUBSTRUCTURE
     1 F58         1 TEMP              0 ****  ****    0 ROOT
