@<TRIPOS>MOLECULE
F58
   47    48     1     0     0
SMALL
bcc


@<TRIPOS>ATOM
      1 C1          1.5560   -2.5800   -0.6690 c3        1 F58      0.269500
      2 N1          1.1130   -1.3290   -0.2420 n         1 F58     -0.594900
      3 C2          3.0480   -2.5060   -0.9370 c3        1 F58      0.130100
      4 N2         -0.5890    0.5330   -0.3110 n         1 F58     -0.621500
      5 O2          3.4600   -3.7150   -1.5900 oh        1 F58     -0.578800
      6 C3          3.8420   -2.3390    0.3150 c3        1 F58      0.105100
      7 O3          3.5890   -1.0350    0.8530 oh        1 F58     -0.607800
      8 C4          3.4910   -3.3720    1.3580 c3        1 F58      0.078100
      9 O4          3.9410   -4.6390    0.9190 oh        1 F58     -0.597800
     10 C5          1.9910   -3.4470    1.6180 c3        1 F58      0.076100
     11 O5          1.2100   -3.6060    0.3780 os        1 F58     -0.414600
     12 C6          1.5550   -2.2020    2.3070 c3        1 F58      0.096400
     13 O6          1.2310   -2.5000    3.6870 oh        1 F58     -0.598800
     14 C7         -0.1730   -0.8350   -0.6670 c         1 F58      0.777100
     15 O7         -0.8760   -1.5150   -1.4040 o         1 F58     -0.567100
     16 C8         -1.9610    0.9500   -0.5150 c         1 F58      0.671100
     17 O8         -2.8680    0.1240   -0.4630 o         1 F58     -0.527100
     18 C9         -2.2770    2.4000   -0.7670 c3        1 F58     -0.133700
     19 C10        -2.8690    3.0770    0.4860 c3        1 F58     -0.071900
     20 C11        -3.3100    4.5180    0.2350 c3        1 F58     -0.077400
     21 C12        -4.2360    4.6510   -0.9430 c3        1 F58     -0.079400
     22 C13        -3.7100    4.0180   -2.1750 c3        1 F58     -0.077400
     23 C14        -3.2760    2.5710   -1.9600 c3        1 F58     -0.071900
     24 H1          1.0890   -2.8140   -1.5160 h2        1 F58      0.138700
     25 HN1         1.6420   -0.8160    0.2840 hn        1 F58      0.318500
     26 H2          3.2290   -1.7460   -1.5320 h1        1 F58      0.105700
     27 HN2         0.0140    1.1110    0.0590 hn        1 F58      0.315500
     28 HO2         3.8590   -3.5170   -2.3510 ho        1 F58      0.427000
     29 H3          4.8060   -2.4160    0.0960 h1        1 F58      0.077700
     30 HO3         4.3410   -0.5730    0.8720 ho        1 F58      0.416000
     31 H4          3.9500   -3.1440    2.1980 h1        1 F58      0.058700
     32 HO4         4.4570   -5.0030    1.5440 ho        1 F58      0.414000
     33 H5          1.8130   -4.1990    2.1950 h1        1 F58      0.073700
     34 H6          2.2780   -1.5420    2.2760 h1        1 F58      0.064200
     35 H6A         0.7690   -1.8430    1.8620 h1        1 F58      0.064200
     36 HO6         1.1300   -1.7260    4.1470 ho        1 F58      0.404000
     37 H9         -1.3920    2.7550   -0.9840 hc        1 F58      0.064700
     38 H10        -2.1840    3.0760    1.2020 hc        1 F58      0.053950
     39 H10A       -3.6410    2.5590    0.7880 hc        1 F58      0.053950
     40 H11        -3.7730    4.8560    1.0450 hc        1 F58      0.042950
     41 H11A       -2.5130    5.0670    0.0740 hc        1 F58      0.042950
     42 H12        -4.3860    5.6110   -1.1200 hc        1 F58      0.043700
     43 H12A       -5.0930    4.2350   -0.7170 hc        1 F58      0.043700
     44 H13        -2.9470    4.5320   -2.4900 hc        1 F58      0.042950
     45 H13A       -4.4220    4.0380   -2.8740 hc        1 F58      0.042950
     46 H14        -2.8410    2.2440   -2.7860 hc        1 F58      0.053950
     47 H14A       -4.0670    2.0290   -1.7860 hc        1 F58      0.053950
@<TRIPOS>BOND
     1    1    2 1   
     2    1    3 1   
     3    1   11 1   
     4    1   24 1   
     5    2   14 1   
     6    2   25 1   
     7    3    5 1   
     8    3    6 1   
     9    3   26 1   
    10    4   14 1   
    11    4   16 1   
    12    4   27 1   
    13    5   28 1   
    14    6    7 1   
    15    6    8 1   
    16    6   29 1   
    17    7   30 1   
    18    8    9 1   
    19    8   10 1   
    20    8   31 1   
    21    9   32 1   
    22   10   11 1   
    23   10   12 1   
    24   10   33 1   
    25   12   13 1   
    26   12   34 1   
    27   12   35 1   
    28   13   36 1   
    29   14   15 2   
    30   16   17 2   
    31   16   18 1   
    32   18   19 1   
    33   18   23 1   
    34   18   37 1   
    35   19   20 1   
    36   19   38 1   
    37   19   39 1   
    38   20   21 1   
    39   20   40 1   
    40   20   41 1   
    41   21   22 1   
    42   21   42 1   
    43   21   43 1   
    44   22   23 1   
    45   22   44 1   
    46   22   45 1   
    47   23   46 1   
    48   23   47 1   
@<TRIPOS>SUBSTRUCTURE
     1 F58         1 TEMP              0 ****  ****    0 ROOT
