@<TRIPOS>MOLECULE
F58
   49    50     1     0     0
SMALL
bcc


@<TRIPOS>ATOM
      1 C1          0.1080   -1.1670    0.3620 c3        1 F58      0.345300
      2 N1         -0.1860   -2.2720   -0.6470 n4        1 F58     -0.652800
      3 C2          1.6280   -0.8800    0.4580 c3        1 F58      0.119100
      4 N2         -2.3840   -1.4160   -1.6690 n4        1 F58     -0.593600
      5 O2          2.2060   -2.0700    0.9380 oh        1 F58     -0.618800
      6 C3          1.7890    0.3160    1.4180 c3        1 F58      0.083100
      7 O3          3.1710    0.6040    1.4060 oh        1 F58     -0.582800
      8 C4          0.9880    1.5310    0.8930 c3        1 F58      0.091100
      9 O4          0.9670    2.5300    1.8920 oh        1 F58     -0.576800
     10 C5         -0.4810    1.1420    0.6650 c3        1 F58      0.139100
     11 O5         -0.5610   -0.0430   -0.1620 os        1 F58     -0.495600
     12 C6         -1.2690    2.1660   -0.1630 c3        1 F58      0.136400
     13 O6         -2.4640    1.5300   -0.5960 oh        1 F58     -0.667800
     14 C7         -1.6510   -2.4390   -0.8840 c         1 F58      0.513100
     15 O7         -2.2270   -3.4200   -0.4360 o         1 F58     -0.317100
     16 C8         -1.9520   -1.3100   -3.1660 c         1 F58      0.608100
     17 O8         -0.8090   -1.6670   -3.3650 o         1 F58     -0.435100
     18 C9         -3.0310   -0.7850   -4.0810 c3        1 F58     -0.119700
     19 C10        -4.0760   -1.8710   -4.3290 c3        1 F58     -0.080400
     20 C11        -5.1300   -1.3530   -5.2930 c3        1 F58     -0.080900
     21 C12        -4.5110   -0.8800   -6.5900 c3        1 F58     -0.093400
     22 C13        -3.4440    0.1640   -6.3450 c3        1 F58     -0.080900
     23 C14        -2.3770   -0.3440   -5.3930 c3        1 F58     -0.080400
     24 H1         -0.3190   -1.4940    1.3600 hx        1 F58      0.136700
     25 HN1         0.3020   -2.0640   -1.5390 hn        1 F58      0.516300
     26 H2          2.0630   -0.6150   -0.5480 h1        1 F58      0.096700
     27 HN2        -3.3890   -1.6620   -1.6350 hn        1 F58      0.520300
     28 HO2         3.0900   -1.8550    1.2850 ho        1 F58      0.486000
     29 H3          1.4410    0.0440    2.4530 h1        1 F58      0.088700
     30 HO3         3.3780    1.0930    2.2170 ho        1 F58      0.452000
     31 H4          1.4540    1.9050   -0.0590 h1        1 F58      0.087700
     32 HO4         1.7570    3.0780    1.7750 ho        1 F58      0.447000
     33 H5         -0.9900    0.9320    1.6460 h1        1 F58      0.097700
     34 H6         -0.7030    2.4510   -1.0890 h1        1 F58      0.096700
     35 H6A        -1.4590    3.0720    0.4700 h1        1 F58      0.096700
     36 HO6        -3.2120    1.9980   -0.2000 ho        1 F58      0.450000
     37 H9         -3.5220    0.1110   -3.6000 hc        1 F58      0.114700
     38 H10        -3.5860   -2.7780   -4.7720 hc        1 F58      0.064700
     39 H10A       -4.5700   -2.1690   -3.3680 hc        1 F58      0.064700
     40 H11        -5.8610   -2.1800   -5.5010 hc        1 F58      0.075200
     41 H11A       -5.6990   -0.5130   -4.8130 hc        1 F58      0.075200
     42 H12        -4.0690   -1.7530   -7.1400 hc        1 F58      0.077700
     43 H12A       -5.3130   -0.4460   -7.2460 hc        1 F58      0.077700
     44 H13        -2.9510    0.4370   -7.3170 hc        1 F58      0.075200
     45 H13A       -3.9090    1.0970   -5.9310 hc        1 F58      0.075200
     46 H14        -1.6290    0.4650   -5.1910 hc        1 F58      0.064700
     47 H14A       -1.8370   -1.2120   -5.8550 hc        1 F58      0.064700
     48 H121        0.1970   -3.1560   -0.2530 hn        1 F58      0.516300
     49 H22        -2.2680   -0.4660   -1.2340 hn        1 F58      0.520300
@<TRIPOS>BOND
     1    1    2 1   
     2    1    3 1   
     3    1   11 1   
     4    1   24 1   
     5    2   14 1   
     6    2   25 1   
     7    2   48 1   
     8    3    5 1   
     9    3    6 1   
    10    3   26 1   
    11    4   14 1   
    12    4   16 1   
    13    4   27 1   
    14    4   49 1   
    15    5   28 1   
    16    6    7 1   
    17    6    8 1   
    18    6   29 1   
    19    7   30 1   
    20    8    9 1   
    21    8   10 1   
    22    8   31 1   
    23    9   32 1   
    24   10   11 1   
    25   10   12 1   
    26   10   33 1   
    27   12   13 1   
    28   12   34 1   
    29   12   35 1   
    30   13   36 1   
    31   14   15 2   
    32   16   17 2   
    33   16   18 1   
    34   18   19 1   
    35   18   23 1   
    36   18   37 1   
    37   19   20 1   
    38   19   38 1   
    39   19   39 1   
    40   20   21 1   
    41   20   40 1   
    42   20   41 1   
    43   21   22 1   
    44   21   42 1   
    45   21   43 1   
    46   22   23 1   
    47   22   44 1   
    48   22   45 1   
    49   23   46 1   
    50   23   47 1   
@<TRIPOS>SUBSTRUCTURE
     1 F58         1 TEMP              0 ****  ****    0 ROOT
