@<TRIPOS>MOLECULE
F58
   49    50     1     0     0
SMALL
bcc


@<TRIPOS>ATOM
      1 C1          0.0350   -1.1690    0.4030 c3        1 F58      0.345300
      2 N1         -0.2700   -2.2830   -0.5930 ny        1 F58     -0.652800
      3 C2          1.5600   -0.9250    0.5270 c3        1 F58      0.119100
      4 N2         -2.4200   -1.3820   -1.6770 ny        1 F58     -0.593600
      5 O2          2.0930   -2.1220    1.0400 oh        1 F58     -0.618800
      6 C3          1.7360    0.2840    1.4690 c3        1 F58      0.083100
      7 O3          3.1260    0.5310    1.4820 oh        1 F58     -0.582800
      8 C4          0.9830    1.5110    0.9060 c3        1 F58      0.091100
      9 O4          0.9700    2.5280    1.8860 oh        1 F58     -0.576800
     10 C5         -0.4920    1.1620    0.6520 c3        1 F58      0.139100
     11 O5         -0.5890   -0.0350   -0.1550 os        1 F58     -0.495600
     12 C6         -1.2320    2.1930   -0.2100 c3        1 F58      0.136400
     13 O6         -2.4360    1.5840   -0.6590 oh        1 F58     -0.667800
     14 C7         -1.7340   -2.4110   -0.8590 c         1 F58      0.513100
     15 O7         -2.3480   -3.3660   -0.4060 o         1 F58     -0.317100
     16 C8         -1.9530   -1.3150   -3.1660 c         1 F58      0.608100
     17 O8         -0.8160   -1.7090   -3.3340 o         1 F58     -0.435100
     18 C9         -2.9950   -0.7760   -4.1140 c3        1 F58     -0.119700
     19 C10        -4.0660   -1.8360   -4.3670 c3        1 F58     -0.080400
     20 C11        -5.0840   -1.3050   -5.3620 c3        1 F58     -0.080900
     21 C12        -4.4230   -0.8740   -6.6530 c3        1 F58     -0.093400
     22 C13        -3.3320    0.1440   -6.4020 c3        1 F58     -0.080900
     23 C14        -2.3010   -0.3770   -5.4190 c3        1 F58     -0.080400
     24 H1         -0.4230   -1.4650    1.3970 hx        1 F58      0.136700
     25 HN1         0.0780   -3.1710   -0.1750 hn        1 F58      0.516300
     26 H2          2.0240   -0.6910   -0.4740 h1        1 F58      0.096700
     27 HN2        -3.4320   -1.5980   -1.6610 hn        1 F58      0.520300
     28 HO2         2.9750   -1.9270    1.4020 ho        1 F58      0.486000
     29 H3          1.3590    0.0400    2.5010 h1        1 F58      0.088700
     30 HO3         3.3300    1.0280    2.2880 ho        1 F58      0.452000
     31 H4          1.4800    1.8550   -0.0430 h1        1 F58      0.087700
     32 HO4         1.7780    3.0510    1.7770 ho        1 F58      0.447000
     33 H5         -1.0270    0.9840    1.6250 h1        1 F58      0.097700
     34 H6         -1.4080    3.1150    0.4030 h1        1 F58      0.096700
     35 H6A        -0.6370    2.4440   -1.1290 h1        1 F58      0.096700
     36 HO6        -3.1770    2.0810   -0.2870 ho        1 F58      0.450000
     37 H9         -3.4710    0.1420   -3.6590 hc        1 F58      0.114700
     38 H10        -3.5930   -2.7640   -4.7830 hc        1 F58      0.064700
     39 H10A       -4.5890   -2.1030   -3.4120 hc        1 F58      0.064700
     40 H11        -5.8330   -2.1150   -5.5720 hc        1 F58      0.075200
     41 H11A       -5.6390   -0.4410   -4.9100 hc        1 F58      0.075200
     42 H12        -3.9950   -1.7690   -7.1780 hc        1 F58      0.077700
     43 H12A       -5.1980   -0.4290   -7.3340 hc        1 F58      0.077700
     44 H13        -2.8110    0.3850   -7.3680 hc        1 F58      0.075200
     45 H13A       -3.7790    1.0970   -6.0150 hc        1 F58      0.075200
     46 H14        -1.5340    0.4130   -5.2140 hc        1 F58      0.064700
     47 H14A       -1.7760   -1.2690   -5.8530 hc        1 F58      0.064700
     48 H121        0.2430   -2.1060   -1.4780 hn        1 F58      0.516300
     49 H22        -2.2850   -0.4270   -1.2570 hn        1 F58      0.520300
@<TRIPOS>BOND
     1    1    2 1   
     2    1    3 1   
     3    1   11 1   
     4    1   24 1   
     5    2   14 1   
     6    2   25 1   
     7    2   48 1   
     8    3    5 1   
     9    3    6 1   
    10    3   26 1   
    11    4   14 1   
    12    4   16 1   
    13    4   27 1   
    14    4   49 1   
    15    5   28 1   
    16    6    7 1   
    17    6    8 1   
    18    6   29 1   
    19    7   30 1   
    20    8    9 1   
    21    8   10 1   
    22    8   31 1   
    23    9   32 1   
    24   10   11 1   
    25   10   12 1   
    26   10   33 1   
    27   12   13 1   
    28   12   34 1   
    29   12   35 1   
    30   13   36 1   
    31   14   15 2   
    32   16   17 2   
    33   16   18 1   
    34   18   19 1   
    35   18   23 1   
    36   18   37 1   
    37   19   20 1   
    38   19   38 1   
    39   19   39 1   
    40   20   21 1   
    41   20   40 1   
    42   20   41 1   
    43   21   22 1   
    44   21   42 1   
    45   21   43 1   
    46   22   23 1   
    47   22   44 1   
    48   22   45 1   
    49   23   46 1   
    50   23   47 1   
@<TRIPOS>SUBSTRUCTURE
     1 F58         1 TEMP              0 ****  ****    0 ROOT
