@<TRIPOS>MOLECULE
F59
   53    54     1     0     0
SMALL
bcc


@<TRIPOS>ATOM
      1 C16       295.2320   66.3280  248.6380 ca        1 F59     -0.076000
      2 C17       296.5630   66.2190  248.2480 ca        1 F59     -0.130000
      3 C18       297.5810   66.6720  249.0900 ca        1 F59     -0.063000
      4 C19       297.2620   67.2320  250.3290 ca        1 F59     -0.130000
      5 C20       295.9340   67.3340  250.7310 ca        1 F59     -0.076000
      6 C15       294.9000   66.8850  249.8870 cp        1 F59     -0.130000
      7 C12       293.5160   66.9940  250.2990 cq        1 F59      0.161000
      8 C13       293.1600   66.9110  251.6670 ca        1 F59     -0.159000
      9 C14       291.8460   67.0120  252.0710 ca        1 F59      0.006000
     10 C11       292.4900   67.1870  249.3430 ca        1 F59     -0.159000
     11 C10       291.1690   67.2950  249.7230 ca        1 F59      0.006000
     12 C9        290.8230   67.2070  251.1010 ca        1 F59     -0.225000
     13 C8        289.5080   67.3110  251.4920 c1        1 F59      0.454000
     14 O8        288.3970   67.4000  251.8230 o         1 F59      0.057000
     15 N2       -239.1260  -54.1950 -194.3280 n         1 F59     -0.367000
     16 C7       -238.2970  -53.4670 -195.1130 c2        1 F59      0.342000
     17 O7       -237.7160  -53.8190 -196.1460 o         1 F59     -0.255000
     18 N1       -238.0260  -52.0000 -194.7410 n4        1 F59     -0.101000
     19 C1       -237.5180  -51.8200 -193.3420 c3        1 F59      0.060000
     20 O5       -238.6220  -52.1050 -192.4920 os        1 F59     -0.296000
     21 C5       -238.2590  -52.1140 -191.0980 c3        1 F59     -0.027000
     22 C6       -239.5560  -52.5260 -190.3890 c3        1 F59     -0.018000
     23 O6       -239.9310  -53.8150 -190.8200 oh        1 F59     -0.322000
     24 C4       -237.7520  -50.7240 -190.6840 c3        1 F59     -0.030000
     25 O4       -237.1870  -50.7850 -189.3880 oh        1 F59     -0.309000
     26 C3       -236.5980  -50.2860 -191.6110 c3        1 F59      0.003000
     27 O3       -236.2620  -48.9320 -191.3930 oh        1 F59     -0.319000
     28 C2       -237.0470  -50.3640 -193.0800 c3        1 F59      0.002000
     29 O2       -235.9940  -50.1250 -193.9870 oh        1 F59     -0.344000
     30 H16       294.4400   65.9530  247.9700 ha        1 F59      0.141000
     31 H17       296.8130   65.7720  247.2730 ha        1 F59      0.159000
     32 H18       298.6340   66.5890  248.7760 ha        1 F59      0.160000
     33 H19       298.0640   67.5950  250.9910 ha        1 F59      0.159000
     34 H20       295.6970   67.7900  251.7050 ha        1 F59      0.141000
     35 H13       293.9480   66.7450  252.4230 ha        1 F59      0.183000
     36 H14       291.5840   66.9360  253.1410 ha        1 F59      0.170000
     37 H11       292.7550   67.2700  248.2740 ha        1 F59      0.183000
     38 H10       290.3820   67.4530  248.9660 ha        1 F59      0.170000
     39 HN2      -239.3050  -55.1360 -194.6100 hn        1 F59      0.291000
     40 HN1      -237.3010  -51.6440 -195.3880 hn        1 F59      0.278000
     41 H1       -236.6700  -52.5520 -193.1820 hx        1 F59      0.160000
     42 H5       -237.4570  -52.8850 -190.9300 h1        1 F59      0.118000
     43 H6       -240.4000  -51.8510 -190.6970 h1        1 F59      0.117500
     44 H6A      -239.3940  -52.4700 -189.2820 h1        1 F59      0.117500
     45 HO6      -239.5250  -54.4580 -190.2240 ho        1 F59      0.218000
     46 H4       -238.5860  -49.9720 -190.7340 h1        1 F59      0.120000
     47 HO4      -237.9020  -50.6590 -188.7500 ho        1 F59      0.228000
     48 H3       -235.6990  -50.9410 -191.4360 h1        1 F59      0.119000
     49 HO3      -235.9620  -48.8600 -190.4740 ho        1 F59      0.248000
     50 H2       -237.8830  -49.6290 -193.2590 h1        1 F59      0.126000
     51 HO2      -235.5100  -49.3430 -193.6740 ho        1 F59      0.269000
     52 H22      -239.5000  -53.8620 -193.4630 hn        1 F59      0.291000
     53 H12      -238.8870  -51.4560 -194.8660 hn        1 F59      0.278000
@<TRIPOS>BOND
     1    1    2 1   
     2    1    6 1   
     3    1   30 1   
     4    2    3 1   
     5    2   31 1   
     6    3    4 1   
     7    3   32 1   
     8    4    5 1   
     9    4   33 1   
    10    5    6 1   
    11    5   34 1   
    12    6    7 1   
    13    7    8 1   
    14    7   10 1   
    15    8    9 1   
    16    8   35 1   
    17    9   12 1   
    18    9   36 1   
    19   10   11 1   
    20   10   37 1   
    21   11   12 1   
    22   11   38 1   
    23   12   13 1   
    24   13   14 1   
    25   15   16 1   
    26   15   39 1   
    27   15   52 1   
    28   16   17 1   
    29   16   18 1   
    30   18   19 1   
    31   18   40 1   
    32   18   53 1   
    33   19   20 1   
    34   19   28 1   
    35   19   41 1   
    36   20   21 1   
    37   21   22 1   
    38   21   24 1   
    39   21   42 1   
    40   22   23 1   
    41   22   43 1   
    42   22   44 1   
    43   23   45 1   
    44   24   25 1   
    45   24   26 1   
    46   24   46 1   
    47   25   47 1   
    48   26   27 1   
    49   26   28 1   
    50   26   48 1   
    51   27   49 1   
    52   28   29 1   
    53   28   50 1   
    54   29   51 1   
@<TRIPOS>SUBSTRUCTURE
     1 F59         1 TEMP              0 ****  ****    0 ROOT
