@<TRIPOS>MOLECULE
F59
   53    54     1     0     0
SMALL
bcc


@<TRIPOS>ATOM
      1 C16       139.2140   30.8920  104.7410 ca        1 F59     -0.076000
      2 C17       138.1130   30.6500  103.9270 ca        1 F59     -0.130000
      3 C18       138.2930   30.3250  102.5800 ca        1 F59     -0.063000
      4 C19       139.5820   30.2360  102.0510 ca        1 F59     -0.130000
      5 C20       140.6890   30.4650  102.8630 ca        1 F59     -0.076000
      6 C15       140.5190   30.7990  104.2190 cp        1 F59     -0.130000
      7 C12       141.6680   31.0440  105.0660 cq        1 F59      0.161000
      8 C13       142.8930   30.3730  104.8340 ca        1 F59     -0.159000
      9 C14       143.9930   30.5970  105.6340 ca        1 F59      0.006000
     10 C11       141.5910   31.9600  106.1430 ca        1 F59     -0.159000
     11 C10       142.6790   32.2030  106.9540 ca        1 F59      0.006000
     12 C9        143.9040   31.5210  106.7130 ca        1 F59     -0.225000
     13 C8        144.9960   31.7540  107.5160 c1        1 F59      0.454000
     14 O8        145.9190   31.9510  108.1960 o         1 F59      0.057000
     15 N2       -122.3020  -24.9790  -83.8400 nt        1 F59     -0.367000
     16 C7       -122.0180  -23.6580  -83.9320 c2        1 F59      0.342000
     17 O7       -121.8410  -22.9830  -84.9520 o         1 F59     -0.255000
     18 N1       -121.9200  -22.8320  -82.6400 ny        1 F59     -0.101000
     19 C1       -120.9410  -23.3850  -81.6460 c3        1 F59      0.060000
     20 O5       -121.5330  -24.5780  -81.1480 os        1 F59     -0.296000
     21 C5       -120.6490  -25.3130  -80.2800 c3        1 F59     -0.027000
     22 C6       -121.4450  -26.5810  -79.9430 c3        1 F59     -0.018000
     23 O6       -121.6960  -27.3010  -81.1290 oh        1 F59     -0.322000
     24 C4       -120.3060  -24.4630  -79.0470 c3        1 F59     -0.030000
     25 O4       -119.2710  -25.0820  -78.3090 oh        1 F59     -0.309000
     26 C3       -119.7320  -23.1000  -79.4900 c3        1 F59      0.003000
     27 O3       -119.6130  -22.2210  -78.3910 oh        1 F59     -0.319000
     28 C2       -120.7050  -22.4110  -80.4620 c3        1 F59      0.002000
     29 O2       -120.1720  -21.2330  -81.0250 oh        1 F59     -0.344000
     30 H16       139.0590   31.1340  105.8050 ha        1 F59      0.141000
     31 H17       137.0960   30.7150  104.3460 ha        1 F59      0.159000
     32 H18       137.4180   30.1380  101.9360 ha        1 F59      0.160000
     33 H19       139.7250   29.9850  100.9880 ha        1 F59      0.159000
     34 H20       141.7000   30.4050  102.4290 ha        1 F59      0.141000
     35 H13       142.9630   29.6440  104.0070 ha        1 F59      0.183000
     36 H14       144.9380   30.0600  105.4450 ha        1 F59      0.170000
     37 H11       140.6460   32.5030  106.3260 ha        1 F59      0.183000
     38 H10       142.6040   32.9260  107.7850 ha        1 F59      0.170000
     39 HN2      -122.3560  -25.4720  -82.9720 hn        1 F59      0.291000
     40 HN1      -122.8470  -22.7690  -82.2080 hn        1 F59      0.278000
     41 H1       -119.9730  -23.5980  -82.1920 hx        1 F59      0.160000
     42 H5       -119.7110  -25.5750  -80.8430 h1        1 F59      0.118000
     43 H6       -122.4570  -26.3110  -79.5370 h1        1 F59      0.117500
     44 H6A      -120.8680  -27.1780  -79.1900 h1        1 F59      0.117500
     45 HO6      -120.9670  -27.9200  -81.2620 ho        1 F59      0.218000
     46 H4       -121.2230  -24.3020  -78.4160 h1        1 F59      0.120000
     47 HO4      -119.6810  -25.7100  -77.6990 ho        1 F59      0.228000
     48 H3       -118.7270  -23.2500  -79.9760 h1        1 F59      0.119000
     49 HO3      -118.9920  -22.6290  -77.7690 ho        1 F59      0.248000
     50 H2       -121.6700  -22.1800  -79.9280 h1        1 F59      0.126000
     51 HO2      -119.7700  -20.7200  -80.3050 ho        1 F59      0.269000
     52 H22      -122.3880  -25.4850  -84.6970 hn        1 F59      0.291000
     53 H12      -121.6000  -21.8830  -82.9000 hn        1 F59      0.278000
@<TRIPOS>BOND
     1    1    2 1   
     2    1    6 1   
     3    1   30 1   
     4    2    3 1   
     5    2   31 1   
     6    3    4 1   
     7    3   32 1   
     8    4    5 1   
     9    4   33 1   
    10    5    6 1   
    11    5   34 1   
    12    6    7 1   
    13    7    8 1   
    14    7   10 1   
    15    8    9 1   
    16    8   35 1   
    17    9   12 1   
    18    9   36 1   
    19   10   11 1   
    20   10   37 1   
    21   11   12 1   
    22   11   38 1   
    23   12   13 1   
    24   13   14 1   
    25   15   16 1   
    26   15   39 1   
    27   15   52 1   
    28   16   17 1   
    29   16   18 1   
    30   18   19 1   
    31   18   40 1   
    32   18   53 1   
    33   19   20 1   
    34   19   28 1   
    35   19   41 1   
    36   20   21 1   
    37   21   22 1   
    38   21   24 1   
    39   21   42 1   
    40   22   23 1   
    41   22   43 1   
    42   22   44 1   
    43   23   45 1   
    44   24   25 1   
    45   24   26 1   
    46   24   46 1   
    47   25   47 1   
    48   26   27 1   
    49   26   28 1   
    50   26   48 1   
    51   27   49 1   
    52   28   29 1   
    53   28   50 1   
    54   29   51 1   
@<TRIPOS>SUBSTRUCTURE
     1 F59         1 TEMP              0 ****  ****    0 ROOT
