@<TRIPOS>MOLECULE
F59
   53    54     1     0     0
SMALL
bcc


@<TRIPOS>ATOM
      1 C16      1265.8730  121.0940  903.3940 ca        1 F59     -0.076000
      2 C17      1265.0430  121.3270  904.4860 ca        1 F59     -0.130000
      3 C18      1263.6850  121.5880  904.2930 ca        1 F59     -0.063000
      4 C19      1263.1560  121.6100  903.0010 ca        1 F59     -0.130000
      5 C20      1263.9770  121.3660  901.9050 ca        1 F59     -0.076000
      6 C15      1265.3490  121.1080  902.0880 cp        1 F59     -0.130000
      7 C12      1266.2080  120.8590  900.9490 cq        1 F59      0.161000
      8 C13      1265.7010  120.2360  899.7830 ca        1 F59     -0.159000
      9 C14      1266.5110  119.9900  898.6940 ca        1 F59      0.006000
     10 C11      1267.5740  121.2330  900.9770 ca        1 F59     -0.159000
     11 C10      1268.4010  121.0010  899.8990 ca        1 F59      0.006000
     12 C9       1267.8810  120.3720  898.7340 ca        1 F59     -0.225000
     13 C8       1268.6980  120.1330  897.6530 c1        1 F59      0.454000
     14 O8       1269.3880  119.9320  896.7390 o         1 F59      0.057000
     15 N2       -983.0770  -92.2830 -694.7830 n         1 F59     -0.367000
     16 C7       -983.9150  -91.3940 -694.1990 c2        1 F59      0.342000
     17 O7       -984.2300  -90.2660 -694.5940 o         1 F59     -0.255000
     18 N1       -984.6210  -91.7930 -692.8930 n4        1 F59     -0.101000
     19 C1       -983.6790  -92.2290 -691.8110 c3        1 F59      0.060000
     20 O5       -983.1720  -93.4900 -692.2280 os        1 F59     -0.296000
     21 C5       -982.1360  -93.9850 -691.3580 c3        1 F59     -0.027000
     22 C6       -981.6830  -95.2840 -692.0380 c3        1 F59     -0.018000
     23 O6       -981.1650  -94.9840 -693.3150 oh        1 F59     -0.322000
     24 C4       -982.7030  -94.2010 -689.9460 c3        1 F59     -0.030000
     25 O4       -981.6490  -94.4690 -689.0410 oh        1 F59     -0.309000
     26 C3       -983.3570  -92.9000 -689.4360 c3        1 F59      0.003000
     27 O3       -984.0720  -93.1290 -688.2400 oh        1 F59     -0.319000
     28 C2       -984.4030  -92.4060 -690.4500 c3        1 F59      0.002000
     29 O2       -984.9280  -91.1400 -690.1190 oh        1 F59     -0.344000
     30 H16      1266.9390  120.8750  903.5620 ha        1 F59      0.141000
     31 H17      1265.4600  121.3040  905.5060 ha        1 F59      0.159000
     32 H18      1263.0310  121.7770  905.1600 ha        1 F59      0.160000
     33 H19      1262.0860  121.8210  902.8480 ha        1 F59      0.159000
     34 H20      1263.5500  121.4000  900.8900 ha        1 F59      0.141000
     35 H13      1264.6420  119.9240  899.7520 ha        1 F59      0.183000
     36 H14      1266.1010  119.4960  897.7960 ha        1 F59      0.170000
     37 H11      1267.9790  121.7340  901.8740 ha        1 F59      0.183000
     38 H10      1269.4610  121.3060  899.9350 ha        1 F59      0.170000
     39 HN2      -982.8130  -93.1510 -694.3630 hn        1 F59      0.291000
     40 HN1      -985.1330  -90.9620 -692.5490 hn        1 F59      0.278000
     41 H1       -982.8570  -91.4560 -691.7320 hx        1 F59      0.160000
     42 H5       -981.2930  -93.2410 -691.3270 h1        1 F59      0.118000
     43 H6       -982.5640  -95.9570 -692.2230 h1        1 F59      0.117500
     44 H6A      -980.9340  -95.7930 -691.3770 h1        1 F59      0.117500
     45 HO6      -980.2170  -94.8250 -693.2220 ho        1 F59      0.218000
     46 H4       -983.4610  -95.0310 -689.9520 h1        1 F59      0.120000
     47 HO4      -981.4770  -95.4200 -689.0640 ho        1 F59      0.228000
     48 H3       -982.5660  -92.1150 -689.2690 h1        1 F59      0.119000
     49 HO3      -983.4290  -93.4290 -687.5790 ho        1 F59      0.248000
     50 H2       -985.2370  -93.1600 -690.5290 h1        1 F59      0.126000
     51 HO2      -985.1460  -91.1510 -689.1730 ho        1 F59      0.269000
     52 H22      -982.6540  -92.0080 -695.6450 hn        1 F59      0.291000
     53 H12      -985.2920  -92.5450 -693.0870 hn        1 F59      0.278000
@<TRIPOS>BOND
     1    1    2 1   
     2    1    6 1   
     3    1   30 1   
     4    2    3 1   
     5    2   31 1   
     6    3    4 1   
     7    3   32 1   
     8    4    5 1   
     9    4   33 1   
    10    5    6 1   
    11    5   34 1   
    12    6    7 1   
    13    7    8 1   
    14    7   10 1   
    15    8    9 1   
    16    8   35 1   
    17    9   12 1   
    18    9   36 1   
    19   10   11 1   
    20   10   37 1   
    21   11   12 1   
    22   11   38 1   
    23   12   13 1   
    24   13   14 1   
    25   15   16 1   
    26   15   39 1   
    27   15   52 1   
    28   16   17 1   
    29   16   18 1   
    30   18   19 1   
    31   18   40 1   
    32   18   53 1   
    33   19   20 1   
    34   19   28 1   
    35   19   41 1   
    36   20   21 1   
    37   21   22 1   
    38   21   24 1   
    39   21   42 1   
    40   22   23 1   
    41   22   43 1   
    42   22   44 1   
    43   23   45 1   
    44   24   25 1   
    45   24   26 1   
    46   24   46 1   
    47   25   47 1   
    48   26   27 1   
    49   26   28 1   
    50   26   48 1   
    51   27   49 1   
    52   28   29 1   
    53   28   50 1   
    54   29   51 1   
@<TRIPOS>SUBSTRUCTURE
     1 F59         1 TEMP              0 ****  ****    0 ROOT
