@<TRIPOS>MOLECULE
F59
   51    46     1     0     0
SMALL
bcc


@<TRIPOS>ATOM
      1 C16         7.1120   -0.7240    2.0950 c1        1 F59     -0.063500
      2 C17         8.5100   -0.7310    2.1800 c1        1 F59     -0.059000
      3 C18         9.2370    0.4000    1.8160 c1        1 F59     -0.059000
      4 C19         8.5750    1.5430    1.3650 c1        1 F59     -0.059000
      5 C20         7.1900    1.5540    1.2790 c1        1 F59     -0.059000
      6 C15         6.4510    0.4070    1.6480 c1        1 F59     -0.029000
      7 C12         5.0240    0.4390    1.6270 c1        1 F59     -0.029000
      8 C13         4.3090    0.7790    2.7930 c1        1 F59     -0.059000
      9 C14         2.9230    0.7290    2.7950 c1        1 F59     -0.059000
     10 C11         4.3380    0.0520    0.4760 c1        1 F59     -0.063500
     11 C10         2.9300    0.0020    0.4800 c1        1 F59     -0.048500
     12 C9          2.2270    0.3380    1.6310 cg        1 F59     -0.100200
     13 C8          0.7240    0.3060    1.6390 c         1 F59      0.633300
     14 O8          0.1240    0.6160    2.6450 o         1 F59     -0.515100
     15 N2          0.0010    0.0900    0.4140 n         1 F59     -0.609500
     16 C7         -1.4530   -0.0590    0.4440 c         1 F59      0.767100
     17 O7         -2.0260   -0.1800    1.5030 o         1 F59     -0.563100
     18 N1         -2.2090   -0.0220   -0.7840 n         1 F59     -0.527900
     19 C1         -3.6110   -0.1300   -0.7510 c3        1 F59      0.295500
     20 O5         -3.9940   -1.3940   -1.3550 os        1 F59     -0.464600
     21 C5         -5.4190   -1.5320   -1.5280 c3        1 F59      0.112100
     22 C6         -5.6810   -2.7870   -2.3140 c3        1 F59      0.140400
     23 O6         -5.1800   -3.9370   -1.5730 oh        1 F59     -0.591800
     24 C4         -6.0500   -0.3270   -2.2680 c3        1 F59      0.084100
     25 O4         -7.4750   -0.4590   -2.2430 oh        1 F59     -0.588800
     26 C3         -5.6770    0.9640   -1.6550 c3        1 F59      0.065100
     27 O3         -6.1600    2.0570   -2.5140 oh        1 F59     -0.605800
     28 C2         -4.2260    1.0920   -1.4850 c3        1 F59      0.127100
     29 O2         -3.9540    2.2500   -0.7390 oh        1 F59     -0.579800
     30 H16         6.6070   -1.5130    2.3480 ha        1 F59      0.081000
     31 H17         8.9700   -1.5180    2.4920 ha        1 F59      0.082833
     32 H18        10.1960    0.3930    1.8750 ha        1 F59      0.082833
     33 H19         9.0930    2.3440    1.1070 ha        1 F59      0.082833
     34 H20         6.7210    2.3640    0.9590 ha        1 F59      0.082833
     35 H13         4.8160    1.0680    3.6460 ha        1 F59      0.082833
     36 H14         2.4100    0.9720    3.6310 ha        1 F59      0.082833
     37 H11         4.8490   -0.1910   -0.3580 ha        1 F59      0.081000
     38 H10         2.4430   -0.2720   -0.3350 ha        1 F59      0.077500
     39 HN2         0.4460    0.0400   -0.3730 hn        1 F59      0.319500
     40 HN1        -1.7790    0.1150   -1.5800 hn        1 F59      0.299500
     41 H1         -3.9100   -0.1220    0.1860 h2        1 F59      0.110700
     42 H5         -5.8450   -1.6160   -0.6350 h1        1 F59      0.078700
     43 H6         -6.6180   -2.8860   -2.4570 h1        1 F59      0.060700
     44 H6A        -5.2230   -2.7320   -3.1760 h1        1 F59      0.060700
     45 HO6        -5.3440   -4.7180   -2.0600 ho        1 F59      0.414000
     46 H4         -5.7590   -0.3330   -3.1620 h1        1 F59      0.061700
     47 HO4        -7.8080   -0.1190   -2.9690 ho        1 F59      0.407000
     48 H3         -6.1010    1.0360   -0.7900 h1        1 F59      0.070700
     49 HO3        -7.0390    2.2410   -2.3100 ho        1 F59      0.412000
     50 H2         -3.7990    1.1790   -2.3890 h1        1 F59      0.057700
     51 HO2        -3.8850    2.9310   -1.2740 ho        1 F59      0.420000
@<TRIPOS>BOND
     1    1    6 3   
     2    1   30 1   
     3    2    3 3   
     4    2   31 1   
     5    3   32 1   
     6    4    5 3   
     7    4   33 1   
     8    5   34 1   
     9    7   10 3   
    10    8    9 3   
    11    8   35 1   
    12    9   36 1   
    13   10   37 1   
    14   11   12 3   
    15   11   38 1   
    16   12   13 1   
    17   13   14 2   
    18   13   15 1   
    19   15   16 1   
    20   15   39 1   
    21   16   17 2   
    22   16   18 1   
    23   18   19 1   
    24   18   40 1   
    25   19   20 1   
    26   19   28 1   
    27   19   41 1   
    28   20   21 1   
    29   21   22 1   
    30   21   24 1   
    31   21   42 1   
    32   22   23 1   
    33   22   43 1   
    34   22   44 1   
    35   23   45 1   
    36   24   25 1   
    37   24   26 1   
    38   24   46 1   
    39   25   47 1   
    40   26   27 1   
    41   26   28 1   
    42   26   48 1   
    43   27   49 1   
    44   28   29 1   
    45   28   50 1   
    46   29   51 1   
@<TRIPOS>SUBSTRUCTURE
     1 F59         1 TEMP              0 ****  ****    0 ROOT
