@<TRIPOS>MOLECULE
F59
   51    53     1     0     0
SMALL
bcc


@<TRIPOS>ATOM
      1 C16        -6.7460   -0.6360   -1.6910 ca        1 F59     -0.114000
      2 C17        -8.0440   -0.6870   -2.1950 ca        1 F59     -0.130500
      3 C18        -9.0980   -0.1200   -1.4770 ca        1 F59     -0.121000
      4 C19        -8.8490    0.5010   -0.2540 ca        1 F59     -0.130500
      5 C20        -7.5520    0.5590    0.2520 ca        1 F59     -0.114000
      6 C15        -6.4890   -0.0110   -0.4630 cp        1 F59     -0.051000
      7 C12        -5.1270    0.0460    0.0670 cp        1 F59     -0.007000
      8 C13        -4.6560    1.2090    0.6930 ca        1 F59     -0.127500
      9 C14        -3.3600    1.2630    1.1990 ca        1 F59     -0.091000
     10 C11        -4.2770   -1.0650   -0.0390 ca        1 F59     -0.127500
     11 C10        -2.9790   -1.0120    0.4620 ca        1 F59     -0.091000
     12 C9         -2.5150    0.1540    1.0770 ca        1 F59     -0.152600
     13 C8         -1.1410    0.2490    1.6520 c         1 F59      0.684700
     14 O8         -0.9230    0.7520    2.7600 o         1 F59     -0.513100
     15 N2         -0.1160   -0.2490    0.8330 n         1 F59     -0.608500
     16 C7          1.2510   -0.2490    1.1930 c         1 F59      0.753100
     17 O7          1.6480    0.2480    2.2630 o         1 F59     -0.553100
     18 N1          2.1610   -0.9250    0.3270 n         1 F59     -0.527900
     19 C1          3.5490   -0.5120    0.3880 c3        1 F59      0.241500
     20 O5          3.7710    0.3580   -0.7410 os        1 F59     -0.447600
     21 C5          5.0780    0.9340   -0.7440 c3        1 F59      0.151100
     22 C6          5.1180    1.9010   -1.9300 c3        1 F59      0.135400
     23 O6          4.6140    3.1420   -1.4660 oh        1 F59     -0.594800
     24 C4          6.1180   -0.1860   -0.9180 c3        1 F59      0.117100
     25 O4          7.4000    0.4150   -0.8790 oh        1 F59     -0.594800
     26 C3          5.9620   -1.2040    0.2230 c3        1 F59      0.108100
     27 O3          6.8640   -2.2600   -0.0570 oh        1 F59     -0.608800
     28 C2          4.5160   -1.7240    0.2760 c3        1 F59      0.091100
     29 O2          4.4550   -2.5510    1.4230 oh        1 F59     -0.601800
     30 H16        -5.9180   -1.0810   -2.2620 ha        1 F59      0.136000
     31 H17        -8.2370   -1.1760   -3.1610 ha        1 F59      0.135000
     32 H18       -10.1220   -0.1630   -1.8760 ha        1 F59      0.135000
     33 H19        -9.6780    0.9470    0.3160 ha        1 F59      0.135000
     34 H20        -7.3610    1.0440    1.2210 ha        1 F59      0.136000
     35 H13        -5.3150    2.0870    0.7840 ha        1 F59      0.143500
     36 H14        -2.9950    2.1710    1.7050 ha        1 F59      0.146000
     37 H11        -4.6440   -1.9880   -0.5130 ha        1 F59      0.143500
     38 H10        -2.3360   -1.9020    0.3890 ha        1 F59      0.146000
     39 HN2        -0.3840   -0.6310   -0.0450 hn        1 F59      0.318500
     40 HN1         1.8490   -1.0760   -0.6110 hn        1 F59      0.292500
     41 H1          3.7530    0.0440    1.3530 h2        1 F59      0.109700
     42 H5          5.2570    1.4930    0.2160 h1        1 F59      0.085700
     43 H6          6.1830    2.0170   -2.2680 h1        1 F59      0.045700
     44 H6A         4.4850    1.5120   -2.7720 h1        1 F59      0.045700
     45 HO6         4.6170    3.7390   -2.2230 ho        1 F59      0.403000
     46 H4          5.9730   -0.7050   -1.9070 h1        1 F59      0.058700
     47 HO4         8.0400   -0.3100   -0.8500 ho        1 F59      0.426000
     48 H3          6.2310   -0.7290    1.2080 h1        1 F59      0.069700
     49 HO3         6.7310   -2.9260    0.6320 ho        1 F59      0.429000
     50 H2          4.2920   -2.3280   -0.6460 h1        1 F59      0.058700
     51 HO2         3.5330   -2.8090    1.5510 ho        1 F59      0.426000
@<TRIPOS>BOND
     1    1    2 ar  
     2    1    6 ar  
     3    1   30 1   
     4    2    3 ar  
     5    2   31 1   
     6    3    4 ar  
     7    3   32 1   
     8    4    5 ar  
     9    4   33 1   
    10    5    6 ar  
    11    5   34 1   
    12    6    7 1   
    13    7    8 ar  
    14    7   10 ar  
    15    8    9 ar  
    16    8   35 1   
    17    9   12 ar  
    18    9   36 1   
    19   10   11 ar  
    20   10   37 1   
    21   11   12 ar  
    22   11   38 1   
    23   12   13 1   
    24   13   14 2   
    25   13   15 1   
    26   15   16 1   
    27   15   39 1   
    28   16   17 2   
    29   16   18 1   
    30   18   19 1   
    31   18   40 1   
    32   19   20 1   
    33   19   28 1   
    34   19   41 1   
    35   20   21 1   
    36   21   22 1   
    37   21   24 1   
    38   21   42 1   
    39   22   23 1   
    40   22   43 1   
    41   22   44 1   
    42   23   45 1   
    43   24   25 1   
    44   24   26 1   
    45   24   46 1   
    46   25   47 1   
    47   26   27 1   
    48   26   28 1   
    49   26   48 1   
    50   27   49 1   
    51   28   29 1   
    52   28   50 1   
    53   29   51 1   
@<TRIPOS>SUBSTRUCTURE
     1 F59         1 TEMP              0 ****  ****    0 ROOT
