@<TRIPOS>MOLECULE
F5B
   12    12     1     0     0
SMALL
bcc


@<TRIPOS>ATOM
      1 F6         -2.3830   -1.6790    0.0010 f         1 F5B     -0.107900
      2 C6         -1.2140   -1.0030    0.0000 ca        1 F5B      0.133900
      3 C1         -1.2270    0.4160   -0.0000 ca        1 F5B      0.066900
      4 F1         -2.3960    1.0890   -0.0000 f         1 F5B     -0.099900
      5 C5         -0.0000   -1.7030    0.0010 ca        1 F5B     -0.179000
      6 C4          1.2140   -1.0030    0.0000 ca        1 F5B      0.133900
      7 F4          2.3830   -1.6790    0.0000 f         1 F5B     -0.107900
      8 C3          1.2270    0.4160   -0.0000 ca        1 F5B      0.066900
      9 F3          2.3960    1.0890   -0.0010 f         1 F5B     -0.099900
     10 C2          0.0000    1.1240   -0.0000 ca        1 F5B      0.107900
     11 F2          0.0000    2.4730   -0.0010 f         1 F5B     -0.096900
     12 H5         -0.0000   -2.8040    0.0010 ha        1 F5B      0.182000
@<TRIPOS>BOND
     1    1    2 1   
     2    2    3 ar  
     3    2    5 ar  
     4    3    4 1   
     5    3   10 ar  
     6    5    6 ar  
     7    5   12 1   
     8    6    7 1   
     9    6    8 ar  
    10    8    9 1   
    11    8   10 ar  
    12   10   11 1   
@<TRIPOS>SUBSTRUCTURE
     1 F5B         1 TEMP              0 ****  ****    0 ROOT
