@<TRIPOS>MOLECULE
F5B
   12    10     1     0     0
SMALL
bcc


@<TRIPOS>ATOM
      1 F6         -2.7400   -0.0000   -0.0260 f         1 F5B     -0.135500
      2 C6         -1.4010   -0.0000   -0.0260 ce        1 F5B      0.098400
      3 C1         -0.7080   -0.0000    1.1740 c1        1 F5B      0.158200
      4 F1         -1.3780    0.0020    2.3340 f         1 F5B     -0.069000
      5 C5         -0.7080   -0.0000   -1.2270 ce        1 F5B     -0.242100
      6 C4          0.6780   -0.0000   -1.2270 c1        1 F5B      0.225200
      7 F4          1.3470    0.0030   -2.3860 f         1 F5B     -0.069000
      8 C3          1.3710   -0.0000   -0.0260 ce        1 F5B      0.031400
      9 F3          2.7100   -0.0040   -0.0260 f         1 F5B     -0.127500
     10 C2          0.6780   -0.0000    1.1740 ce        1 F5B      0.072400
     11 F2          1.3470    0.0020    2.3340 f         1 F5B     -0.124500
     12 H5         -1.1960   -0.0010   -2.0720 ha        1 F5B      0.182000
@<TRIPOS>BOND
     1    1    2 1   
     2    2    3 2   
     3    2    5 1   
     4    3   10 2   
     5    5    6 2   
     6    5   12 1   
     7    6    8 2   
     8    8    9 1   
     9    8   10 1   
    10   10   11 1   
@<TRIPOS>SUBSTRUCTURE
     1 F5B         1 TEMP              0 ****  ****    0 ROOT
