@<TRIPOS>MOLECULE
F5H
   40    40     1     0     0
SMALL
bcc


@<TRIPOS>ATOM
      1 P           3.7260   -2.6300    0.0450 p3        1 F5H      2.516000
      2 N1         -1.8330    0.1550   -0.0780 n         1 F5H     -0.229000
      3 C2         -1.7360   -0.9930    0.8200 c2        1 F5H      0.390000
      4 O2         -0.6540   -1.3540    1.2250 o         1 F5H     -0.339000
      5 N3         -2.9500   -1.7110    1.2320 n         1 F5H     -0.372000
      6 C4         -4.2280   -1.2510    0.8080 c2        1 F5H      0.364000
      7 O4         -5.2340   -1.7840    1.2260 o         1 F5H     -0.391000
      8 C5         -4.3300   -0.0750   -0.0690 c2        1 F5H     -0.295000
      9 C6         -3.1090    0.6420   -0.4760 c2        1 F5H      0.079000
     10 C7         -5.6770    0.3060   -0.6790 c3        1 F5H     -0.135000
     11 C1'         0.2030   -0.1390   -1.3940 c3        1 F5H     -0.025000
     12 O1P         5.2070   -2.4840   -0.2020 o         1 F5H     -1.243333
     13 C2'        -0.5260    0.8340   -0.6290 c3        1 F5H     -0.049000
     14 O2P         3.4630   -2.6390    1.5300 o         1 F5H     -1.243333
     15 C3'         0.1820    1.3660    0.4490 c3        1 F5H      0.034000
     16 F3'        -0.5860    2.4440    1.0140 f         1 F5H     -0.187000
     17 O3P         3.2370   -3.9290   -0.5630 o         1 F5H     -1.243333
     18 C4'         1.5270    1.8870    0.0790 c3        1 F5H     -0.002000
     19 O4'         1.3570    3.0030   -0.7580 oh        1 F5H     -0.374000
     20 C5'         2.4530    0.8290   -0.6710 c3        1 F5H     -0.121000
     21 O5'         1.5240    0.3170   -1.8250 os        1 F5H     -0.244000
     22 C6'         2.8010   -0.1830    0.1570 c3        1 F5H      0.150000
     23 O6'         2.9590   -1.4150   -0.6180 o         1 F5H     -0.712000
     24 C7'         4.1620    0.1670    0.8670 c3        1 F5H     -0.305000
     25 HN3        -2.8870   -2.4280    1.7930 hn        1 F5H      0.254000
     26 H6         -3.1750    1.4500   -1.0100 h4        1 F5H      0.168000
     27 H7         -6.3500    0.3950    0.0380 hc        1 F5H      0.075667
     28 H7A        -5.5910    1.1580   -1.1540 hc        1 F5H      0.075667
     29 H7B        -5.9590   -0.3890   -1.3060 hc        1 F5H      0.075667
     30 H1'        -0.3200   -0.3680   -2.1850 h1        1 F5H      0.095000
     31 H1'A        0.3140   -0.9430   -0.8500 h1        1 F5H      0.095000
     32 H2'        -0.7830    1.5680   -1.2240 h1        1 F5H      0.130000
     33 H3'         0.2910    0.6680    1.1280 h1        1 F5H      0.133000
     34 H4'         1.9830    2.1750    0.8930 h1        1 F5H      0.123000
     35 HO4'        1.8550    3.6820   -0.4540 ho        1 F5H      0.224000
     36 H5'         3.2430    1.2640   -1.0360 h1        1 F5H      0.247000
     37 H6'         2.1040   -0.3080    0.8310 h1        1 F5H      0.002000
     38 H7'         4.2500   -0.3690    1.6920 hc        1 F5H      0.093000
     39 H7'A        4.1760    1.1170    1.0920 hc        1 F5H      0.093000
     40 H7'B        4.9080   -0.0370    0.2620 hc        1 F5H      0.093000
@<TRIPOS>BOND
     1    1   12 1   
     2    1   14 1   
     3    1   17 1   
     4    2    3 1   
     5    2    9 1   
     6    2   13 1   
     7    3    4 1   
     8    3    5 1   
     9    5    6 1   
    10    5   25 1   
    11    6    7 1   
    12    6    8 1   
    13    8    9 1   
    14    8   10 1   
    15    9   26 1   
    16   10   27 1   
    17   10   28 1   
    18   10   29 1   
    19   11   13 1   
    20   11   21 1   
    21   11   30 1   
    22   11   31 1   
    23   13   15 1   
    24   13   32 1   
    25   15   16 1   
    26   15   18 1   
    27   15   33 1   
    28   18   19 1   
    29   18   20 1   
    30   18   34 1   
    31   19   35 1   
    32   20   21 1   
    33   20   22 1   
    34   20   36 1   
    35   22   23 1   
    36   22   24 1   
    37   22   37 1   
    38   24   38 1   
    39   24   39 1   
    40   24   40 1   
@<TRIPOS>SUBSTRUCTURE
     1 F5H         1 TEMP              0 ****  ****    0 ROOT
