@<TRIPOS>MOLECULE
F5H
   40    41     1     0     0
SMALL
bcc


@<TRIPOS>ATOM
      1 P           2.7860   -1.3660    0.0900 p5        1 F5H      1.329900
      2 N1         -2.2330    0.4580   -0.0940 n         1 F5H     -0.346000
      3 C2         -3.5910    0.2460    0.2250 c         1 F5H      0.791500
      4 O2         -4.3620    1.1760    0.5820 o         1 F5H     -0.714500
      5 N3         -4.1100   -1.0520    0.1210 n         1 F5H     -0.595500
      6 C4         -3.3370   -2.1620   -0.2840 c         1 F5H      0.713700
      7 O4         -3.9270   -3.2590   -0.3490 o         1 F5H     -0.671500
      8 C5         -1.9310   -1.8900   -0.5910 cc        1 F5H     -0.247400
      9 C6         -1.4400   -0.6170   -0.4920 cd        1 F5H      0.054600
     10 C7         -1.0660   -3.0230   -0.9830 c3        1 F5H     -0.074900
     11 C1'        -1.1140    2.3510   -1.3100 c3        1 F5H      0.122400
     12 O1P         1.9150   -2.5870    0.1500 o         1 F5H     -0.922833
     13 C2'        -1.7160    1.8140    0.0010 c3        1 F5H      0.040700
     14 O2P         2.6870   -0.4310    1.2760 o         1 F5H     -0.922833
     15 C3'        -0.6560    2.0150    1.1330 c3        1 F5H      0.152600
     16 F3'        -0.6630    3.3600    1.4820 f         1 F5H     -0.256300
     17 O3P         4.1370   -1.4580   -0.5460 o         1 F5H     -0.922833
     18 C4'         0.7430    1.5210    0.7130 c3        1 F5H      0.093100
     19 O4'         1.6720    2.1260    1.5920 oh        1 F5H     -0.654800
     20 C5'         1.1430    1.8570   -0.7320 c3        1 F5H      0.075100
     21 O5'         0.0740    1.6890   -1.6720 os        1 F5H     -0.399600
     22 C6'         2.2710    0.8720   -1.1770 c3        1 F5H      0.239100
     23 O6'         1.8520   -0.4280   -1.0470 os        1 F5H     -0.566200
     24 C7'         2.6720    1.1860   -2.6140 c3        1 F5H     -0.104100
     25 HN3        -5.0650   -1.1760    0.3660 hn        1 F5H      0.322500
     26 H6         -0.3660   -0.3850   -0.7450 h4        1 F5H      0.272000
     27 H7         -1.4920   -3.9830   -0.6020 hc        1 F5H      0.076033
     28 H7A        -0.9970   -3.0840   -2.0970 hc        1 F5H      0.076033
     29 H7B        -0.0170   -2.8970   -0.5690 hc        1 F5H      0.076033
     30 H1'        -1.8080    2.1920   -2.1770 h1        1 F5H      0.037200
     31 H1'A       -0.9300    3.4500   -1.1600 h1        1 F5H      0.037200
     32 H2'        -2.5930    2.4860    0.2600 h1        1 F5H      0.084700
     33 H3'        -0.9640    1.4340    2.0500 h1        1 F5H      0.057700
     34 H4'         0.8010    0.3870    0.8360 h1        1 F5H      0.148700
     35 HO4'        2.3410    1.4340    1.7820 ho        1 F5H      0.486000
     36 H5'         1.5010    2.9200   -0.7950 h1        1 F5H      0.016700
     37 H6'         3.1420    1.0810   -0.4830 h1        1 F5H      0.049700
     38 H7'         2.9840    2.2530   -2.7080 hc        1 F5H      0.016033
     39 H7'A        3.5220    0.5240   -2.9050 hc        1 F5H      0.016033
     40 H7'B        1.8150    0.9970   -3.3020 hc        1 F5H      0.016033
@<TRIPOS>BOND
     1    1   12 1   
     2    1   14 1   
     3    1   17 1   
     4    1   23 1   
     5    2    3 1   
     6    2    9 1   
     7    2   13 1   
     8    3    4 2   
     9    3    5 1   
    10    5    6 1   
    11    5   25 1   
    12    6    7 2   
    13    6    8 1   
    14    8    9 2   
    15    8   10 1   
    16    9   26 1   
    17   10   27 1   
    18   10   28 1   
    19   10   29 1   
    20   11   13 1   
    21   11   21 1   
    22   11   30 1   
    23   11   31 1   
    24   13   15 1   
    25   13   32 1   
    26   15   16 1   
    27   15   18 1   
    28   15   33 1   
    29   18   19 1   
    30   18   20 1   
    31   18   34 1   
    32   19   35 1   
    33   20   21 1   
    34   20   22 1   
    35   20   36 1   
    36   22   23 1   
    37   22   24 1   
    38   22   37 1   
    39   24   38 1   
    40   24   39 1   
    41   24   40 1   
@<TRIPOS>SUBSTRUCTURE
     1 F5H         1 TEMP              0 ****  ****    0 ROOT
