@<TRIPOS>MOLECULE
F5M
   44    48     1     0     0
SMALL
bcc


@<TRIPOS>ATOM
      1 C1          3.6760   -3.4130    0.5850 ca        1 F5M      0.163100
      2 O1          4.4960   -4.5000    0.7860 oh        1 F5M     -0.504100
      3 C2          4.2850   -2.2510    0.1040 ca        1 F5M     -0.273300
      4 O2          4.1470   -0.0160   -0.5770 os        1 F5M     -0.395800
      5 C3          3.4700   -1.1300   -0.1160 ca        1 F5M      0.390000
      6 O3          4.0800    4.4980   -1.8700 o         1 F5M     -0.598100
      7 C4          3.4140    1.1480   -0.7720 cc        1 F5M      0.342700
      8 O4          0.1470    0.5740    3.0370 o         1 F5M     -0.804300
      9 C5          4.1270    2.2280   -1.1940 cd        1 F5M     -0.331200
     10 O5         -0.3100   -1.6120    2.8290 o         1 F5M     -0.804300
     11 C6          3.4600    3.4980   -1.4600 c         1 F5M      0.581500
     12 C7          2.0110    3.5260   -1.2190 cd        1 F5M     -0.267200
     13 C8          1.3300    2.4390   -0.8080 cc        1 F5M     -0.021200
     14 C9          1.9770    1.1650   -0.5720 cc        1 F5M     -0.234100
     15 C10         1.3040    0.0350   -0.1730 cd        1 F5M      0.169000
     16 C11         2.0770   -1.1550    0.1070 ca        1 F5M     -0.217300
     17 C12         1.5100   -2.3410    0.6150 ca        1 F5M      0.010000
     18 C13         2.2930   -3.4610    0.8450 ca        1 F5M     -0.242000
     19 C14        -0.1630    0.0010   -0.1380 ca        1 F5M     -0.090000
     20 C15        -0.8310    0.1810   -1.3630 ca        1 F5M     -0.111000
     21 C16        -2.2140    0.1660   -1.4430 ca        1 F5M     -0.169000
     22 C17        -2.9790   -0.0240   -0.2690 ca        1 F5M      0.045600
     23 C18        -2.3130   -0.1920    0.9570 ca        1 F5M     -0.125000
     24 C19        -0.9140   -0.1870    1.0280 ca        1 F5M     -0.067600
     25 C20        -0.2980   -0.4190    2.4130 c         1 F5M      0.909200
     26 NAB        -4.3920   -0.0480   -0.3410 n         1 F5M     -0.422600
     27 CAZ        -5.1530   -0.5160   -1.4480 c         1 F5M      0.690700
     28 CBA        -6.6140   -0.4190   -1.0490 cc        1 F5M     -0.183200
     29 CBB        -6.6890    0.0720    0.2010 cd        1 F5M     -0.183200
     30 CBC        -5.2820    0.3310    0.7090 c         1 F5M      0.690700
     31 OBJ        -4.9850    0.7910    1.8090 o         1 F5M     -0.547000
     32 OBK        -4.7270   -0.9170   -2.5320 o         1 F5M     -0.547000
     33 HO1         3.9670   -5.1910    1.2110 ho        1 F5M      0.419000
     34 H2          5.3650   -2.2080   -0.0820 ha        1 F5M      0.161000
     35 H5          5.2130    2.1780   -1.3440 ha        1 F5M      0.153000
     36 H7          1.5120    4.4920   -1.3830 ha        1 F5M      0.140000
     37 H8          0.2440    2.4810   -0.6160 ha        1 F5M      0.150000
     38 H12         0.4340   -2.3570    0.8850 ha        1 F5M      0.203000
     39 H13         1.8410   -4.3720    1.2600 ha        1 F5M      0.141000
     40 H15        -0.2430    0.3360   -2.2810 ha        1 F5M      0.129000
     41 H16        -2.7040    0.2840   -2.4210 ha        1 F5M      0.142000
     42 H18        -2.8760   -0.3270    1.8970 ha        1 F5M      0.166000
     43 HBA        -7.3970   -0.7260   -1.7410 ha        1 F5M      0.172000
     44 HBB        -7.5510    0.2850    0.8310 ha        1 F5M      0.172000
@<TRIPOS>BOND
     1    1    2 1   
     2    1    3 ar  
     3    1   18 ar  
     4    2   33 1   
     5    3    5 ar  
     6    3   34 1   
     7    4    5 1   
     8    4    7 1   
     9    5   16 ar  
    10    6   11 2   
    11    7    9 2   
    12    7   14 1   
    13    8   25 1   
    14    9   11 1   
    15    9   35 1   
    16   10   25 1   
    17   11   12 1   
    18   12   13 2   
    19   12   36 1   
    20   13   14 1   
    21   13   37 1   
    22   14   15 2   
    23   15   16 1   
    24   15   19 1   
    25   16   17 ar  
    26   17   18 ar  
    27   17   38 1   
    28   18   39 1   
    29   19   20 ar  
    30   19   24 ar  
    31   20   21 ar  
    32   20   40 1   
    33   21   22 ar  
    34   21   41 1   
    35   22   23 ar  
    36   22   26 1   
    37   23   24 ar  
    38   23   42 1   
    39   24   25 1   
    40   26   27 1   
    41   26   30 1   
    42   27   28 1   
    43   27   32 2   
    44   28   29 2   
    45   28   43 1   
    46   29   30 1   
    47   29   44 1   
    48   30   31 2   
@<TRIPOS>SUBSTRUCTURE
     1 F5M         1 TEMP              0 ****  ****    0 ROOT
