@<TRIPOS>MOLECULE
F5M
   44    48     1     0     0
SMALL
bcc


@<TRIPOS>ATOM
      1 C1          0.1620   -0.6430   -0.0450 ca        1 F5M      0.167100
      2 O1         -0.5290   -0.7820   -1.2260 oh        1 F5M     -0.500100
      3 C2          1.5080   -0.2700   -0.0160 ca        1 F5M     -0.333300
      4 O2          3.4600    0.2200    1.1810 os        1 F5M     -0.398800
      5 C3          2.1270   -0.1380    1.2380 ca        1 F5M      0.396000
      6 O3          7.4840    1.1470    3.4170 o         1 F5M     -0.598100
      7 C4          4.1470    0.3350    2.3840 cc        1 F5M      0.342700
      8 O4         -0.1080   -3.0140    4.1750 o         1 F5M     -0.803800
      9 C5          5.4650    0.6560    2.2800 cd        1 F5M     -0.331200
     10 O5          1.8770   -3.3950    5.1450 o         1 F5M     -0.803800
     11 C6          6.2800    0.8340    3.4770 c         1 F5M      0.581500
     12 C7          5.5940    0.6250    4.7590 cd        1 F5M     -0.267200
     13 C8          4.2850    0.3140    4.8320 cc        1 F5M     -0.020200
     14 C9          3.4610    0.1600    3.6510 cc        1 F5M     -0.235100
     15 C10         2.1210   -0.1410    3.6960 cd        1 F5M      0.167000
     16 C11         1.4250   -0.3430    2.4430 ca        1 F5M     -0.217300
     17 C12         0.0790   -0.7540    2.3650 ca        1 F5M      0.007000
     18 C13        -0.5560   -0.8940    1.1410 ca        1 F5M     -0.189000
     19 C14         1.3880   -0.1470    4.9670 ca        1 F5M     -0.091000
     20 C15         1.2860    1.0820    5.6450 ca        1 F5M     -0.110000
     21 C16         0.6240    1.1850    6.8580 ca        1 F5M     -0.170000
     22 C17         0.0490    0.0320    7.4400 ca        1 F5M      0.045600
     23 C18         0.1500   -1.1950    6.7630 ca        1 F5M     -0.126000
     24 C19         0.8140   -1.2900    5.5340 ca        1 F5M     -0.066600
     25 C20         0.8760   -2.6820    4.8910 c         1 F5M      0.910200
     26 NAB        -0.6120    0.1250    8.6890 n         1 F5M     -0.422600
     27 CAZ        -0.2720    1.0280    9.7340 c         1 F5M      0.690200
     28 CBA        -1.1780    0.7050   10.9070 cc        1 F5M     -0.182700
     29 CBB        -1.9850   -0.3140   10.5600 cd        1 F5M     -0.182700
     30 CBC        -1.6640   -0.7290    9.1360 c         1 F5M      0.690200
     31 OBJ        -2.2250   -1.6190    8.5000 o         1 F5M     -0.546500
     32 OBK         0.5800    1.9180    9.7060 o         1 F5M     -0.546500
     33 HO1         0.0970   -0.6580   -1.9530 ho        1 F5M      0.415000
     34 H2          2.0830   -0.0970   -0.9340 ha        1 F5M      0.145000
     35 H5          5.9510    0.7890    1.3050 ha        1 F5M      0.152000
     36 H7          6.2130    0.7270    5.6630 ha        1 F5M      0.141000
     37 H8          3.7870    0.1460    5.8030 ha        1 F5M      0.152000
     38 H12        -0.4570   -1.0260    3.2990 ha        1 F5M      0.206000
     39 H13        -1.6010   -1.2260    1.0820 ha        1 F5M      0.156000
     40 H15         1.7430    1.9820    5.2060 ha        1 F5M      0.128000
     41 H16         0.5730    2.1580    7.3690 ha        1 F5M      0.142000
     42 H18        -0.3050   -2.1120    7.1760 ha        1 F5M      0.165000
     43 HBA        -1.1030    1.2680   11.8360 ha        1 F5M      0.172000
     44 HBB        -2.7640   -0.8280   11.1220 ha        1 F5M      0.172000
@<TRIPOS>BOND
     1    1    2 1   
     2    1    3 ar  
     3    1   18 ar  
     4    2   33 1   
     5    3    5 ar  
     6    3   34 1   
     7    4    5 1   
     8    4    7 1   
     9    5   16 ar  
    10    6   11 2   
    11    7    9 2   
    12    7   14 1   
    13    8   25 1   
    14    9   11 1   
    15    9   35 1   
    16   10   25 1   
    17   11   12 1   
    18   12   13 2   
    19   12   36 1   
    20   13   14 1   
    21   13   37 1   
    22   14   15 2   
    23   15   16 1   
    24   15   19 1   
    25   16   17 ar  
    26   17   18 ar  
    27   17   38 1   
    28   18   39 1   
    29   19   20 ar  
    30   19   24 ar  
    31   20   21 ar  
    32   20   40 1   
    33   21   22 ar  
    34   21   41 1   
    35   22   23 ar  
    36   22   26 1   
    37   23   24 ar  
    38   23   42 1   
    39   24   25 1   
    40   26   27 1   
    41   26   30 1   
    42   27   28 1   
    43   27   32 2   
    44   28   29 2   
    45   28   43 1   
    46   29   30 1   
    47   29   44 1   
    48   30   31 2   
@<TRIPOS>SUBSTRUCTURE
     1 F5M         1 TEMP              0 ****  ****    0 ROOT
