@<TRIPOS>MOLECULE
F5M
   44    48     1     0     0
SMALL
bcc


@<TRIPOS>ATOM
      1 C1         -0.0310   -0.0580    0.0360 ca        1 F5M      0.158100
      2 O1         -0.7860   -0.0300   -1.1140 oh        1 F5M     -0.501100
      3 C2          1.3570    0.0830    0.0160 ca        1 F5M     -0.319300
      4 O2          3.4100    0.1990    1.1470 os        1 F5M     -0.399800
      5 C3          2.0420    0.0510    1.2430 ca        1 F5M      0.395000
      6 O3          7.5780    0.5220    3.2800 o         1 F5M     -0.593100
      7 C4          4.1490    0.1170    2.3250 cc        1 F5M      0.325700
      8 O4          1.4850   -3.4010    4.7270 o         1 F5M     -0.804300
      9 C5          5.4860    0.3200    2.1920 cd        1 F5M     -0.317200
     10 O5          3.1540   -2.7850    6.0960 o         1 F5M     -0.804300
     11 C6          6.3630    0.2670    3.3630 c         1 F5M      0.579500
     12 C7          5.7220   -0.1150    4.6270 cd        1 F5M     -0.265200
     13 C8          4.3930   -0.3020    4.7350 cc        1 F5M     -0.014200
     14 C9          3.4980   -0.1210    3.6060 cc        1 F5M     -0.192100
     15 C10         2.1340   -0.1580    3.6970 cd        1 F5M      0.132000
     16 C11         1.3640   -0.1050    2.4670 ca        1 F5M     -0.201300
     17 C12        -0.0350   -0.2570    2.4390 ca        1 F5M     -0.020000
     18 C13        -0.7350   -0.2300    1.2450 ca        1 F5M     -0.192000
     19 C14         1.4030   -0.1650    4.9690 ca        1 F5M     -0.085000
     20 C15         0.7390    1.0190    5.3340 ca        1 F5M     -0.114000
     21 C16         0.0270    1.1090    6.5210 ca        1 F5M     -0.170000
     22 C17        -0.0410   -0.0100    7.3810 ca        1 F5M      0.041600
     23 C18         0.6160   -1.1960    7.0110 ca        1 F5M     -0.124000
     24 C19         1.3390   -1.2760    5.8160 ca        1 F5M     -0.067600
     25 C20         2.0520   -2.6000    5.5120 c         1 F5M      0.911200
     26 NAB        -0.7590    0.0770    8.5990 n         1 F5M     -0.421600
     27 CAZ        -0.8940    1.2500    9.3920 c         1 F5M      0.690700
     28 CBA        -1.6420    0.8470   10.6490 cc        1 F5M     -0.183200
     29 CBB        -1.9210   -0.4680   10.5830 cd        1 F5M     -0.183200
     30 CBC        -1.3730   -1.0170    9.2780 c         1 F5M      0.690700
     31 OBJ        -1.4690   -2.1790    8.8890 o         1 F5M     -0.547500
     32 OBK        -0.5020    2.3860    9.1210 o         1 F5M     -0.547500
     33 HO1        -0.1790    0.0300   -1.8660 ho        1 F5M      0.417000
     34 H2          1.9160    0.2040   -0.9210 ha        1 F5M      0.148000
     35 H5          5.9470    0.5210    1.2170 ha        1 F5M      0.150000
     36 H7          6.3930   -0.2710    5.4850 ha        1 F5M      0.147000
     37 H8          3.9290   -0.6680    5.6740 ha        1 F5M      0.194000
     38 H12        -0.5690   -0.4160    3.3920 ha        1 F5M      0.166000
     39 H13        -1.8260   -0.3540    1.2200 ha        1 F5M      0.149000
     40 H15         0.7890    1.8970    4.6720 ha        1 F5M      0.125000
     41 H16        -0.4610    2.0570    6.7920 ha        1 F5M      0.140000
     42 H18         0.5730   -2.0950    7.6500 ha        1 F5M      0.165000
     43 HBA        -1.8660    1.5830   11.4200 ha        1 F5M      0.172000
     44 HBB        -2.4380   -1.1210   11.2830 ha        1 F5M      0.172000
@<TRIPOS>BOND
     1    1    2 1   
     2    1    3 ar  
     3    1   18 ar  
     4    2   33 1   
     5    3    5 ar  
     6    3   34 1   
     7    4    5 1   
     8    4    7 1   
     9    5   16 ar  
    10    6   11 2   
    11    7    9 2   
    12    7   14 1   
    13    8   25 1   
    14    9   11 1   
    15    9   35 1   
    16   10   25 1   
    17   11   12 1   
    18   12   13 2   
    19   12   36 1   
    20   13   14 1   
    21   13   37 1   
    22   14   15 2   
    23   15   16 1   
    24   15   19 1   
    25   16   17 ar  
    26   17   18 ar  
    27   17   38 1   
    28   18   39 1   
    29   19   20 ar  
    30   19   24 ar  
    31   20   21 ar  
    32   20   40 1   
    33   21   22 ar  
    34   21   41 1   
    35   22   23 ar  
    36   22   26 1   
    37   23   24 ar  
    38   23   42 1   
    39   24   25 1   
    40   26   27 1   
    41   26   30 1   
    42   27   28 1   
    43   27   32 2   
    44   28   29 2   
    45   28   43 1   
    46   29   30 1   
    47   29   44 1   
    48   30   31 2   
@<TRIPOS>SUBSTRUCTURE
     1 F5M         1 TEMP              0 ****  ****    0 ROOT
