@<TRIPOS>MOLECULE
F5M
   44    40     1     0     0
SMALL
bcc


@<TRIPOS>ATOM
      1 C1         -1.5910   -0.5360   -4.9520 c1        1 F5M      0.122000
      2 O1         -2.3770   -0.7870   -6.0750 o         1 F5M     -0.254000
      3 C2         -0.2070   -0.5280   -4.9680 c1        1 F5M     -0.268000
      4 O2          2.0120   -0.3370   -3.7780 os        1 F5M     -0.140000
      5 C3          0.5070   -0.4270   -3.7600 c1        1 F5M      0.136000
      6 O3          6.3130   -0.1600   -1.2820 o         1 F5M     -0.359000
      7 C4          2.7630   -0.3840   -2.5260 c2        1 F5M      0.148000
      8 O4         -0.7550   -3.0700   -0.3880 o         1 F5M     -0.538500
      9 C5          4.3030   -0.3180   -2.5520 c1        1 F5M     -0.312000
     10 O5          0.7960   -3.2040    1.1680 o         1 F5M     -0.538500
     11 C6          5.0800   -0.1960   -1.2580 c1        1 F5M      0.304000
     12 C7          4.3470   -0.1050    0.0610 c2        1 F5M     -0.248000
     13 C8          2.8460   -0.1480    0.0900 c1        1 F5M     -0.032000
     14 C9          2.0460   -0.3400   -1.2370 c1        1 F5M     -0.158000
     15 C10         0.5800   -0.2830   -1.2220 c1        1 F5M      0.167000
     16 C11        -0.1910   -0.3350   -2.5290 c1        1 F5M     -0.152000
     17 C12        -1.5710   -0.3440   -2.5180 c2        1 F5M      0.007000
     18 C13        -2.2850   -0.4440   -3.7230 c2        1 F5M     -0.189000
     19 C14        -0.1710   -0.0470    0.1150 c2        1 F5M     -0.091000
     20 C15        -0.4640    1.2660    0.5290 c2        1 F5M     -0.110000
     21 C16        -1.0110    1.4940    1.8020 c1        1 F5M     -0.170000
     22 C17        -1.2630    0.4200    2.6550 c1        1 F5M      0.053000
     23 C18        -0.9710   -0.8860    2.2420 c1        1 F5M     -0.126000
     24 C19        -0.4230   -1.1160    0.9670 c1        1 F5M     -0.046000
     25 C20        -0.0940   -2.5280    0.5320 c2        1 F5M      0.359000
     26 NAB        -1.6980    0.6590    3.9760 n         1 F5M     -0.296000
     27 CAZ        -3.1990    0.8230    4.4440 c2        1 F5M      0.326000
     28 CBA        -3.1120    1.5650    5.6660 c2        1 F5M     -0.160000
     29 CBB        -1.8730    1.8660    6.0130 c1        1 F5M     -0.167000
     30 CBC        -0.8790    1.3790    5.0930 c1        1 F5M      0.331000
     31 OBJ         0.3040    1.5110    5.1620 o         1 F5M     -0.286000
     32 OBK        -4.2280    0.4050    3.8780 o         1 F5M     -0.256000
     33 HO1        -2.3500   -0.0760   -6.6240 ho        1 F5M      0.214000
     34 H2          0.2810   -0.4820   -5.8420 ha        1 F5M      0.145000
     35 H5          4.7700   -0.3990   -3.3830 ha        1 F5M      0.152000
     36 H7          4.8510   -0.0750    0.8980 ha        1 F5M      0.141000
     37 H8          2.3580   -0.0890    0.9710 ha        1 F5M      0.152000
     38 H12        -2.0600   -0.2790   -1.6570 ha        1 F5M      0.206000
     39 H13        -3.2450   -0.4830   -3.7110 ha        1 F5M      0.156000
     40 H15        -0.2770    2.0580   -0.0980 ha        1 F5M      0.128000
     41 H16        -1.2210    2.4370    2.1010 ha        1 F5M      0.142000
     42 H18        -1.1410   -1.6190    2.8240 ha        1 F5M      0.165000
     43 HBA        -3.8560    2.1530    5.9380 ha        1 F5M      0.173000
     44 HBB        -1.6460    1.9900    6.9580 ha        1 F5M      0.171000
@<TRIPOS>BOND
     1    1    3 1   
     2    1   18 1   
     3    2   33 1   
     4    3   34 1   
     5    4    5 1   
     6    4    7 1   
     7    5   16 1   
     8    6   11 1   
     9    7    9 1   
    10    7   14 1   
    11    8   25 1   
    12    9   35 1   
    13   10   25 1   
    14   11   12 1   
    15   12   13 1   
    16   12   36 1   
    17   13   37 1   
    18   14   15 1   
    19   15   19 1   
    20   16   17 1   
    21   17   18 1   
    22   17   38 1   
    23   18   39 1   
    24   19   20 1   
    25   19   24 1   
    26   20   21 1   
    27   20   40 1   
    28   21   41 1   
    29   22   23 1   
    30   22   26 1   
    31   23   42 1   
    32   24   25 1   
    33   26   27 1   
    34   26   30 1   
    35   27   28 1   
    36   27   32 1   
    37   28   29 1   
    38   28   43 1   
    39   29   44 1   
    40   30   31 1   
@<TRIPOS>SUBSTRUCTURE
     1 F5M         1 TEMP              0 ****  ****    0 ROOT
