@<TRIPOS>MOLECULE
F5N
   32    34     1     0     0
SMALL
bcc


@<TRIPOS>ATOM
      1 O1         -1.5360    1.7500   -2.2190 o         1 F5N     -0.599100
      2 C2         -1.0430    1.6560   -1.0790 c         1 F5N      0.671100
      3 C3          0.2910    2.3330   -0.7750 c3        1 F5N     -0.081200
      4 C4          1.3350    1.3640   -0.3810 cc        1 F5N      0.047400
      5 C5          2.4080    0.9500   -1.2100 cd        1 F5N     -0.205100
      6 N6          3.1570    0.0570   -0.4520 na        1 F5N      0.017700
      7 C7          4.3000   -0.6610   -0.7260 cc        1 F5N     -0.071300
      8 C8          4.8350   -1.4880    0.2340 cd        1 F5N     -0.163000
      9 C9          4.2180   -1.6130    1.5140 cd        1 F5N     -0.119000
     10 C10         3.0820   -0.9140    1.8170 cc        1 F5N     -0.092000
     11 C11         2.5100   -0.0460    0.8280 cd        1 F5N     -0.026300
     12 N12         1.4030    0.7500    0.8670 nc        1 F5N     -0.300600
     13 N13        -1.6550    1.0000   -0.0250 n         1 F5N     -0.460100
     14 C14        -2.8540    0.2700   -0.0610 ca        1 F5N      0.070600
     15 C15        -3.7370    0.2840   -1.1620 ca        1 F5N     -0.169500
     16 C16        -4.9200   -0.4490   -1.1170 ca        1 F5N     -0.106500
     17 C17        -5.2550   -1.2020    0.0060 ca        1 F5N     -0.160000
     18 C18        -4.3910   -1.2220    1.0990 ca        1 F5N     -0.106500
     19 C19        -3.2030   -0.5010    1.0770 ca        1 F5N     -0.169500
     20 H3          0.6130    2.8690   -1.7090 hc        1 F5N      0.086700
     21 H3A         0.1400    3.0990    0.0330 hc        1 F5N      0.086700
     22 H5          2.6620    1.2170   -2.2330 h4        1 F5N      0.190000
     23 H7          4.7360   -0.5300   -1.7300 h4        1 F5N      0.166000
     24 H8          5.7460   -2.0610    0.0130 ha        1 F5N      0.153000
     25 H9          4.6780   -2.2850    2.2540 ha        1 F5N      0.146000
     26 H10         2.5790   -0.9850    2.7920 ha        1 F5N      0.164000
     27 HN13       -1.1440    0.9390    0.8300 hn        1 F5N      0.335500
     28 H15        -3.5000    0.8690   -2.0650 ha        1 F5N      0.151000
     29 H16        -5.5960   -0.4270   -1.9850 ha        1 F5N      0.130500
     30 H17        -6.1920   -1.7760    0.0310 ha        1 F5N      0.130000
     31 H18        -4.6460   -1.8150    1.9900 ha        1 F5N      0.130500
     32 H19        -2.5370   -0.5370    1.9520 ha        1 F5N      0.151000
@<TRIPOS>BOND
     1    1    2 2   
     2    2    3 1   
     3    2   13 1   
     4    3    4 1   
     5    3   20 1   
     6    3   21 1   
     7    4    5 2   
     8    4   12 1   
     9    5    6 1   
    10    5   22 1   
    11    6    7 1   
    12    6   11 1   
    13    7    8 2   
    14    7   23 1   
    15    8    9 1   
    16    8   24 1   
    17    9   10 2   
    18    9   25 1   
    19   10   11 1   
    20   10   26 1   
    21   11   12 2   
    22   13   14 1   
    23   13   27 1   
    24   14   15 ar  
    25   14   19 ar  
    26   15   16 ar  
    27   15   28 1   
    28   16   17 ar  
    29   16   29 1   
    30   17   18 ar  
    31   17   30 1   
    32   18   19 ar  
    33   18   31 1   
    34   19   32 1   
@<TRIPOS>SUBSTRUCTURE
     1 F5N         1 TEMP              0 ****  ****    0 ROOT
