@<TRIPOS>MOLECULE
F5N
   33    35     1     0     0
SMALL
bcc


@<TRIPOS>ATOM
      1 O1         -1.4740   -2.7200   -0.6030 o         1 F5N     -0.422100
      2 C2         -0.7050   -1.8430   -0.2410 c         1 F5N      0.569100
      3 C3          0.4710   -1.9800    0.6870 c3        1 F5N     -0.057200
      4 C4          0.3380   -1.1370    1.8930 cc        1 F5N     -0.004600
      5 C5          0.7170   -1.5120    3.2010 cd        1 F5N     -0.159100
      6 N6          0.4520   -0.4060    4.0040 na        1 F5N      0.022700
      7 C7          0.6200   -0.1890    5.3570 cc        1 F5N     -0.066300
      8 C8          0.2630    1.0220    5.9010 cd        1 F5N     -0.143000
      9 C9         -0.2810    2.0580    5.0830 cd        1 F5N     -0.082000
     10 C10        -0.4590    1.8740    3.7400 cc        1 F5N     -0.113000
     11 C11        -0.0900    0.6140    3.1570 cd        1 F5N      0.017700
     12 N12        -0.1570    0.1670    1.8690 nc        1 F5N     -0.393600
     13 N13        -0.9760   -0.4620   -0.8010 n4        1 F5N     -0.552200
     14 C14        -0.0810   -0.1450   -1.9150 ca        1 F5N     -0.057400
     15 C15        -0.3170   -0.7150   -3.1800 ca        1 F5N     -0.102000
     16 C16         0.5280   -0.3890   -4.2380 ca        1 F5N     -0.107000
     17 C17         1.5950    0.4920   -4.0470 ca        1 F5N     -0.074000
     18 C18         1.8230    1.0530   -2.7890 ca        1 F5N     -0.107000
     19 C19         0.9920    0.7430   -1.7150 ca        1 F5N     -0.102000
     20 H3          0.5430   -3.0660    0.9830 hc        1 F5N      0.118700
     21 H3A         1.4100   -1.7070    0.1230 hc        1 F5N      0.118700
     22 H5          1.1350   -2.4400    3.5900 h4        1 F5N      0.205000
     23 H7          1.0440   -1.0230    5.9430 h4        1 F5N      0.184000
     24 H8          0.3960    1.1960    6.9800 ha        1 F5N      0.175000
     25 H9         -0.5540    3.0140    5.5600 ha        1 F5N      0.166000
     26 H10        -0.8740    2.6500    3.0820 ha        1 F5N      0.170000
     27 HN13       -0.8480    0.2400   -0.0420 hn        1 F5N      0.481800
     28 H15        -1.1550   -1.4120   -3.3450 ha        1 F5N      0.163500
     29 H16         0.3480   -0.8310   -5.2320 ha        1 F5N      0.169000
     30 H17         2.2570    0.7460   -4.8920 ha        1 F5N      0.169000
     31 H18         2.6630    1.7510   -2.6400 ha        1 F5N      0.169000
     32 H19         1.1820    1.1970   -0.7280 ha        1 F5N      0.163500
     33 H132       -1.9470   -0.4210   -1.1370 hn        1 F5N      0.481800
@<TRIPOS>BOND
     1    1    2 2   
     2    2    3 1   
     3    2   13 1   
     4    3    4 1   
     5    3   20 1   
     6    3   21 1   
     7    4    5 2   
     8    4   12 1   
     9    5    6 1   
    10    5   22 1   
    11    6    7 1   
    12    6   11 1   
    13    7    8 2   
    14    7   23 1   
    15    8    9 1   
    16    8   24 1   
    17    9   10 2   
    18    9   25 1   
    19   10   11 1   
    20   10   26 1   
    21   11   12 2   
    22   13   14 1   
    23   13   27 1   
    24   13   33 1   
    25   14   15 ar  
    26   14   19 ar  
    27   15   16 ar  
    28   15   28 1   
    29   16   17 ar  
    30   16   29 1   
    31   17   18 ar  
    32   17   30 1   
    33   18   19 ar  
    34   18   31 1   
    35   19   32 1   
@<TRIPOS>SUBSTRUCTURE
     1 F5N         1 TEMP              0 ****  ****    0 ROOT
