@<TRIPOS>MOLECULE
F5N
   32    34     1     0     0
SMALL
bcc


@<TRIPOS>ATOM
      1 O1          1.0450   -2.8470   -0.4620 o         1 F5N     -0.599100
      2 C2          1.3700   -1.7560    0.0430 c         1 F5N      0.671100
      3 C3          1.9270   -1.7180    1.4640 c3        1 F5N     -0.081200
      4 C4          1.0810   -0.9230    2.3780 cc        1 F5N      0.047400
      5 C5          0.2210   -1.4690    3.3640 cd        1 F5N     -0.205100
      6 N6         -0.3660   -0.3840    4.0050 na        1 F5N      0.017700
      7 C7         -1.2780   -0.2970    5.0340 cc        1 F5N     -0.071300
      8 C8         -1.6940    0.9370    5.4760 cd        1 F5N     -0.163000
      9 C9         -1.1920    2.1320    4.8810 cd        1 F5N     -0.119000
     10 C10        -0.2870    2.0800    3.8570 cc        1 F5N     -0.092000
     11 C11         0.1590    0.8010    3.3820 cd        1 F5N     -0.026300
     12 N12         1.0390    0.4680    2.3940 nc        1 F5N     -0.300600
     13 N13         1.3020   -0.5450   -0.6240 n         1 F5N     -0.460100
     14 C14         0.7920   -0.3130   -1.9110 ca        1 F5N      0.070600
     15 C15         0.4610   -1.3480   -2.8120 ca        1 F5N     -0.169500
     16 C16        -0.0200   -1.0400   -4.0820 ca        1 F5N     -0.106500
     17 C17        -0.1820    0.2820   -4.4870 ca        1 F5N     -0.160000
     18 C18         0.1430    1.3130   -3.6050 ca        1 F5N     -0.106500
     19 C19         0.6230    1.0300   -2.3320 ca        1 F5N     -0.169500
     20 H3          1.9770   -2.7790    1.8300 hc        1 F5N      0.086700
     21 H3A         2.9740   -1.3080    1.4390 hc        1 F5N      0.086700
     22 H5          0.0030   -2.5020    3.6260 h4        1 F5N      0.190000
     23 H7         -1.6360   -1.2500    5.4580 h4        1 F5N      0.166000
     24 H8         -2.4220    1.0040    6.2970 ha        1 F5N      0.153000
     25 H9         -1.5500    3.0990    5.2650 ha        1 F5N      0.146000
     26 H10         0.1210    2.9790    3.3740 ha        1 F5N      0.164000
     27 HN13        1.5360    0.2740   -0.1040 hn        1 F5N      0.336500
     28 H15         0.5760   -2.4050   -2.5210 ha        1 F5N      0.151000
     29 H16        -0.2740   -1.8600   -4.7710 ha        1 F5N      0.130500
     30 H17        -0.5610    0.5130   -5.4920 ha        1 F5N      0.130000
     31 H18         0.0180    2.3610   -3.9160 ha        1 F5N      0.130500
     32 H19         0.8690    1.8620   -1.6550 ha        1 F5N      0.151000
@<TRIPOS>BOND
     1    1    2 2   
     2    2    3 1   
     3    2   13 1   
     4    3    4 1   
     5    3   20 1   
     6    3   21 1   
     7    4    5 2   
     8    4   12 1   
     9    5    6 1   
    10    5   22 1   
    11    6    7 1   
    12    6   11 1   
    13    7    8 2   
    14    7   23 1   
    15    8    9 1   
    16    8   24 1   
    17    9   10 2   
    18    9   25 1   
    19   10   11 1   
    20   10   26 1   
    21   11   12 2   
    22   13   14 1   
    23   13   27 1   
    24   14   15 ar  
    25   14   19 ar  
    26   15   16 ar  
    27   15   28 1   
    28   16   17 ar  
    29   16   29 1   
    30   17   18 ar  
    31   17   30 1   
    32   18   19 ar  
    33   18   31 1   
    34   19   32 1   
@<TRIPOS>SUBSTRUCTURE
     1 F5N         1 TEMP              0 ****  ****    0 ROOT
