@<TRIPOS>MOLECULE
F5N
   32    26     1     0     0
SMALL
bcc


@<TRIPOS>ATOM
      1 O1         -0.1480    0.4640   -0.8330 o         1 F5N     -0.360000
      2 C2          1.0000    0.0790   -0.7440 c1        1 F5N      0.315000
      3 C3          1.6520   -0.0500    0.6150 c3        1 F5N     -0.114000
      4 C4          0.6150    0.1780    1.6950 c2        1 F5N     -0.089000
      5 C5          0.3370    1.1520    2.6270 c1        1 F5N     -0.178000
      6 N6         -0.5780    0.6530    3.4940 n2        1 F5N     -0.058000
      7 C7         -1.1950    1.2000    4.6020 c1        1 F5N     -0.114667
      8 C8         -2.1150    0.4500    5.3260 c1        1 F5N     -0.114667
      9 C9         -2.4100   -0.8340    4.9400 c1        1 F5N     -0.114667
     10 C10        -1.7980   -1.3750    3.8410 c1        1 F5N     -0.114667
     11 C11        -0.8690   -0.6170    3.1100 c1        1 F5N     -0.002000
     12 N12        -0.1240   -0.9050    1.9920 n1        1 F5N     -0.160000
     13 N13         1.7270   -0.2620   -1.9150 n2        1 F5N     -0.314000
     14 C14         1.1120   -0.1520   -3.1890 c2        1 F5N      0.078000
     15 C15         1.7460    0.5430   -4.2070 c2        1 F5N     -0.182000
     16 C16         1.1580    0.6270   -5.4590 c1        1 F5N     -0.106000
     17 C17        -0.0630    0.0150   -5.6940 c1        1 F5N     -0.114667
     18 C18        -0.6970   -0.6800   -4.6760 c1        1 F5N     -0.114667
     19 C19        -0.1090   -0.7640   -3.4230 c1        1 F5N     -0.157000
     20 H3          2.3630    0.6160    0.7000 hc        1 F5N      0.126000
     21 H3A         2.0310   -0.9460    0.7110 hc        1 F5N      0.126000
     22 H5          0.7510    2.0350    2.6750 DU        1 F5N      0.190000
     23 H7         -0.9850    2.1120    4.8780 ha        1 F5N      0.148500
     24 H8         -2.5510    0.8370    6.1100 ha        1 F5N      0.148500
     25 H9         -3.0560   -1.3600    5.4480 ha        1 F5N      0.148500
     26 H10        -2.0080   -2.2870    3.5650 ha        1 F5N      0.148500
     27 HN13        2.5960   -0.5310   -1.8500 hn        1 F5N      0.249000
     28 H15         2.6060    0.9740   -4.0420 ha        1 F5N      0.131000
     29 H16         1.6040    1.1160   -6.1760 ha        1 F5N      0.129000
     30 H17        -0.4770    0.0740   -6.5750 ha        1 F5N      0.148500
     31 H18        -1.5570   -1.1100   -4.8410 ha        1 F5N      0.148500
     32 H19        -0.5560   -1.2530   -2.7070 ha        1 F5N      0.171000
@<TRIPOS>BOND
     1    1    2 1   
     2    2    3 1   
     3    3    4 1   
     4    3   20 1   
     5    3   21 1   
     6    4    5 1   
     7    4   12 1   
     8    5    6 1   
     9    6   11 1   
    10    7    8 1   
    11    7   23 1   
    12    8   24 1   
    13    9   10 1   
    14    9   25 1   
    15   10   26 1   
    16   13   14 1   
    17   13   27 1   
    18   14   15 1   
    19   14   19 1   
    20   15   16 1   
    21   15   28 1   
    22   16   29 1   
    23   17   18 1   
    24   17   30 1   
    25   18   31 1   
    26   19   32 1   
@<TRIPOS>SUBSTRUCTURE
     1 F5N         1 TEMP              0 ****  ****    0 ROOT
