@<TRIPOS>MOLECULE
F5N
   32    34     1     0     0
SMALL
bcc


@<TRIPOS>ATOM
      1 O1          0.9300   -2.8610   -0.5030 o         1 F5N     -0.599100
      2 C2          1.3000   -1.7930    0.0180 c         1 F5N      0.671100
      3 C3          1.8570   -1.8010    1.4400 c3        1 F5N     -0.081200
      4 C4          1.0450   -0.9840    2.3660 cc        1 F5N      0.047400
      5 C5          0.1590   -1.5070    3.3410 cd        1 F5N     -0.205100
      6 N6         -0.3810   -0.4070    3.9990 na        1 F5N      0.017700
      7 C7         -1.2900   -0.2960    5.0270 cc        1 F5N     -0.071300
      8 C8         -1.6520    0.9480    5.4890 cd        1 F5N     -0.163000
      9 C9         -1.0950    2.1280    4.9150 cd        1 F5N     -0.119000
     10 C10        -0.1910    2.0530    3.8920 cc        1 F5N     -0.092000
     11 C11         0.1980    0.7630    3.3960 cd        1 F5N     -0.026300
     12 N12         1.0650    0.4070    2.4050 nc        1 F5N     -0.300600
     13 N13         1.2830   -0.5710   -0.6290 ns        1 F5N     -0.460100
     14 C14         0.7840   -0.2970   -1.9130 ca        1 F5N      0.070600
     15 C15         0.4150   -1.3030   -2.8310 ca        1 F5N     -0.169500
     16 C16        -0.0520   -0.9560   -4.0960 ca        1 F5N     -0.106500
     17 C17        -0.1610    0.3780   -4.4800 ca        1 F5N     -0.160000
     18 C18         0.2020    1.3800   -3.5800 ca        1 F5N     -0.106500
     19 C19         0.6680    1.0580   -2.3120 ca        1 F5N     -0.169500
     20 H3          2.9200   -1.4360    1.4220 hc        1 F5N      0.086700
     21 H3A         1.8600   -2.8680    1.7900 hc        1 F5N      0.086700
     22 H5         -0.1060   -2.5330    3.5860 h4        1 F5N      0.190000
     23 H7         -1.6920   -1.2390    5.4350 h4        1 F5N      0.166000
     24 H8         -2.3780    1.0340    6.3100 ha        1 F5N      0.153000
     25 H9         -1.4110    3.1040    5.3140 ha        1 F5N      0.146000
     26 H10         0.2590    2.9400    3.4250 ha        1 F5N      0.164000
     27 HN13        1.5510    0.2300   -0.0970 hn        1 F5N      0.335500
     28 H15         0.4890   -2.3690   -2.5570 ha        1 F5N      0.151000
     29 H16        -0.3370   -1.7540   -4.7990 ha        1 F5N      0.130500
     30 H17        -0.5300    0.6400   -5.4810 ha        1 F5N      0.130000
     31 H18         0.1180    2.4380   -3.8730 ha        1 F5N      0.130500
     32 H19         0.9450    1.8690   -1.6200 ha        1 F5N      0.151000
@<TRIPOS>BOND
     1    1    2 2   
     2    2    3 1   
     3    2   13 1   
     4    3    4 1   
     5    3   20 1   
     6    3   21 1   
     7    4    5 2   
     8    4   12 1   
     9    5    6 1   
    10    5   22 1   
    11    6    7 1   
    12    6   11 1   
    13    7    8 2   
    14    7   23 1   
    15    8    9 1   
    16    8   24 1   
    17    9   10 2   
    18    9   25 1   
    19   10   11 1   
    20   10   26 1   
    21   11   12 2   
    22   13   14 1   
    23   13   27 1   
    24   14   15 ar  
    25   14   19 ar  
    26   15   16 ar  
    27   15   28 1   
    28   16   17 ar  
    29   16   29 1   
    30   17   18 ar  
    31   17   30 1   
    32   18   19 ar  
    33   18   31 1   
    34   19   32 1   
@<TRIPOS>SUBSTRUCTURE
     1 F5N         1 TEMP              0 ****  ****    0 ROOT
