@<TRIPOS>MOLECULE
F63
   28    29     1     0     0
SMALL
bcc


@<TRIPOS>ATOM
      1 O1         -0.1550   -0.8000   -0.5070 os        1 F63     -0.305400
      2 N2          2.5810    1.4630   -1.5240 nb        1 F63     -0.650000
      3 C3          1.3600    1.0200   -1.1760 ca        1 F63      0.382200
      4 C4          1.0860   -0.3480   -0.9780 ca        1 F63     -0.050200
      5 C5          2.1030   -1.3030   -1.1220 ca        1 F63     -0.069000
      6 C6          3.3730   -0.8350   -1.4620 ca        1 F63     -0.219300
      7 C7          3.5620    0.5480   -1.6570 ca        1 F63      0.408200
      8 C8         -1.2580   -0.4390   -1.1920 cc        1 F63      0.551000
      9 O9         -1.0830    0.3220   -2.3370 os        1 F63     -0.404800
     10 C10        -2.3950    0.5520   -2.8300 cc        1 F63      0.046000
     11 C11        -3.3250   -0.0560   -1.9990 cd        1 F63     -0.091300
     12 C12        -2.6050   -0.6980   -0.9380 cd        1 F63     -0.298300
     13 C13        -2.4570    1.2610   -4.1060 c3        1 F63      0.123500
     14 N14        -1.9820    2.6870   -3.9490 n4        1 F63     -0.769000
     15 C15        -2.0020    3.4250   -5.2280 c3        1 F63      0.077100
     16 H5          1.9020   -2.3710   -0.9550 ha        1 F63      0.172000
     17 H6          4.2150   -1.5320   -1.5780 ha        1 F63      0.168000
     18 H7          4.5560    0.9500   -1.9310 h4        1 F63      0.044100
     19 H11        -4.4100   -0.0620   -2.1170 ha        1 F63      0.184000
     20 H12        -3.0160   -1.2750   -0.1130 ha        1 F63      0.206000
     21 H13        -3.5160    1.2810   -4.4930 hx        1 F63      0.117700
     22 H13A       -1.7830    0.7750   -4.8730 hx        1 F63      0.117700
     23 HN14       -2.5770    3.1620   -3.2610 hn        1 F63      0.456800
     24 H15        -1.3280    2.9160   -5.9690 hx        1 F63      0.108700
     25 H15A       -1.6420    4.4760   -5.0570 hx        1 F63      0.108700
     26 H15B       -3.0490    3.4490   -5.6340 hx        1 F63      0.108700
     27 H142       -1.0250    2.6660   -3.5710 hn        1 F63      0.456800
     28 H3          0.5700    1.7790   -1.0480 h4        1 F63      0.019100
@<TRIPOS>BOND
     1    1    4 1   
     2    1    8 1   
     3    2    3 ar  
     4    2    7 ar  
     5    3    4 ar  
     6    3   28 1   
     7    4    5 ar  
     8    5    6 ar  
     9    5   16 1   
    10    6    7 ar  
    11    6   17 1   
    12    7   18 1   
    13    8    9 1   
    14    8   12 2   
    15    9   10 1   
    16   10   11 2   
    17   10   13 1   
    18   11   12 1   
    19   11   19 1   
    20   12   20 1   
    21   13   14 1   
    22   13   21 1   
    23   13   22 1   
    24   14   15 1   
    25   14   23 1   
    26   14   27 1   
    27   15   24 1   
    28   15   25 1   
    29   15   26 1   
@<TRIPOS>SUBSTRUCTURE
     1 F63         1 TEMP              0 ****  ****    0 ROOT
