@<TRIPOS>MOLECULE
F63
   27    23     1     0     0
SMALL
bcc


@<TRIPOS>ATOM
      1 O1         -0.1960    1.8790   -1.3860 os        1 F63     -0.108000
      2 N2          3.3400    2.6410   -0.9860 n1        1 F63     -0.116000
      3 C3          2.0320    2.4450   -0.6770 c1        1 F63     -0.076000
      4 C4          1.1370    1.9650   -1.6610 c2        1 F63      0.010000
      5 C5          1.5920    1.6960   -2.9290 c2        1 F63     -0.135000
      6 C6          2.9210    1.8960   -3.2390 c1        1 F63     -0.152000
      7 C7          3.8010    2.3700   -2.2660 c1        1 F63     -0.096000
      8 C8         -0.4660    0.6550   -0.7800 c2        1 F63      0.052000
      9 O9         -0.5760    0.4340    0.5880 os        1 F63     -0.118000
     10 C10        -1.0360   -0.8390    0.7780 c1        1 F63     -0.044000
     11 C11        -1.2180   -1.4240   -0.4800 c1        1 F63     -0.170000
     12 C12        -0.8650   -0.4990   -1.4320 c1        1 F63     -0.167000
     13 C13        -1.1460   -1.5600    2.1320 c2        1 F63     -0.014000
     14 N14        -2.5360   -1.7060    2.4870 n3        1 F63     -0.302000
     15 C15        -2.6530   -2.5660    3.6370 c3        1 F63     -0.126000
     16 H3          1.6940    2.6460    0.2680 ha        1 F63      0.177000
     17 H5          0.9590    1.3540   -3.6290 ha        1 F63      0.157000
     18 H6          3.2480    1.7040   -4.1460 ha        1 F63      0.147000
     19 H7          4.7510    2.5130   -2.4880 ha        1 F63      0.163000
     20 H11        -1.5380   -2.3290   -0.6500 DU        1 F63      0.175000
     21 H12        -0.8900   -0.6350   -2.4180 DU        1 F63      0.175000
     22 H13        -0.6840   -1.0270    2.8260 h4        1 F63      0.094000
     23 H13A       -0.7340   -2.4340    2.0670 h4        1 F63      0.094000
     24 HN14       -2.8880   -0.8880    2.6840 hn        1 F63      0.162000
     25 H15        -2.2810   -2.1080    4.4300 h1        1 F63      0.073000
     26 H15A       -3.6130   -2.7790    3.7960 h1        1 F63      0.073000
     27 H15B       -2.1540   -3.4020    3.4750 h1        1 F63      0.073000
@<TRIPOS>BOND
     1    1    4 1   
     2    1    8 1   
     3    2    7 1   
     4    3    4 1   
     5    3   16 1   
     6    4    5 1   
     7    5    6 1   
     8    5   17 1   
     9    6   18 1   
    10    7   19 1   
    11    8    9 1   
    12    8   12 1   
    13    9   10 1   
    14   10   11 1   
    15   11   12 1   
    16   13   14 1   
    17   13   22 1   
    18   13   23 1   
    19   14   15 1   
    20   14   24 1   
    21   15   25 1   
    22   15   26 1   
    23   15   27 1   
@<TRIPOS>SUBSTRUCTURE
     1 F63         1 TEMP              0 ****  ****    0 ROOT
