@<TRIPOS>MOLECULE
F63
   27    28     1     0     0
SMALL
bcc


@<TRIPOS>ATOM
      1 O1         -0.6100    0.7940    1.0120 os        1 F63     -0.323400
      2 N2         -4.0620   -0.3240    0.9730 nb        1 F63     -0.642000
      3 C3         -2.9090    0.2800    1.2990 ca        1 F63      0.389200
      4 C4         -1.7350    0.1290    0.5190 ca        1 F63     -0.011200
      5 C5         -1.7570   -0.6700   -0.6270 ca        1 F63     -0.135000
      6 C6         -2.9610   -1.2920   -0.9630 ca        1 F63     -0.217300
      7 C7         -4.0810   -1.0910   -0.1370 ca        1 F63      0.370200
      8 C8          0.4390    0.9120    0.1570 cc        1 F63      0.418000
      9 O9          1.2210   -0.2440    0.1000 os        1 F63     -0.378800
     10 C10         2.3420    0.1040   -0.6660 cc        1 F63      0.216000
     11 C11         2.2560    1.4260   -1.0660 cd        1 F63     -0.251300
     12 C12         1.0180    1.9550   -0.5380 cd        1 F63     -0.229300
     13 C13         3.3350   -0.9760   -0.9160 c3        1 F63      0.130500
     14 N14         3.7550   -1.7660    0.2150 n3        1 F63     -0.814200
     15 C15         4.5820   -1.0750    1.1700 c3        1 F63      0.145100
     16 H5         -0.8510   -0.8030   -1.2370 ha        1 F63      0.157000
     17 H6         -3.0320   -1.9300   -1.8530 ha        1 F63      0.147000
     18 H7         -5.0500   -1.5670   -0.3710 h4        1 F63      0.026100
     19 H11         2.9730    1.9820   -1.6640 ha        1 F63      0.167000
     20 H12         0.6370    2.9650   -0.6600 ha        1 F63      0.176000
     21 H13         2.8830   -1.6900   -1.6680 h1        1 F63      0.071200
     22 H13A        4.2420   -0.4970   -1.3850 h1        1 F63      0.071200
     23 HN14        2.9580   -2.1760    0.6680 hn        1 F63      0.372800
     24 H15         5.5190   -0.7260    0.6620 h1        1 F63      0.034700
     25 H15A        4.0820   -0.1820    1.6380 h1        1 F63      0.034700
     26 H15B        4.8610   -1.7950    1.9830 h1        1 F63      0.034700
     27 H3         -2.9030    0.9020    2.2110 h4        1 F63      0.040100
@<TRIPOS>BOND
     1    1    4 1   
     2    1    8 1   
     3    2    3 ar  
     4    2    7 ar  
     5    3    4 ar  
     6    3   27 1   
     7    4    5 ar  
     8    5    6 ar  
     9    5   16 1   
    10    6    7 ar  
    11    6   17 1   
    12    7   18 1   
    13    8    9 1   
    14    8   12 2   
    15    9   10 1   
    16   10   11 2   
    17   10   13 1   
    18   11   12 1   
    19   11   19 1   
    20   12   20 1   
    21   13   14 1   
    22   13   21 1   
    23   13   22 1   
    24   14   15 1   
    25   14   23 1   
    26   15   24 1   
    27   15   25 1   
    28   15   26 1   
@<TRIPOS>SUBSTRUCTURE
     1 F63         1 TEMP              0 ****  ****    0 ROOT
