@<TRIPOS>MOLECULE
F63
   28    29     1     0     0
SMALL
bcc


@<TRIPOS>ATOM
      1 O1         -0.1570   -0.9550   -0.6410 os        1 F63     -0.305400
      2 N2          2.6200    1.3030   -1.5510 nb        1 F63     -0.650000
      3 C3          1.3950    0.8680   -1.2090 ca        1 F63      0.383200
      4 C4          1.0870   -0.5030   -1.1050 ca        1 F63     -0.050200
      5 C5          2.0730   -1.4710   -1.3410 ca        1 F63     -0.069000
      6 C6          3.3480   -1.0130   -1.6750 ca        1 F63     -0.219300
      7 C7          3.5720    0.3750   -1.7720 ca        1 F63      0.408200
      8 C8         -1.2630   -0.5190   -1.2750 cc        1 F63      0.551000
      9 O9         -1.0910    0.3240   -2.3610 os        1 F63     -0.404800
     10 C10        -2.4050    0.6210   -2.8100 cc        1 F63      0.046000
     11 C11        -3.3350   -0.0290   -2.0090 cd        1 F63     -0.091300
     12 C12        -2.6110   -0.7670   -1.0160 cd        1 F63     -0.298300
     13 C13        -2.4730    1.4270   -4.0260 c3        1 F63      0.123500
     14 N14        -1.9630    2.8250   -3.7690 ny        1 F63     -0.769000
     15 C15        -1.9880    3.6610   -4.9870 c3        1 F63      0.077100
     16 H5          1.8460   -2.5430   -1.2480 ha        1 F63      0.172000
     17 H6          4.1680   -1.7220   -1.8600 ha        1 F63      0.168000
     18 H7          4.5710    0.7690   -2.0390 h4        1 F63      0.044100
     19 H11        -4.4210   -0.0030   -2.1060 ha        1 F63      0.184000
     20 H12        -3.0210   -1.3970   -0.2300 ha        1 F63      0.206000
     21 H13        -3.5380    1.4990   -4.3890 hx        1 F63      0.117700
     22 H13A       -1.8240    0.9870   -4.8410 hx        1 F63      0.117700
     23 HN14       -2.5350    3.2590   -3.0350 hn        1 F63      0.456800
     24 H15        -1.3390    3.1960   -5.7780 hx        1 F63      0.108700
     25 H15A       -1.6020    4.6880   -4.7430 hx        1 F63      0.108700
     26 H15B       -3.0420    3.7380   -5.3700 hx        1 F63      0.108700
     27 H142       -1.0000    2.7550   -3.4120 hn        1 F63      0.456800
     28 H3          0.6290    1.6370   -1.0080 h4        1 F63      0.019100
@<TRIPOS>BOND
     1    1    4 1   
     2    1    8 1   
     3    2    3 ar  
     4    2    7 ar  
     5    3    4 ar  
     6    3   28 1   
     7    4    5 ar  
     8    5    6 ar  
     9    5   16 1   
    10    6    7 ar  
    11    6   17 1   
    12    7   18 1   
    13    8    9 1   
    14    8   12 2   
    15    9   10 1   
    16   10   11 2   
    17   10   13 1   
    18   11   12 1   
    19   11   19 1   
    20   12   20 1   
    21   13   14 1   
    22   13   21 1   
    23   13   22 1   
    24   14   15 1   
    25   14   23 1   
    26   14   27 1   
    27   15   24 1   
    28   15   25 1   
    29   15   26 1   
@<TRIPOS>SUBSTRUCTURE
     1 F63         1 TEMP              0 ****  ****    0 ROOT
