@<TRIPOS>MOLECULE
F68
   46    47     1     0     0
SMALL
bcc


@<TRIPOS>ATOM
      1 C10        -0.3300   -0.9980    2.1410 ca        1 F68     -0.036000
      2 C11         0.9290   -0.4230    2.2290 ca        1 F68     -0.140000
      3 C12         1.0830    0.9730    2.2400 ca        1 F68      0.073700
      4 C15         2.4240    1.5800    2.3430 c3        1 F68     -0.101800
      5 C13        -0.0670    1.7900    2.1690 ca        1 F68     -0.140000
      6 C14        -1.3290    1.2320    2.0740 ca        1 F68     -0.036000
      7 C9         -1.4770   -0.1720    2.0450 ca        1 F68     -0.251600
      8 C8         -2.7450   -0.8410    1.9560 c         1 F68      0.635700
      9 O8         -3.1190   -1.9590    2.2840 o         1 F68     -0.487100
     10 N2         -3.8820    0.0000    1.2850 n4        1 F68     -0.583600
     11 C7         -5.0300   -0.8070    0.8080 c         1 F68      0.523100
     12 O7         -5.3000   -0.8800   -0.3820 o         1 F68     -0.323100
     13 N1         -5.8670   -1.5510    1.7980 n4        1 F68     -0.651800
     14 C1         -6.7710   -0.6200    2.5960 c3        1 F68      0.346300
     15 O5         -5.8920    0.3660    3.0880 os        1 F68     -0.495600
     16 C5         -6.5230    1.4180    3.8540 c3        1 F68      0.135100
     17 C6         -5.3200    2.2840    4.2560 c3        1 F68      0.135400
     18 O6         -4.5180    2.4810    3.1000 oh        1 F68     -0.660800
     19 C4         -7.2820    0.8220    5.0480 c3        1 F68      0.091100
     20 O4         -8.0500    1.8820    5.5800 oh        1 F68     -0.576800
     21 C3         -8.2350   -0.2990    4.5720 c3        1 F68      0.082100
     22 O3         -8.7600   -0.9950    5.6830 oh        1 F68     -0.582800
     23 C2         -7.4480   -1.3610    3.7770 c3        1 F68      0.118100
     24 O2         -8.2670   -2.3420    3.1860 oh        1 F68     -0.617800
     25 H10        -0.4410   -2.0970    2.1410 ha        1 F68      0.156500
     26 H11         1.8220   -1.0710    2.2950 ha        1 F68      0.183500
     27 H15         2.7140    1.6650    3.4250 hc        1 F68      0.090033
     28 H15A        2.4460    2.6050    1.8960 hc        1 F68      0.090033
     29 H15B        3.1940    0.9490    1.8310 hc        1 F68      0.090033
     30 H13         0.0510    2.8870    2.1980 ha        1 F68      0.183500
     31 H14        -2.2050    1.9030    2.0690 ha        1 F68      0.156500
     32 HN2        -4.2010    0.7260    1.9710 hn        1 F68      0.517300
     33 HN1        -5.2600   -2.0900    2.4450 hn        1 F68      0.516300
     34 H1         -7.5370   -0.1900    1.8800 hx        1 F68      0.136700
     35 H5         -7.2260    1.9810    3.1810 h1        1 F68      0.095700
     36 H6         -4.6700    1.7440    4.9950 h1        1 F68      0.098700
     37 H6A        -5.6970    3.2430    4.6970 h1        1 F68      0.098700
     38 HO6        -4.6490    3.3890    2.7980 ho        1 F68      0.444000
     39 H4         -6.5660    0.4070    5.8100 h1        1 F68      0.086700
     40 HO4        -8.2180    1.6820    6.5120 ho        1 F68      0.446000
     41 H3         -9.0590    0.1370    3.9410 h1        1 F68      0.088700
     42 HO3        -9.5230   -0.4950    6.0100 ho        1 F68      0.451000
     43 H2         -6.6860   -1.8460    4.4520 h1        1 F68      0.096700
     44 HO2        -8.9100   -2.6360    3.8540 ho        1 F68      0.484000
     45 H22        -3.4810    0.4870    0.4650 hn        1 F68      0.517300
     46 H12        -6.4830   -2.2160    1.2880 hn        1 F68      0.516300
@<TRIPOS>BOND
     1    1    2 ar  
     2    1    7 ar  
     3    1   25 1   
     4    2    3 ar  
     5    2   26 1   
     6    3    4 1   
     7    3    5 ar  
     8    4   27 1   
     9    4   28 1   
    10    4   29 1   
    11    5    6 ar  
    12    5   30 1   
    13    6    7 ar  
    14    6   31 1   
    15    7    8 1   
    16    8    9 2   
    17    8   10 1   
    18   10   11 1   
    19   10   32 1   
    20   10   45 1   
    21   11   12 2   
    22   11   13 1   
    23   13   14 1   
    24   13   33 1   
    25   13   46 1   
    26   14   15 1   
    27   14   23 1   
    28   14   34 1   
    29   15   16 1   
    30   16   17 1   
    31   16   19 1   
    32   16   35 1   
    33   17   18 1   
    34   17   36 1   
    35   17   37 1   
    36   18   38 1   
    37   19   20 1   
    38   19   21 1   
    39   19   39 1   
    40   20   40 1   
    41   21   22 1   
    42   21   23 1   
    43   21   41 1   
    44   22   42 1   
    45   23   24 1   
    46   23   43 1   
    47   24   44 1   
@<TRIPOS>SUBSTRUCTURE
     1 F68         1 TEMP              0 ****  ****    0 ROOT
