@<TRIPOS>MOLECULE
F68
   46    47     1     0     0
SMALL
bcc


@<TRIPOS>ATOM
      1 C10        -0.4090   -1.1080    2.0000 ca        1 F68     -0.035500
      2 C11         0.8810   -0.6270    2.1690 ca        1 F68     -0.140000
      3 C12         1.1190    0.7450    2.3510 ca        1 F68      0.073700
      4 C15         2.4950    1.2520    2.5140 c3        1 F68     -0.100800
      5 C13         0.0220    1.6330    2.3720 ca        1 F68     -0.140000
      6 C14        -1.2700    1.1710    2.1990 ca        1 F68     -0.035500
      7 C9         -1.5020   -0.2080    1.9980 ca        1 F68     -0.251600
      8 C8         -2.8070   -0.7830    1.8210 c         1 F68      0.634700
      9 O8         -3.2490   -1.9090    2.0020 o         1 F68     -0.487100
     10 N2         -3.8870    0.2030    1.2620 n4        1 F68     -0.583600
     11 C7         -5.0770   -0.4660    0.6870 c         1 F68      0.523100
     12 O7         -5.3420   -0.3700   -0.5020 o         1 F68     -0.323100
     13 N1         -5.9630   -1.2790    1.5740 n4        1 F68     -0.651800
     14 C1         -6.8170   -0.4050    2.4850 c3        1 F68      0.346300
     15 O5         -5.8850    0.4570    3.0980 os        1 F68     -0.495600
     16 C5         -6.4570    1.4380    3.9920 c3        1 F68      0.135100
     17 C6         -5.2090    2.1730    4.5000 c3        1 F68      0.135400
     18 O6         -4.3890    2.4680    3.3780 oh        1 F68     -0.660800
     19 C4         -7.2590    0.7410    5.1010 c3        1 F68      0.091100
     20 O4         -7.9670    1.7690    5.7640 oh        1 F68     -0.576800
     21 C3         -8.2730   -0.2510    4.4870 c3        1 F68      0.082100
     22 O3         -8.8450   -1.0500    5.5000 oh        1 F68     -0.582800
     23 C2         -7.5440   -1.2490    3.5620 c3        1 F68      0.118100
     24 O2         -8.4150   -2.0950    2.8520 oh        1 F68     -0.617800
     25 H10        -0.5860   -2.1900    1.8640 ha        1 F68      0.156500
     26 H11         1.7320   -1.3330    2.1640 ha        1 F68      0.183500
     27 H15         3.1340    0.5160    3.0670 hc        1 F68      0.090033
     28 H15A        2.5110    2.2260    3.0660 hc        1 F68      0.090033
     29 H15B        2.9560    1.4170    1.5030 hc        1 F68      0.090033
     30 H13         0.2040    2.7090    2.5380 ha        1 F68      0.183500
     31 H14        -2.1030    1.8890    2.2700 ha        1 F68      0.156500
     32 HN2        -4.1660    0.8540    2.0360 hn        1 F68      0.516800
     33 HN1        -6.6150   -1.8350    0.9840 hn        1 F68      0.516300
     34 H1         -7.5510    0.1570    1.8300 hx        1 F68      0.136700
     35 H5         -7.1220    2.1230    3.3970 h1        1 F68      0.095700
     36 H6         -4.5970    1.5060    5.1640 h1        1 F68      0.098700
     37 H6A        -5.5310    3.0900    5.0590 h1        1 F68      0.098700
     38 HO6        -4.4630    3.4140    3.1940 ho        1 F68      0.444000
     39 H4         -6.5730    0.1910    5.8030 h1        1 F68      0.086700
     40 HO4        -8.1520    1.4630    6.6640 ho        1 F68      0.446000
     41 H3         -9.0650    0.3100    3.9170 h1        1 F68      0.088700
     42 HO3        -9.5790   -0.5510    5.8900 ho        1 F68      0.451000
     43 H2         -6.8170   -1.8600    4.1700 h1        1 F68      0.096700
     44 HO2        -9.0800   -2.4340    3.4770 ho        1 F68      0.484000
     45 H22        -3.4510    0.7660    0.5110 hn        1 F68      0.516800
     46 H12        -5.3940   -1.9310    2.1470 hn        1 F68      0.516300
@<TRIPOS>BOND
     1    1    2 ar  
     2    1    7 ar  
     3    1   25 1   
     4    2    3 ar  
     5    2   26 1   
     6    3    4 1   
     7    3    5 ar  
     8    4   27 1   
     9    4   28 1   
    10    4   29 1   
    11    5    6 ar  
    12    5   30 1   
    13    6    7 ar  
    14    6   31 1   
    15    7    8 1   
    16    8    9 2   
    17    8   10 1   
    18   10   11 1   
    19   10   32 1   
    20   10   45 1   
    21   11   12 2   
    22   11   13 1   
    23   13   14 1   
    24   13   33 1   
    25   13   46 1   
    26   14   15 1   
    27   14   23 1   
    28   14   34 1   
    29   15   16 1   
    30   16   17 1   
    31   16   19 1   
    32   16   35 1   
    33   17   18 1   
    34   17   36 1   
    35   17   37 1   
    36   18   38 1   
    37   19   20 1   
    38   19   21 1   
    39   19   39 1   
    40   20   40 1   
    41   21   22 1   
    42   21   23 1   
    43   21   41 1   
    44   22   42 1   
    45   23   24 1   
    46   23   43 1   
    47   24   44 1   
@<TRIPOS>SUBSTRUCTURE
     1 F68         1 TEMP              0 ****  ****    0 ROOT
