@<TRIPOS>MOLECULE
F68
   44    42     1     0     0
SMALL
bcc


@<TRIPOS>ATOM
      1 C10         0.8360   -4.4930   -1.8430 c1        1 F68     -0.072000
      2 C11         0.9950   -5.7700   -1.2970 c1        1 F68     -0.138000
      3 C12         1.0950   -5.9310    0.0930 c1        1 F68     -0.041000
      4 C15         1.4980   -7.3080    0.6760 c2        1 F68     -0.187000
      5 C13         1.0360   -4.8210    0.9250 c2        1 F68     -0.139000
      6 C14         0.8770   -3.5420    0.3790 c1        1 F68     -0.101000
      7 C9          0.7770   -3.3800   -1.0060 c1        1 F68     -0.138000
      8 C8          0.5130   -2.0060   -1.5890 c2        1 F68      0.359000
      9 O8          0.3500   -1.8730   -2.8030 o         1 F68     -0.277000
     10 N2          0.4220   -0.8500   -0.7120 n         1 F68     -0.391000
     11 C7          0.1560    0.4410   -1.2610 c2        1 F68      0.398000
     12 O7         -0.1080    0.5580   -2.4780 o         1 F68     -0.331000
     13 N1          0.2980    1.6120   -0.4470 n         1 F68     -0.395000
     14 C1          0.1360    2.8800   -1.0290 c3        1 F68      0.114000
     15 O5          0.8150    3.8770   -0.2010 os        1 F68     -0.274000
     16 C5          0.1520    4.0950    1.0960 c3        1 F68     -0.043000
     17 C6          0.3160    2.8500    1.9410 c3        1 F68     -0.052000
     18 O6          0.0670    3.1680    3.3140 oh        1 F68     -0.317000
     19 C4         -1.3240    4.3940    0.9520 c3        1 F68      0.019000
     20 O4         -1.4810    5.7020    0.3380 oh        1 F68     -0.316000
     21 C3         -2.0270    3.3800    0.1150 c3        1 F68     -0.007000
     22 O3         -2.0650    2.1080    0.8450 oh        1 F68     -0.330000
     23 C2         -1.3550    3.1700   -1.1850 c3        1 F68     -0.028000
     24 O2         -1.5150    4.3580   -1.9840 oh        1 F68     -0.322000
     25 H10         0.7650   -4.3800   -2.8340 ha        1 F68      0.156000
     26 H11         1.0380   -6.5760   -1.9020 ha        1 F68      0.141000
     27 H15         0.6990   -7.9400    0.6380 ha        1 F68      0.089667
     28 H15A        2.2550   -7.6930    0.1360 ha        1 F68      0.089667
     29 H15B        1.7970   -7.1930    1.6490 ha        1 F68      0.089667
     30 H13         1.1030   -4.9300    1.8540 ha        1 F68      0.138000
     31 H14         0.8360   -2.7630    0.9650 ha        1 F68      0.134000
     32 HN2         0.5710   -0.9480    0.2130 hn        1 F68      0.232000
     33 HN1         0.6550    1.5390    0.4210 hn        1 F68      0.226000
     34 H1          0.5400    2.8730   -1.8940 h2        1 F68      0.164000
     35 H5          0.5890    4.8550    1.5550 h1        1 F68      0.133000
     36 H6         -0.3420    2.1450    1.6320 h1        1 F68      0.099000
     37 H6A         1.1930    2.5200    1.8500 h1        1 F68      0.099000
     38 HO6         0.8230    3.1560    3.7600 ho        1 F68      0.202000
     39 H4         -1.7320    4.4090    1.8420 h1        1 F68      0.148000
     40 HO4        -1.8240    6.2910    0.9510 ho        1 F68      0.222000
     41 H3         -2.9540    3.6850   -0.0480 h1        1 F68      0.116000
     42 HO3        -2.8640    1.7690    0.7970 ho        1 F68      0.211000
     43 H2         -1.7730    2.4270   -1.6370 h1        1 F68      0.099000
     44 HO2        -1.8340    4.1370   -2.7880 ho        1 F68      0.220000
@<TRIPOS>BOND
     1    1    7 1   
     2    1   25 1   
     3    2    3 1   
     4    2   26 1   
     5    3    5 1   
     6    4   27 1   
     7    4   28 1   
     8    4   29 1   
     9    5    6 1   
    10    5   30 1   
    11    6   31 1   
    12    7    8 1   
    13    8    9 1   
    14    8   10 1   
    15   10   11 1   
    16   10   32 1   
    17   11   12 1   
    18   11   13 1   
    19   13   14 1   
    20   13   33 1   
    21   14   15 1   
    22   14   23 1   
    23   14   34 1   
    24   15   16 1   
    25   16   17 1   
    26   16   19 1   
    27   16   35 1   
    28   17   18 1   
    29   17   36 1   
    30   17   37 1   
    31   18   38 1   
    32   19   20 1   
    33   19   21 1   
    34   19   39 1   
    35   20   40 1   
    36   21   22 1   
    37   21   23 1   
    38   21   41 1   
    39   22   42 1   
    40   23   24 1   
    41   23   43 1   
    42   24   44 1   
@<TRIPOS>SUBSTRUCTURE
     1 F68         1 TEMP              0 ****  ****    0 ROOT
