@<TRIPOS>MOLECULE
F68
   44    45     1     0     0
SMALL
bcc


@<TRIPOS>ATOM
      1 C10        -4.9540   -0.9820   -0.7380 ca        1 F68     -0.087000
      2 C11        -6.1860   -1.0560   -0.0940 ca        1 F68     -0.138000
      3 C12        -6.5600   -0.0800    0.8380 ca        1 F68     -0.049300
      4 C15        -7.8780   -0.1510    1.5080 c3        1 F68     -0.061800
      5 C13        -5.6810    0.9740    1.1150 ca        1 F68     -0.138000
      6 C14        -4.4440    1.0490    0.4780 ca        1 F68     -0.087000
      7 C9         -4.0760    0.0680   -0.4460 ca        1 F68     -0.157600
      8 C8         -2.7740    0.1190   -1.1730 c         1 F68      0.685700
      9 O8         -2.6850   -0.1030   -2.3860 o         1 F68     -0.514100
     10 N2         -1.6550    0.4110   -0.3760 n         1 F68     -0.609500
     11 C7         -0.3360    0.5060   -0.8730 c         1 F68      0.752100
     12 O7         -0.0660    0.2850   -2.0680 o         1 F68     -0.554100
     13 N1          0.6760    0.9570    0.0270 n         1 F68     -0.528900
     14 C1          2.0400    0.5780   -0.2840 c3        1 F68      0.241500
     15 O5          2.3650   -0.5370    0.5720 os        1 F68     -0.447600
     16 C5          3.6520   -1.0890    0.2930 c3        1 F68      0.151100
     17 C6          3.7990   -2.3130    1.2010 c3        1 F68      0.135400
     18 O6          3.2240   -3.4080    0.5090 oh        1 F68     -0.594800
     19 C4          4.7280   -0.0380    0.6160 c3        1 F68      0.117100
     20 O4          5.9850   -0.6040    0.2930 oh        1 F68     -0.594800
     21 C3          4.4710    1.2240   -0.2230 c3        1 F68      0.108100
     22 O3          5.4200    2.1870    0.2020 oh        1 F68     -0.608800
     23 C2          3.0390    1.7330    0.0100 c3        1 F68      0.091100
     24 O2          2.8720    2.8120   -0.8910 oh        1 F68     -0.601800
     25 H10        -4.6660   -1.7390   -1.4860 ha        1 F68      0.145000
     26 H11        -6.8730   -1.8850   -0.3220 ha        1 F68      0.139500
     27 H15        -8.2000   -1.2130    1.6460 hc        1 F68      0.050033
     28 H15A       -7.8480    0.3430    2.5100 hc        1 F68      0.050033
     29 H15B       -8.6490    0.3690    0.8840 hc        1 F68      0.050033
     30 H13        -5.9700    1.7500    1.8390 ha        1 F68      0.139500
     31 H14        -3.7750    1.8960    0.6940 ha        1 F68      0.145000
     32 HN2        -1.8200    0.5700    0.5920 hn        1 F68      0.318500
     33 HN1         0.4690    0.8740    1.0010 hn        1 F68      0.292500
     34 H1          2.1270    0.2730   -1.3710 h2        1 F68      0.109700
     35 H5          3.7150   -1.3990   -0.7870 h1        1 F68      0.085700
     36 H6          4.8920   -2.5000    1.3820 h1        1 F68      0.045700
     37 H6A         3.2690   -2.1430    2.1750 h1        1 F68      0.045700
     38 HO6         3.2950   -4.1700    1.0960 ho        1 F68      0.403000
     39 H4          4.7010    0.2260    1.7100 h1        1 F68      0.058700
     40 HO4         6.6340    0.1100    0.3690 ho        1 F68      0.426000
     41 H3          4.6220    1.0020   -1.3170 h1        1 F68      0.069700
     42 HO3         5.2270    2.9980   -0.2880 ho        1 F68      0.429000
     43 H2          2.9280    2.0960    1.0680 h1        1 F68      0.058700
     44 HO2         1.9470    3.0870   -0.8530 ho        1 F68      0.426000
@<TRIPOS>BOND
     1    1    2 ar  
     2    1    7 ar  
     3    1   25 1   
     4    2    3 ar  
     5    2   26 1   
     6    3    4 1   
     7    3    5 ar  
     8    4   27 1   
     9    4   28 1   
    10    4   29 1   
    11    5    6 ar  
    12    5   30 1   
    13    6    7 ar  
    14    6   31 1   
    15    7    8 1   
    16    8    9 2   
    17    8   10 1   
    18   10   11 1   
    19   10   32 1   
    20   11   12 2   
    21   11   13 1   
    22   13   14 1   
    23   13   33 1   
    24   14   15 1   
    25   14   23 1   
    26   14   34 1   
    27   15   16 1   
    28   16   17 1   
    29   16   19 1   
    30   16   35 1   
    31   17   18 1   
    32   17   36 1   
    33   17   37 1   
    34   18   38 1   
    35   19   20 1   
    36   19   21 1   
    37   19   39 1   
    38   20   40 1   
    39   21   22 1   
    40   21   23 1   
    41   21   41 1   
    42   22   42 1   
    43   23   24 1   
    44   23   43 1   
    45   24   44 1   
@<TRIPOS>SUBSTRUCTURE
     1 F68         1 TEMP              0 ****  ****    0 ROOT
