@<TRIPOS>MOLECULE
F68
   46    47     1     0     0
SMALL
bcc


@<TRIPOS>ATOM
      1 C10        -0.3050   -0.9620    2.2000 ca        1 F68     -0.036000
      2 C11         0.9410   -0.3560    2.2510 ca        1 F68     -0.140000
      3 C12         1.0650    1.0420    2.1840 ca        1 F68      0.073700
      4 C15         2.3930    1.6810    2.2490 c3        1 F68     -0.101800
      5 C13        -0.1020    1.8280    2.0720 ca        1 F68     -0.140000
      6 C14        -1.3520    1.2400    2.0130 ca        1 F68     -0.036000
      7 C9         -1.4700   -0.1670    2.0620 ca        1 F68     -0.251600
      8 C8         -2.7230   -0.8670    2.0150 c         1 F68      0.635700
      9 O8         -3.0730   -1.9720    2.4060 o         1 F68     -0.487100
     10 N2         -3.8800   -0.0890    1.3020 ny        1 F68     -0.583600
     11 C7         -5.0110   -0.9450    0.8750 c         1 F68      0.523100
     12 O7         -5.2820   -1.0900   -0.3080 o         1 F68     -0.323100
     13 N1         -5.8300   -1.6510    1.9070 ny        1 F68     -0.651800
     14 C1         -6.7520   -0.6960    2.6560 c3        1 F68      0.346300
     15 O5         -5.8930    0.3350    3.0890 os        1 F68     -0.495600
     16 C5         -6.5450    1.4140    3.7970 c3        1 F68      0.135100
     17 C6         -5.3600    2.3260    4.1460 c3        1 F68      0.135400
     18 O6         -4.5650    2.4750    2.9780 oh        1 F68     -0.660800
     19 C4         -7.2890    0.8690    5.0250 c3        1 F68      0.091100
     20 O4         -8.0790    1.9410    5.4990 oh        1 F68     -0.576800
     21 C3         -8.2190   -0.2960    4.6150 c3        1 F68      0.082100
     22 O3         -8.7260   -0.9400    5.7650 oh        1 F68     -0.582800
     23 C2         -7.4100   -1.3840    3.8780 c3        1 F68      0.118100
     24 O2         -8.2090   -2.4130    3.3450 oh        1 F68     -0.617800
     25 H10        -0.3930   -2.0610    2.2600 ha        1 F68      0.156500
     26 H11         1.8480   -0.9800    2.3490 ha        1 F68      0.183500
     27 H15         3.1770    1.0370    1.7750 hc        1 F68      0.090033
     28 H15A        2.3930    2.6780    1.7400 hc        1 F68      0.090033
     29 H15B        2.6810    1.8390    3.3230 hc        1 F68      0.090033
     30 H13        -0.0080    2.9280    2.0400 ha        1 F68      0.183500
     31 H14        -2.2420    1.8900    1.9740 ha        1 F68      0.156500
     32 HN2        -3.4920    0.3610    0.4550 hn        1 F68      0.517300
     33 HN1        -6.4330   -2.3560    1.4380 hn        1 F68      0.516300
     34 H1         -7.5280   -0.3230    1.9190 hx        1 F68      0.136700
     35 H5         -7.2620    1.9240    3.0960 h1        1 F68      0.095700
     36 H6         -5.7560    3.3010    4.5340 h1        1 F68      0.098700
     37 H6A        -4.6980    1.8420    4.9120 h1        1 F68      0.098700
     38 HO6        -4.7160    3.3630    2.6270 ho        1 F68      0.444000
     39 H4         -6.5620    0.5130    5.8060 h1        1 F68      0.086700
     40 HO4        -8.2400    1.7900    6.4420 ho        1 F68      0.446000
     41 H3         -9.0530    0.0870    3.9640 h1        1 F68      0.088700
     42 HO3        -9.4990   -0.4390    6.0660 ho        1 F68      0.451000
     43 H2         -6.6370   -1.8140    4.5770 h1        1 F68      0.096700
     44 HO2        -8.8450   -2.6830    4.0310 ho        1 F68      0.484000
     45 H22        -4.2120    0.6670    1.9480 hn        1 F68      0.517300
     46 H12        -5.2100   -2.1400    2.5820 hn        1 F68      0.516300
@<TRIPOS>BOND
     1    1    2 ar  
     2    1    7 ar  
     3    1   25 1   
     4    2    3 ar  
     5    2   26 1   
     6    3    4 1   
     7    3    5 ar  
     8    4   27 1   
     9    4   28 1   
    10    4   29 1   
    11    5    6 ar  
    12    5   30 1   
    13    6    7 ar  
    14    6   31 1   
    15    7    8 1   
    16    8    9 2   
    17    8   10 1   
    18   10   11 1   
    19   10   32 1   
    20   10   45 1   
    21   11   12 2   
    22   11   13 1   
    23   13   14 1   
    24   13   33 1   
    25   13   46 1   
    26   14   15 1   
    27   14   23 1   
    28   14   34 1   
    29   15   16 1   
    30   16   17 1   
    31   16   19 1   
    32   16   35 1   
    33   17   18 1   
    34   17   36 1   
    35   17   37 1   
    36   18   38 1   
    37   19   20 1   
    38   19   21 1   
    39   19   39 1   
    40   20   40 1   
    41   21   22 1   
    42   21   23 1   
    43   21   41 1   
    44   22   42 1   
    45   23   24 1   
    46   23   43 1   
    47   24   44 1   
@<TRIPOS>SUBSTRUCTURE
     1 F68         1 TEMP              0 ****  ****    0 ROOT
