@<TRIPOS>MOLECULE
F69
   23    24     1     0     0
SMALL
bcc


@<TRIPOS>ATOM
      1 C1          0.0450   -0.1010   -0.0350 ca        1 F69     -0.018000
      2 C2          1.4310   -0.3120   -0.0040 ca        1 F69     -0.116000
      3 C3          2.1160   -0.3430    1.2090 ca        1 F69     -0.132000
      4 C4          1.4230   -0.1630    2.4050 ca        1 F69     -0.127000
      5 C5          0.0450    0.0460    2.3870 ca        1 F69     -0.107000
      6 C6         -0.6520    0.0790    1.1750 ca        1 F69     -0.066300
      7 C7         -0.6390   -0.0680   -1.3110 cc        1 F69     -0.070100
      8 C8         -1.1930    1.0440   -1.9200 cd        1 F69     -0.149000
      9 C9         -1.7740    0.7230   -3.1850 cd        1 F69     -0.158000
     10 C10        -1.6370   -0.6160   -3.4820 cc        1 F69     -0.173100
     11 S11        -0.8350   -1.4390   -2.2740 ss        1 F69      0.026200
     12 C12        -2.1310    0.2890    1.1440 c3        1 F69      0.173700
     13 O13        -2.5990    0.5810    2.4530 oh        1 F69     -0.602800
     14 H2          1.9800   -0.4480   -0.9480 ha        1 F69      0.136000
     15 H3          3.2030   -0.5070    1.2190 ha        1 F69      0.132000
     16 H4          1.9610   -0.1860    3.3640 ha        1 F69      0.133000
     17 H5         -0.5070    0.1900    3.3300 ha        1 F69      0.156000
     18 H8         -1.1870    2.0530   -1.5020 ha        1 F69      0.157000
     19 H9         -2.2600    1.4630   -3.8240 ha        1 F69      0.153000
     20 H10        -1.9960   -1.1030   -4.3870 h4        1 F69      0.171000
     21 H12        -2.6350   -0.6420    0.7630 h1        1 F69      0.038200
     22 H12A       -2.3780    1.1430    0.4530 h1        1 F69      0.038200
     23 HO13       -3.5490    0.7220    2.3710 ho        1 F69      0.403000
@<TRIPOS>BOND
     1    1    2 ar  
     2    1    6 ar  
     3    1    7 1   
     4    2    3 ar  
     5    2   14 1   
     6    3    4 ar  
     7    3   15 1   
     8    4    5 ar  
     9    4   16 1   
    10    5    6 ar  
    11    5   17 1   
    12    6   12 1   
    13    7    8 2   
    14    7   11 1   
    15    8    9 1   
    16    8   18 1   
    17    9   10 2   
    18    9   19 1   
    19   10   11 1   
    20   10   20 1   
    21   12   13 1   
    22   12   21 1   
    23   12   22 1   
    24   13   23 1   
@<TRIPOS>SUBSTRUCTURE
     1 F69         1 TEMP              0 ****  ****    0 ROOT
