@<TRIPOS>MOLECULE
F69
   23    24     1     0     0
SMALL
bcc


@<TRIPOS>ATOM
      1 C1          0.4560    0.6930   -0.1210 ca        1 F69     -0.018000
      2 C2          1.0080    1.9160   -0.5310 ca        1 F69     -0.116000
      3 C3          2.3880    2.0710   -0.6320 ca        1 F69     -0.132000
      4 C4          3.2340    1.0060   -0.3240 ca        1 F69     -0.127000
      5 C5          2.6970   -0.2130    0.0830 ca        1 F69     -0.107000
      6 C6          1.3130   -0.3800    0.1870 ca        1 F69     -0.066300
      7 C7         -0.9830    0.5630   -0.0200 cc        1 F69     -0.070100
      8 C8         -1.7200    0.4510    1.1450 cd        1 F69     -0.149000
      9 C9         -3.1210    0.3590    0.8810 cd        1 F69     -0.158000
     10 C10        -3.3870    0.4060   -0.4700 cc        1 F69     -0.173100
     11 S11        -1.9930    0.5550   -1.3710 ss        1 F69      0.026200
     12 C12         0.7250   -1.6870    0.6100 c3        1 F69      0.173700
     13 O13         1.7650   -2.5740    0.9990 oh        1 F69     -0.602800
     14 H2          0.3420    2.7590   -0.7690 ha        1 F69      0.136000
     15 H3          2.8080    3.0360   -0.9530 ha        1 F69      0.132000
     16 H4          4.3240    1.1270   -0.4020 ha        1 F69      0.133000
     17 H5          3.3610   -1.0580    0.3280 ha        1 F69      0.156000
     18 H8         -1.2980    0.4420    2.1530 ha        1 F69      0.157000
     19 H9         -3.8710    0.2670    1.6690 ha        1 F69      0.153000
     20 H10        -4.3770    0.3540   -0.9210 h4        1 F69      0.171000
     21 H12         0.0220   -1.5260    1.4740 h1        1 F69      0.038200
     22 H12A        0.1490   -2.1360   -0.2470 h1        1 F69      0.038200
     23 HO13        1.3310   -3.3900    1.2740 ho        1 F69      0.403000
@<TRIPOS>BOND
     1    1    2 ar  
     2    1    6 ar  
     3    1    7 1   
     4    2    3 ar  
     5    2   14 1   
     6    3    4 ar  
     7    3   15 1   
     8    4    5 ar  
     9    4   16 1   
    10    5    6 ar  
    11    5   17 1   
    12    6   12 1   
    13    7    8 2   
    14    7   11 1   
    15    8    9 1   
    16    8   18 1   
    17    9   10 2   
    18    9   19 1   
    19   10   11 1   
    20   10   20 1   
    21   12   13 1   
    22   12   21 1   
    23   12   22 1   
    24   13   23 1   
@<TRIPOS>SUBSTRUCTURE
     1 F69         1 TEMP              0 ****  ****    0 ROOT
