@<TRIPOS>MOLECULE
F69
   23    24     1     0     0
SMALL
bcc


@<TRIPOS>ATOM
      1 C1          0.0270   -0.1510   -0.0280 ca        1 F69     -0.018000
      2 C2          1.3930   -0.4680    0.0090 ca        1 F69     -0.116000
      3 C3          2.0780   -0.5080    1.2210 ca        1 F69     -0.132000
      4 C4          1.4060   -0.2310    2.4100 ca        1 F69     -0.127000
      5 C5          0.0490    0.0840    2.3860 ca        1 F69     -0.107000
      6 C6         -0.6490    0.1270    1.1760 ca        1 F69     -0.066300
      7 C7         -0.6580   -0.1110   -1.3040 cc        1 F69     -0.070100
      8 C8         -1.1260    1.0180   -1.9530 cd        1 F69     -0.149000
      9 C9         -1.7360    0.6970   -3.2040 cd        1 F69     -0.158000
     10 C10        -1.7040   -0.6580   -3.4510 cc        1 F69     -0.173100
     11 S11        -0.9650   -1.4970   -2.2150 ss        1 F69      0.026200
     12 C12        -2.1070    0.4500    1.1380 c3        1 F69      0.173700
     13 O13        -2.5450    0.8270    2.4370 oh        1 F69     -0.602800
     14 H2          1.9250   -0.6810   -0.9300 ha        1 F69      0.136000
     15 H3          3.1490   -0.7560    1.2360 ha        1 F69      0.132000
     16 H4          1.9450   -0.2600    3.3690 ha        1 F69      0.133000
     17 H5         -0.4870    0.3040    3.3240 ha        1 F69      0.156000
     18 H8         -1.0390    2.0380   -1.5720 ha        1 F69      0.157000
     19 H9         -2.1640    1.4500   -3.8690 ha        1 F69      0.153000
     20 H10        -2.1050   -1.1480   -4.3380 h4        1 F69      0.171000
     21 H12        -2.6840   -0.4530    0.7940 h1        1 F69      0.038200
     22 H12A       -2.2900    1.2940    0.4160 h1        1 F69      0.038200
     23 HO13       -3.4820    1.0380    2.3510 ho        1 F69      0.403000
@<TRIPOS>BOND
     1    1    2 ar  
     2    1    6 ar  
     3    1    7 1   
     4    2    3 ar  
     5    2   14 1   
     6    3    4 ar  
     7    3   15 1   
     8    4    5 ar  
     9    4   16 1   
    10    5    6 ar  
    11    5   17 1   
    12    6   12 1   
    13    7    8 2   
    14    7   11 1   
    15    8    9 1   
    16    8   18 1   
    17    9   10 2   
    18    9   19 1   
    19   10   11 1   
    20   10   20 1   
    21   12   13 1   
    22   12   21 1   
    23   12   22 1   
    24   13   23 1   
@<TRIPOS>SUBSTRUCTURE
     1 F69         1 TEMP              0 ****  ****    0 ROOT
