@<TRIPOS>MOLECULE
F6A
   39    33     1     0     0
SMALL
bcc


@<TRIPOS>ATOM
      1 N           0.5580   -0.9930   -0.7510 n         1 F6A     -0.316000
      2 O          -1.4020   -1.0100   -1.9220 o         1 F6A     -0.331000
      3 C1          1.6350    1.5580   -3.6950 c3        1 F6A      0.462000
      4 F1          2.5800    1.7600   -4.6220 f         1 F6A     -0.161333
      5 C2          0.8590    0.3040   -4.0300 c2        1 F6A     -0.136000
      6 F2          0.8020    2.6060   -3.6720 f         1 F6A     -0.161333
      7 C3          0.5240   -0.8160   -3.2850 c2        1 F6A     -0.073000
      8 F3          2.2110    1.4190   -2.4940 f         1 F6A     -0.161333
      9 C4          0.0950   -1.9700   -3.9210 c1        1 F6A     -0.092000
     10 C5          0.0000   -2.0040   -5.3040 c1        1 F6A     -0.122125
     11 C6          0.3350   -0.8850   -6.0500 c1        1 F6A     -0.122125
     12 C7          0.7640    0.2690   -5.4130 c1        1 F6A     -0.092000
     13 C8         -0.1890   -0.9570   -1.9570 c2        1 F6A      0.348000
     14 C9         -0.1130   -1.0900    0.4970 c2        1 F6A      0.074000
     15 C10         0.0860   -0.1220    1.4680 c2        1 F6A     -0.167000
     16 C11        -0.5590   -0.2240    2.6910 c1        1 F6A     -0.012000
     17 C12        -1.4010   -1.2960    2.9430 c1        1 F6A     -0.122125
     18 C13        -1.5990   -2.2650    1.9720 c1        1 F6A     -0.122125
     19 C14        -0.9550   -2.1620    0.7490 c1        1 F6A     -0.150000
     20 C15        -0.3850    0.7620    3.6510 c1        1 F6A     -0.040000
     21 C16        -1.2060    1.8790    3.6540 c1        1 F6A     -0.122125
     22 C17        -1.0350    2.8630    4.6150 c1        1 F6A     -0.122125
     23 C18        -0.0430    2.7300    5.5740 c1        1 F6A     -0.122125
     24 C19         0.7780    1.6130    5.5710 c1        1 F6A     -0.122125
     25 C20         0.6070    0.6290    4.6100 c1        1 F6A     -0.117000
     26 HN          1.4700   -0.9820   -0.7780 hn        1 F6A      0.240000
     27 H4         -0.1410   -2.7580   -3.3960 ha        1 F6A      0.162000
     28 H5         -0.3020   -2.8170   -5.7520 ha        1 F6A      0.137625
     29 H6          0.2680   -0.9090   -7.0230 ha        1 F6A      0.137625
     30 H7          1.0000    1.0580   -5.9380 ha        1 F6A      0.158000
     31 H10         0.6790    0.6330    1.2910 ha        1 F6A      0.137000
     32 H12        -1.8550   -1.3680    3.8050 ha        1 F6A      0.137625
     33 H13        -2.1930   -3.0190    2.1490 ha        1 F6A      0.137625
     34 H14        -1.0950   -2.8440    0.0650 ha        1 F6A      0.172000
     35 H16        -1.9050    1.9720    2.9790 ha        1 F6A      0.137625
     36 H17        -1.6130    3.6490    4.6170 ha        1 F6A      0.137625
     37 H18         0.0780    3.4230    6.2510 ha        1 F6A      0.137625
     38 H19         1.4770    1.5200    6.2460 ha        1 F6A      0.137625
     39 H20         1.1850   -0.1570    4.6080 ha        1 F6A      0.135000
@<TRIPOS>BOND
     1    1   13 1   
     2    1   14 1   
     3    1   26 1   
     4    2   13 1   
     5    3    4 1   
     6    3    5 1   
     7    3    6 1   
     8    3    8 1   
     9    5    7 1   
    10    5   12 1   
    11    7    9 1   
    12    7   13 1   
    13    9   27 1   
    14   10   11 1   
    15   10   28 1   
    16   11   29 1   
    17   12   30 1   
    18   14   15 1   
    19   14   19 1   
    20   15   16 1   
    21   15   31 1   
    22   17   18 1   
    23   17   32 1   
    24   18   33 1   
    25   19   34 1   
    26   20   25 1   
    27   21   22 1   
    28   21   35 1   
    29   22   36 1   
    30   23   24 1   
    31   23   37 1   
    32   24   38 1   
    33   25   39 1   
@<TRIPOS>SUBSTRUCTURE
     1 F6A         1 TEMP              0 ****  ****    0 ROOT
