@<TRIPOS>MOLECULE
F6A
   39    41     1     0     0
SMALL
bcc


@<TRIPOS>ATOM
      1 N          -0.4190   -0.2480   -0.6850 n         1 F6A     -0.462100
      2 O          -1.8210    0.7440   -2.2480 o         1 F6A     -0.571100
      3 F1         -3.2760    0.1270    2.7930 f         1 F6A     -0.231967
      4 C2         -3.2120   -0.8670    0.5630 ca        1 F6A     -0.143300
      5 F2         -2.1670    1.2250    1.2980 f         1 F6A     -0.231967
      6 C3         -2.7870   -0.8530   -0.7700 ca        1 F6A     -0.094600
      7 F3         -1.3590   -0.6160    2.1210 f         1 F6A     -0.231967
      8 C4         -3.4760   -1.6170   -1.7220 ca        1 F6A     -0.092000
      9 C5         -4.5650   -2.4000   -1.3460 ca        1 F6A     -0.105000
     10 C6         -4.9800   -2.4200   -0.0150 ca        1 F6A     -0.116000
     11 C7         -4.3090   -1.6530    0.9350 ca        1 F6A     -0.092000
     12 C8         -1.6430   -0.0300   -1.2910 c         1 F6A      0.674700
     13 C9          0.8100    0.3560   -1.0080 ca        1 F6A      0.067600
     14 C10         1.9540   -0.0370   -0.2720 ca        1 F6A     -0.167000
     15 C11         3.2050    0.5190   -0.5480 cp        1 F6A     -0.012000
     16 C12         3.3320    1.4760   -1.5640 ca        1 F6A     -0.143000
     17 C13         2.2110    1.8630   -2.2910 ca        1 F6A     -0.108000
     18 C14         0.9560    1.3200   -2.0270 ca        1 F6A     -0.150000
     19 C15         4.3770    0.1030    0.2240 cp        1 F6A     -0.039000
     20 C16         5.3160    1.0530    0.6500 ca        1 F6A     -0.117500
     21 C17         6.4320    0.6570    1.3850 ca        1 F6A     -0.131000
     22 C18         6.6240   -0.6890    1.7000 ca        1 F6A     -0.127000
     23 C19         5.6940   -1.6390    1.2770 ca        1 F6A     -0.131000
     24 C20         4.5760   -1.2470    0.5450 ca        1 F6A     -0.117500
     25 HN         -0.4000   -0.8630    0.1010 hn        1 F6A      0.326500
     26 H4         -3.1520   -1.5770   -2.7750 ha        1 F6A      0.162000
     27 H5         -5.0970   -2.9980   -2.1020 ha        1 F6A      0.148000
     28 H6         -5.8410   -3.0360    0.2880 ha        1 F6A      0.147000
     29 H7         -4.6460   -1.6590    1.9850 ha        1 F6A      0.158000
     30 H10         1.8700   -0.7790    0.5390 ha        1 F6A      0.137000
     31 H12         4.3170    1.9110   -1.7880 ha        1 F6A      0.137000
     32 H13         2.3110    2.6140   -3.0900 ha        1 F6A      0.136000
     33 H14         0.0890    1.6550   -2.6190 ha        1 F6A      0.173000
     34 H16         5.1650    2.1160    0.4080 ha        1 F6A      0.135500
     35 H17         7.1620    1.4090    1.7190 ha        1 F6A      0.131500
     36 H18         7.5050   -0.9990    2.2790 ha        1 F6A      0.132000
     37 H19         5.8440   -2.7010    1.5210 ha        1 F6A      0.131500
     38 H20         3.8480   -2.0010    0.2080 ha        1 F6A      0.135500
     39 C1         -2.5250   -0.0490    1.6560 c3        1 F6A      0.683200
@<TRIPOS>BOND
     1    1   12 1   
     2    1   13 1   
     3    1   25 1   
     4    2   12 2   
     5    3   39 1   
     6    4    6 ar  
     7    4   11 ar  
     8    4   39 1   
     9    5   39 1   
    10    6    8 ar  
    11    6   12 1   
    12    7   39 1   
    13    8    9 ar  
    14    8   26 1   
    15    9   10 ar  
    16    9   27 1   
    17   10   11 ar  
    18   10   28 1   
    19   11   29 1   
    20   13   14 ar  
    21   13   18 ar  
    22   14   15 ar  
    23   14   30 1   
    24   15   16 ar  
    25   15   19 1   
    26   16   17 ar  
    27   16   31 1   
    28   17   18 ar  
    29   17   32 1   
    30   18   33 1   
    31   19   20 ar  
    32   19   24 ar  
    33   20   21 ar  
    34   20   34 1   
    35   21   22 ar  
    36   21   35 1   
    37   22   23 ar  
    38   22   36 1   
    39   23   24 ar  
    40   23   37 1   
    41   24   38 1   
@<TRIPOS>SUBSTRUCTURE
     1 F6A         1 TEMP              0 ****  ****    0 ROOT
