@<TRIPOS>MOLECULE
F6A
   40    42     1     0     0
SMALL
bcc


@<TRIPOS>ATOM
      1 N           1.6550    1.2920    2.7840 nh        1 F6A     -0.829600
      2 O           2.4630   -1.4480    1.8360 o         1 F6A     -0.480300
      3 F1          0.6610    2.1530   -0.8550 f         1 F6A     -0.232300
      4 C2          1.4820   -0.0640   -1.3840 ce        1 F6A     -0.216300
      5 F2          2.4000    2.0540   -2.1510 f         1 F6A     -0.232300
      6 C3          1.7990   -1.1450   -0.4290 ce        1 F6A     -0.189200
      7 F3          2.5910    1.6310   -0.0340 f         1 F6A     -0.232300
      8 C4          2.3650   -2.2640   -0.9700 c2        1 F6A     -0.029200
      9 C5          2.4330   -2.5370   -2.4480 c3        1 F6A     -0.054000
     10 C6          1.3560   -1.7530   -3.1590 c2        1 F6A     -0.149300
     11 C7          1.1910   -0.5790   -2.5750 c1        1 F6A      0.066200
     12 C8          1.6410   -1.0160    1.0240 ce        1 F6A      0.566500
     13 C9          0.4470    0.7880    2.3620 cf        1 F6A      0.144000
     14 C10        -0.7640    1.3500    2.7870 c2        1 F6A     -0.061200
     15 C11        -2.0690    0.7430    2.5010 c3        1 F6A     -0.012100
     16 C12        -2.0400   -0.4070    1.5850 c2        1 F6A      0.046800
     17 C13        -0.8490   -0.9390    1.1530 cf        1 F6A     -0.170000
     18 C14         0.3810   -0.3690    1.5150 cf        1 F6A      0.055000
     19 C15        -3.1060    1.7470    2.1360 c2        1 F6A     -0.180500
     20 C16        -3.4700    2.8600    3.0830 c3        1 F6A     -0.022000
     21 C17        -4.9670    3.0440    3.0880 c2        1 F6A     -0.129200
     22 C18        -5.7770    2.6600    2.0730 ce        1 F6A     -0.152000
     23 C19        -5.1140    2.2310    0.8310 ce        1 F6A     -0.073100
     24 C20        -3.9300    1.6820    1.0980 c1        1 F6A     -0.048800
     25 HN          1.6740    2.2120    3.1580 hn        1 F6A      0.449300
     26 H4          2.8060   -3.0410   -0.3200 ha        1 F6A      0.172000
     27 H5          3.4720   -2.3070   -2.8140 hc        1 F6A      0.113700
     28 H6          2.2420   -3.6280   -2.6380 hc        1 F6A      0.113700
     29 H7          0.7770   -2.1990   -3.9730 ha        1 F6A      0.187000
     30 H10        -0.7790    2.2770    3.3890 ha        1 F6A      0.179000
     31 H12        -2.4040    0.2880    3.5150 hc        1 F6A      0.188700
     32 H13        -3.0140   -0.8240    1.2650 ha        1 F6A      0.195000
     33 H14        -0.8480   -1.8200    0.4840 ha        1 F6A      0.186000
     34 H16        -3.1270    2.5800    4.1150 hc        1 F6A      0.082200
     35 H17        -2.9890    3.8400    2.8150 hc        1 F6A      0.082200
     36 H18        -5.3670    3.5590    3.9760 ha        1 F6A      0.159000
     37 H19        -6.8690    2.7650    2.0920 ha        1 F6A      0.168000
     38 H20        -5.5410    2.4670   -0.1490 ha        1 F6A      0.183000
     39 HN3         2.4850    0.9730    2.3350 hn        1 F6A      0.449300
     40 C1          1.7800    1.3980   -1.1230 c3        1 F6A      0.708100
@<TRIPOS>BOND
     1    1   13 1   
     2    1   25 1   
     3    1   39 1   
     4    2   12 1   
     5    3   40 1   
     6    4    6 1   
     7    4   11 2   
     8    4   40 1   
     9    5   40 1   
    10    6    8 2   
    11    6   12 1   
    12    7   40 1   
    13    8    9 1   
    14    8   26 1   
    15    9   10 1   
    16    9   27 1   
    17    9   28 1   
    18   10   11 2   
    19   10   29 1   
    20   12   18 2   
    21   13   14 2   
    22   13   18 1   
    23   14   15 1   
    24   14   30 1   
    25   15   16 1   
    26   15   19 1   
    27   15   31 1   
    28   16   17 2   
    29   16   32 1   
    30   17   18 1   
    31   17   33 1   
    32   19   20 1   
    33   19   24 2   
    34   20   21 1   
    35   20   34 1   
    36   20   35 1   
    37   21   22 2   
    38   21   36 1   
    39   22   23 1   
    40   22   37 1   
    41   23   24 2   
    42   23   38 1   
@<TRIPOS>SUBSTRUCTURE
     1 F6A         1 TEMP              0 ****  ****    0 ROOT
