@<TRIPOS>MOLECULE
F6A
   39    41     1     0     0
SMALL
bcc


@<TRIPOS>ATOM
      1 N           0.2910   -0.2220    0.5070 n         1 F6A     -0.314000
      2 O           1.4540   -2.2170    0.7330 o         1 F6A     -0.313000
      3 F1          3.9360    2.2530   -0.4860 f         1 F6A     -0.160667
      4 C2          2.7430    0.3070   -1.3540 ca        1 F6A     -0.134000
      5 F2          3.0480    0.9470    0.9910 f         1 F6A     -0.160667
      6 C3          1.9810   -0.8500   -1.1490 ca        1 F6A     -0.079000
      7 F3          1.7880    2.2360   -0.2170 f         1 F6A     -0.160667
      8 C4          1.9120   -1.8190   -2.1570 ca        1 F6A     -0.090000
      9 C5          2.5800   -1.6290   -3.3650 ca        1 F6A     -0.103000
     10 C6          3.3310   -0.4720   -3.5710 ca        1 F6A     -0.112000
     11 C7          3.4150    0.4910   -2.5670 ca        1 F6A     -0.089000
     12 C8          1.2430   -1.1590    0.1190 c2        1 F6A      0.348000
     13 C9         -0.5620   -0.3020    1.6090 c2        1 F6A      0.100000
     14 C10        -1.4860    0.8690    1.7780 c3        1 F6A     -0.175000
     15 C11        -2.5550    0.7090    2.7970 c2        1 F6A      0.173000
     16 C12        -2.4500   -0.3530    3.7440 c2        1 F6A     -0.235000
     17 C13        -1.5040   -1.3230    3.6000 c2        1 F6A     -0.001000
     18 C14        -0.5780   -1.3330    2.5140 c2        1 F6A     -0.240000
     19 C15        -3.6030    1.6270    2.7460 c2        1 F6A     -0.179000
     20 C16        -4.6020    1.7530    3.7700 c2        1 F6A     -0.083000
     21 C17        -5.6210    2.6530    3.6180 c2        1 F6A     -0.189000
     22 C18        -5.6800    3.4900    2.4660 c2        1 F6A     -0.065000
     23 C19        -4.7000    3.4150    1.5050 c2        1 F6A     -0.187000
     24 C20        -3.7100    2.4180    1.5670 c1        1 F6A     -0.201000
     25 HN          0.2110    0.6070   -0.0470 hn        1 F6A      0.250000
     26 H4          1.3320   -2.7400   -1.9790 ha        1 F6A      0.162000
     27 H5          2.5180   -2.3960   -4.1530 ha        1 F6A      0.150000
     28 H6          3.8620   -0.3170   -4.5230 ha        1 F6A      0.150000
     29 H7          4.0190    1.4000   -2.7250 ha        1 F6A      0.160000
     30 H10        -2.0030    1.1730    0.8040 hc        1 F6A      0.177000
     31 H12        -0.8670    1.7720    2.0650 hc        1 F6A      0.177000
     32 H13        -1.4420   -2.1560    4.3220 ha        1 F6A      0.141000
     33 H14         0.1070   -2.1920    2.4370 ha        1 F6A      0.178000
     34 H16        -3.1730   -0.3950    4.5730 ha        1 F6A      0.148000
     35 H17        -4.5190    1.1580    4.6920 ha        1 F6A      0.118000
     36 H18        -6.3960    2.7630    4.3900 ha        1 F6A      0.126000
     37 H19        -6.5280    4.1860    2.3700 ha        1 F6A      0.121000
     38 H20        -4.7070    4.0940    0.6390 ha        1 F6A      0.132000
     39 C1          2.8780    1.3990   -0.2930 c3        1 F6A      0.461000
@<TRIPOS>BOND
     1    1   12 1   
     2    1   13 1   
     3    1   25 1   
     4    2   12 1   
     5    3   39 1   
     6    4    6 1   
     7    4   11 1   
     8    4   39 1   
     9    5   39 1   
    10    6    8 1   
    11    6   12 1   
    12    7   39 1   
    13    8    9 1   
    14    8   26 1   
    15    9   10 1   
    16    9   27 1   
    17   10   11 1   
    18   10   28 1   
    19   11   29 1   
    20   13   14 1   
    21   13   18 1   
    22   14   15 1   
    23   14   30 1   
    24   14   31 1   
    25   15   16 1   
    26   15   19 1   
    27   16   17 1   
    28   16   34 1   
    29   17   18 1   
    30   17   32 1   
    31   18   33 1   
    32   19   20 1   
    33   19   24 1   
    34   20   21 1   
    35   20   35 1   
    36   21   22 1   
    37   21   36 1   
    38   22   23 1   
    39   22   37 1   
    40   23   24 1   
    41   23   38 1   
@<TRIPOS>SUBSTRUCTURE
     1 F6A         1 TEMP              0 ****  ****    0 ROOT
