@<TRIPOS>MOLECULE
F6B
   34    29     1     0     0
SMALL
bcc


@<TRIPOS>ATOM
      1 C01         1.0320    0.5470   -0.3480 c1        1 F6B     -0.135000
      2 C02         2.4240    0.4790   -0.3490 c1        1 F6B     -0.027000
      3 C03         3.1180    0.4470   -1.5540 c1        1 F6B     -0.806000
      4 C04         2.4240    0.4830   -2.7560 c1        1 F6B     -0.097250
      5 C05         1.0330    0.5500   -2.7560 c1        1 F6B     -0.097250
      6 C06         0.3380    0.5820   -1.5500 c1        1 F6B     -0.058000
      7 C07        -1.2040    0.7230   -1.5500 c2        1 F6B      0.334000
      8 O08        -1.8140    0.7540   -2.6070 o         1 F6B     -0.345000
      9 N09        -1.9160    0.8640   -0.3010 n         1 F6B     -0.368000
     10 C10        -3.1430    0.1270   -0.0850 c3        1 F6B      0.013000
     11 S11         4.9000    0.2460   -1.5550 s4        1 F6B      2.080800
     12 NP2         5.6370    1.7020   -1.3470 n2        1 F6B     -0.954000
     13 O13         5.3200   -0.6990   -0.5550 o         1 F6B     -0.541900
     14 O14         5.3520   -0.4010   -2.7580 o         1 F6B     -0.541900
     15 C15        -3.0840   -0.5810    1.2830 c2        1 F6B     -0.180000
     16 C16        -2.5020   -1.8380    1.3900 c2        1 F6B      0.135000
     17 C17        -2.4580   -2.4810    2.6190 c1        1 F6B     -0.178000
     18 C18        -2.9950   -1.8680    3.7440 c1        1 F6B     -0.097250
     19 C19        -3.5770   -0.6140    3.6400 c1        1 F6B     -0.097250
     20 C20        -3.6220    0.0320    2.4060 c1        1 F6B      0.112000
     21 F21        -1.9870   -2.4310    0.3040 f         1 F6B     -0.089000
     22 F22        -4.1050    1.2770    2.3200 f         1 F6B     -0.109000
     23 H01C        0.5460    0.5690    0.4970 ha        1 F6B      0.143000
     24 H02C        2.9120    0.4540    0.4970 ha        1 F6B      0.158000
     25 H04C        2.9130    0.4600   -3.6060 ha        1 F6B      0.156000
     26 H05C        0.5470    0.5740   -3.5980 ha        1 F6B      0.156000
     27 H09N       -1.6470    1.4910    0.3090 hn        1 F6B      0.229000
     28 H101       -3.2520   -0.5400   -0.7930 h1        1 F6B      0.123500
     29 H102       -3.9060    0.7490   -0.0990 h1        1 F6B      0.123500
     30 HNP1        5.9750    2.1500   -2.0700 hn        1 F6B      0.244000
     31 HNP2        5.7080    2.0630   -0.5120 hn        1 F6B      0.244000
     32 H17C       -2.0480   -3.3660    2.6940 ha        1 F6B      0.158000
     33 H18C       -2.9630   -2.3220    4.6110 ha        1 F6B      0.156000
     34 H19C       -3.9540   -0.1830    4.4330 ha        1 F6B      0.156000
@<TRIPOS>BOND
     1    1    6 1   
     2    1   23 1   
     3    2    3 1   
     4    2   24 1   
     5    3   11 1   
     6    4    5 1   
     7    4   25 1   
     8    5   26 1   
     9    6    7 1   
    10    7    8 1   
    11    7    9 1   
    12    9   10 1   
    13    9   27 1   
    14   10   15 1   
    15   10   28 1   
    16   10   29 1   
    17   11   13 1   
    18   11   14 1   
    19   12   30 1   
    20   12   31 1   
    21   15   16 1   
    22   15   20 1   
    23   16   17 1   
    24   16   21 1   
    25   17   32 1   
    26   18   19 1   
    27   18   33 1   
    28   19   34 1   
    29   20   22 1   
@<TRIPOS>SUBSTRUCTURE
     1 F6B         1 TEMP              0 ****  ****    0 ROOT
