@<TRIPOS>MOLECULE
F6B
   36    37     1     0     0
SMALL
bcc


@<TRIPOS>ATOM
      1 C01         0.2170   -0.8090    0.3290 ca        1 F6B     -0.096000
      2 C02         1.5960   -0.6180    0.4180 ca        1 F6B      0.011500
      3 C03         2.1550    0.1810    1.4310 ca        1 F6B     -0.460500
      4 C04         1.2860    0.7830    2.3610 ca        1 F6B      0.011500
      5 C05        -0.0930    0.5920    2.2900 ca        1 F6B     -0.096000
      6 C06        -0.6260   -0.2080    1.2730 ca        1 F6B     -0.081600
      7 C07        -2.0870   -0.4090    1.1120 c         1 F6B      0.539700
      8 O08        -2.7000   -0.3820    0.0560 o         1 F6B     -0.359100
      9 N09        -2.8790   -0.6970    2.3540 n4        1 F6B     -0.679800
     10 C10        -3.7730    0.4660    2.7240 c3        1 F6B      0.193100
     11 S11         3.7840    0.2950    1.6090 sy        1 F6B      1.462200
     12 NP2         4.1100    1.7810    0.4950 n4        1 F6B     -0.801500
     13 O13         4.4680   -0.6860    0.9320 o         1 F6B     -0.533800
     14 O14         4.1510    0.8050    2.8320 o         1 F6B     -0.533800
     15 C15        -4.5320    0.1770    3.9630 ca        1 F6B     -0.290300
     16 C16        -4.2920    0.8930    5.1580 ca        1 F6B      0.180400
     17 C17        -5.1120    0.7040    6.2830 ca        1 F6B     -0.152500
     18 C18        -6.1630   -0.2080    6.2240 ca        1 F6B     -0.020000
     19 C19        -6.4070   -0.9540    5.0690 ca        1 F6B     -0.152500
     20 C20        -5.5910   -0.7640    3.9460 ca        1 F6B      0.180400
     21 F21        -3.2620    1.7700    5.2070 f         1 F6B     -0.132900
     22 F22        -5.7870   -1.4900    2.8190 f         1 F6B     -0.132900
     23 H01C       -0.2030   -1.4290   -0.4860 ha        1 F6B      0.188000
     24 H02C        2.2550   -1.1270   -0.3160 ha        1 F6B      0.196000
     25 H04C        1.7010    1.4050    3.1810 ha        1 F6B      0.196000
     26 H05C       -0.7410    1.0910    3.0310 ha        1 F6B      0.188000
     27 H09N       -2.2560   -0.9170    3.1380 hn        1 F6B      0.472800
     28 H101       -4.4790    0.6220    1.8530 hx        1 F6B      0.123200
     29 H102       -3.1220    1.3790    2.8480 hx        1 F6B      0.123200
     30 HNP1        4.7630    1.5300   -0.2540 hn        1 F6B      0.471467
     31 HNP2        3.2760    2.1620    0.0540 hn        1 F6B      0.471467
     32 H17C       -4.9200    1.2860    7.2000 ha        1 F6B      0.191000
     33 H18C       -6.8150   -0.3470    7.1070 ha        1 F6B      0.187000
     34 H19C       -7.2360   -1.6810    5.0290 ha        1 F6B      0.191000
     35 H092       -3.4900   -1.5140    2.1830 hn        1 F6B      0.472800
     36 HP23        4.5460    2.5390    1.0280 hn        1 F6B      0.471467
@<TRIPOS>BOND
     1    1    2 ar  
     2    1    6 ar  
     3    1   23 1   
     4    2    3 ar  
     5    2   24 1   
     6    3    4 ar  
     7    3   11 1   
     8    4    5 ar  
     9    4   25 1   
    10    5    6 ar  
    11    5   26 1   
    12    6    7 1   
    13    7    8 2   
    14    7    9 1   
    15    9   10 1   
    16    9   27 1   
    17    9   35 1   
    18   10   15 1   
    19   10   28 1   
    20   10   29 1   
    21   11   12 1   
    22   11   13 2   
    23   11   14 2   
    24   12   30 1   
    25   12   31 1   
    26   12   36 1   
    27   15   16 ar  
    28   15   20 ar  
    29   16   17 ar  
    30   16   21 1   
    31   17   18 ar  
    32   17   32 1   
    33   18   19 ar  
    34   18   33 1   
    35   19   20 ar  
    36   19   34 1   
    37   20   22 1   
@<TRIPOS>SUBSTRUCTURE
     1 F6B         1 TEMP              0 ****  ****    0 ROOT
