@<TRIPOS>MOLECULE
F6B
   36    37     1     0     0
SMALL
bcc


@<TRIPOS>ATOM
      1 C01        -0.2390    0.3150    0.4010 ca        1 F6B     -0.098000
      2 C02         1.0520   -0.1910    0.2490 ca        1 F6B      0.013000
      3 C03         2.0090   -0.0590    1.2710 ca        1 F6B     -0.461500
      4 C04         1.6300    0.5940    2.4590 ca        1 F6B      0.013000
      5 C05         0.3410    1.0950    2.6280 ca        1 F6B     -0.098000
      6 C06        -0.5950    0.9530    1.5970 ca        1 F6B     -0.077600
      7 C07        -1.9580    1.5270    1.6970 c         1 F6B      0.537700
      8 O08        -2.5020    2.2310    0.8600 o         1 F6B     -0.356100
      9 N09        -2.7480    1.2040    2.9320 ny        1 F6B     -0.679800
     10 C10        -3.7700    0.1200    2.6620 c3        1 F6B      0.195100
     11 S11         3.4860   -0.7670    1.1370 sy        1 F6B      1.462200
     12 NP2         4.4300    0.6490    0.3230 nz        1 F6B     -0.801500
     13 O13         3.5380   -1.7130    0.1420 o         1 F6B     -0.534300
     14 O14         4.1440   -0.8570    2.3400 o         1 F6B     -0.534300
     15 C15        -4.5530   -0.1870    3.8820 ca        1 F6B     -0.290300
     16 C16        -5.4900    0.7500    4.3820 ca        1 F6B      0.180900
     17 C17        -6.3350    0.4270    5.4520 ca        1 F6B     -0.154000
     18 C18        -6.2410   -0.8360    6.0390 ca        1 F6B     -0.020000
     19 C19        -5.3110   -1.7700    5.5890 ca        1 F6B     -0.154000
     20 C20        -4.4620   -1.4470    4.5160 ca        1 F6B      0.180900
     21 F21        -5.5420    1.9770    3.8080 f         1 F6B     -0.130400
     22 F22        -3.5530   -2.3460    4.0770 f         1 F6B     -0.130400
     23 H01C       -0.9690    0.2160   -0.4240 ha        1 F6B      0.186500
     24 H02C        1.3120   -0.7210   -0.6900 ha        1 F6B      0.195500
     25 H04C        2.3590    0.6960    3.2890 ha        1 F6B      0.195500
     26 H05C        0.0900    1.6170    3.5670 ha        1 F6B      0.186500
     27 H09N       -3.2660    2.0470    3.2370 hn        1 F6B      0.471300
     28 H101       -4.4490    0.5150    1.8460 hx        1 F6B      0.123700
     29 H102       -3.2210   -0.7920    2.2900 hx        1 F6B      0.123700
     30 HNP1        5.2230    0.9320    0.9060 hn        1 F6B      0.471467
     31 HNP2        3.8680    1.4800    0.1510 hn        1 F6B      0.471467
     32 H17C       -7.0680    1.1680    5.8150 ha        1 F6B      0.191000
     33 H18C       -6.9150   -1.0970    6.8750 ha        1 F6B      0.186000
     34 H19C       -5.2370   -2.7660    6.0590 ha        1 F6B      0.191000
     35 H092       -2.1290    0.9070    3.6920 hn        1 F6B      0.471300
     36 HP23        4.8140    0.3500   -0.5780 hn        1 F6B      0.471467
@<TRIPOS>BOND
     1    1    2 ar  
     2    1    6 ar  
     3    1   23 1   
     4    2    3 ar  
     5    2   24 1   
     6    3    4 ar  
     7    3   11 1   
     8    4    5 ar  
     9    4   25 1   
    10    5    6 ar  
    11    5   26 1   
    12    6    7 1   
    13    7    8 2   
    14    7    9 1   
    15    9   10 1   
    16    9   27 1   
    17    9   35 1   
    18   10   15 1   
    19   10   28 1   
    20   10   29 1   
    21   11   12 1   
    22   11   13 2   
    23   11   14 2   
    24   12   30 1   
    25   12   31 1   
    26   12   36 1   
    27   15   16 ar  
    28   15   20 ar  
    29   16   17 ar  
    30   16   21 1   
    31   17   18 ar  
    32   17   32 1   
    33   18   19 ar  
    34   18   33 1   
    35   19   20 ar  
    36   19   34 1   
    37   20   22 1   
@<TRIPOS>SUBSTRUCTURE
     1 F6B         1 TEMP              0 ****  ****    0 ROOT
