@<TRIPOS>MOLECULE
F6B
   36    37     1     0     0
SMALL
bcc


@<TRIPOS>ATOM
      1 C01        -0.2400    0.3720    0.4050 ca        1 F6B     -0.098000
      2 C02         1.0390   -0.1540    0.2300 ca        1 F6B      0.013000
      3 C03         2.0020   -0.0810    1.2530 ca        1 F6B     -0.461500
      4 C04         1.6390    0.5350    2.4660 ca        1 F6B      0.013000
      5 C05         0.3610    1.0570    2.6570 ca        1 F6B     -0.098000
      6 C06        -0.5790    0.9730    1.6240 ca        1 F6B     -0.077600
      7 C07        -1.9300    1.5720    1.7500 c         1 F6B      0.537700
      8 O08        -2.4610    2.3170    0.9420 o         1 F6B     -0.356100
      9 N09        -2.7230    1.2200    2.9750 n4        1 F6B     -0.679800
     10 C10        -3.7720    0.1720    2.6670 c3        1 F6B      0.195100
     11 S11         3.4620   -0.8150    1.0880 sy        1 F6B      1.462200
     12 NP2         4.4340    0.6100    0.3240 n4        1 F6B     -0.801500
     13 O13         3.4920   -1.7250    0.0590 o         1 F6B     -0.534300
     14 O14         4.1220   -0.9640    2.2850 o         1 F6B     -0.534300
     15 C15        -4.5580   -0.1630    3.8780 ca        1 F6B     -0.290300
     16 C16        -5.4720    0.7760    4.4160 ca        1 F6B      0.180900
     17 C17        -6.3210    0.4330    5.4770 ca        1 F6B     -0.154000
     18 C18        -6.2560   -0.8540    6.0140 ca        1 F6B     -0.020000
     19 C19        -5.3500   -1.7920    5.5250 ca        1 F6B     -0.154000
     20 C20        -4.4960   -1.4480    4.4620 ca        1 F6B      0.180900
     21 F21        -5.4950    2.0250    3.8900 f         1 F6B     -0.130400
     22 F22        -3.6100   -2.3520    3.9860 f         1 F6B     -0.130400
     23 H01C       -0.9740    0.3190   -0.4210 ha        1 F6B      0.186500
     24 H02C        1.2860   -0.6550   -0.7290 ha        1 F6B      0.195500
     25 H04C        2.3730    0.5910    3.2970 ha        1 F6B      0.195500
     26 H05C        0.1240    1.5490    3.6160 ha        1 F6B      0.186500
     27 H09N       -3.2200    2.0620    3.3140 hn        1 F6B      0.471300
     28 H101       -4.4440    0.6140    1.8700 hx        1 F6B      0.123700
     29 H102       -3.2460   -0.7390    2.2590 hx        1 F6B      0.123700
     30 HNP1        5.2340    0.8540    0.9140 hn        1 F6B      0.471467
     31 HNP2        3.8900    1.4580    0.1850 hn        1 F6B      0.471467
     32 H17C       -7.0350    1.1760    5.8710 ha        1 F6B      0.191000
     33 H18C       -6.9340   -1.1310    6.8420 ha        1 F6B      0.186000
     34 H19C       -5.2980   -2.8070    5.9560 ha        1 F6B      0.191000
     35 H092       -2.1090    0.8790    3.7210 hn        1 F6B      0.471300
     36 HP23        4.8100    0.3370   -0.5890 hn        1 F6B      0.471467
@<TRIPOS>BOND
     1    1    2 ar  
     2    1    6 ar  
     3    1   23 1   
     4    2    3 ar  
     5    2   24 1   
     6    3    4 ar  
     7    3   11 1   
     8    4    5 ar  
     9    4   25 1   
    10    5    6 ar  
    11    5   26 1   
    12    6    7 1   
    13    7    8 2   
    14    7    9 1   
    15    9   10 1   
    16    9   27 1   
    17    9   35 1   
    18   10   15 1   
    19   10   28 1   
    20   10   29 1   
    21   11   12 1   
    22   11   13 2   
    23   11   14 2   
    24   12   30 1   
    25   12   31 1   
    26   12   36 1   
    27   15   16 ar  
    28   15   20 ar  
    29   16   17 ar  
    30   16   21 1   
    31   17   18 ar  
    32   17   32 1   
    33   18   19 ar  
    34   18   33 1   
    35   19   20 ar  
    36   19   34 1   
    37   20   22 1   
@<TRIPOS>SUBSTRUCTURE
     1 F6B         1 TEMP              0 ****  ****    0 ROOT
