@<TRIPOS>MOLECULE
F6B
   34    35     1     0     0
SMALL
bcc


@<TRIPOS>ATOM
      1 C01        -1.7120   -0.6060    1.8740 ca        1 F6B     -0.121000
      2 C02        -1.2810   -0.3920    3.1820 ca        1 F6B     -0.026000
      3 C03         0.0050    0.0920    3.4450 ca        1 F6B     -0.362500
      4 C04         0.8530    0.3690    2.3670 ca        1 F6B     -0.026000
      5 C05         0.4330    0.1660    1.0540 ca        1 F6B     -0.121000
      6 C06        -0.8530   -0.3240    0.8070 ca        1 F6B     -0.078600
      7 C07        -1.3360   -0.5850   -0.5840 c         1 F6B      0.662700
      8 O08        -1.9680   -1.6220   -0.8640 o         1 F6B     -0.587100
      9 N09        -1.1020    0.4030   -1.5210 n         1 F6B     -0.560900
     10 C10        -1.4210    0.2380   -2.9110 c3        1 F6B      0.137300
     11 S11         0.5170    0.3660    5.0390 sy        1 F6B      1.525200
     12 NP2         1.1220   -1.0500    5.4730 n3        1 F6B     -1.026700
     13 O13        -0.6210    0.6460    5.8240 o         1 F6B     -0.655300
     14 O14         1.5500    1.3250    5.0080 o         1 F6B     -0.655300
     15 C15        -0.2280    0.0750   -3.8120 ca        1 F6B     -0.186300
     16 C16        -0.1000   -1.0490   -4.6530 ca        1 F6B      0.158400
     17 C17         1.0010   -1.1800   -5.5220 ca        1 F6B     -0.179000
     18 C18         1.9770   -0.1910   -5.5520 ca        1 F6B     -0.077000
     19 C19         1.8790    0.9320   -4.7350 ca        1 F6B     -0.179000
     20 C20         0.7790    1.0620   -3.8690 ca        1 F6B      0.158400
     21 F21        -1.0420   -2.0200   -4.6410 f         1 F6B     -0.133400
     22 F22         0.6900    2.1600   -3.0780 f         1 F6B     -0.133400
     23 H01C       -2.7190   -1.0040    1.6710 ha        1 F6B      0.153000
     24 H02C       -1.9680   -0.5910    4.0230 ha        1 F6B      0.157500
     25 H04C        1.8630    0.7720    2.5630 ha        1 F6B      0.157500
     26 H05C        1.1230    0.3820    0.2230 ha        1 F6B      0.153000
     27 H09N       -0.5250    1.1740   -1.2780 hn        1 F6B      0.319500
     28 H101       -2.1070   -0.6530   -3.0250 h1        1 F6B      0.084200
     29 H102       -1.9780    1.1630   -3.2490 h1        1 F6B      0.084200
     30 HNP1        2.0720   -1.3000    5.3540 hn        1 F6B      0.449800
     31 HNP2        0.5930   -1.7620    5.9090 hn        1 F6B      0.449800
     32 H17C        1.0760   -2.0680   -6.1660 ha        1 F6B      0.156500
     33 H18C        2.8380   -0.2950   -6.2310 ha        1 F6B      0.147000
     34 H19C        2.6470    1.7180   -4.7580 ha        1 F6B      0.156500
@<TRIPOS>BOND
     1    1    2 ar  
     2    1    6 ar  
     3    1   23 1   
     4    2    3 ar  
     5    2   24 1   
     6    3    4 ar  
     7    3   11 1   
     8    4    5 ar  
     9    4   25 1   
    10    5    6 ar  
    11    5   26 1   
    12    6    7 1   
    13    7    8 2   
    14    7    9 1   
    15    9   10 1   
    16    9   27 1   
    17   10   15 1   
    18   10   28 1   
    19   10   29 1   
    20   11   12 1   
    21   11   13 2   
    22   11   14 2   
    23   12   30 1   
    24   12   31 1   
    25   15   16 ar  
    26   15   20 ar  
    27   16   17 ar  
    28   16   21 1   
    29   17   18 ar  
    30   17   32 1   
    31   18   19 ar  
    32   18   33 1   
    33   19   20 ar  
    34   19   34 1   
    35   20   22 1   
@<TRIPOS>SUBSTRUCTURE
     1 F6B         1 TEMP              0 ****  ****    0 ROOT
