@<TRIPOS>MOLECULE
F6F
   30    30     1     0     0
SMALL
bcc


@<TRIPOS>ATOM
      1 C1         -3.0900    0.0990    0.3480 ca        1 F6F      0.048100
      2 C2         -1.8500    0.7150    0.5340 ca        1 F6F     -0.155000
      3 C3         -0.6820   -0.0350    0.3600 ca        1 F6F     -0.087500
      4 C4         -0.7720   -1.3830   -0.0070 ca        1 F6F     -0.105600
      5 C5         -2.0280   -1.9810   -0.1920 ca        1 F6F     -0.087500
      6 C6         -3.1980   -1.2480   -0.0180 ca        1 F6F     -0.155000
      7 O7         -4.2440    0.8300    0.6730 os        1 F6F     -0.368900
      8 C8         -5.0770    1.2200   -0.3730 c3        1 F6F      0.813700
      9 F9         -5.7370    0.1690   -0.9310 f         1 F6F     -0.235300
     10 F10        -6.0070    2.0380    0.1910 f         1 F6F     -0.235300
     11 F11        -4.4490    1.9050   -1.3620 f         1 F6F     -0.235300
     12 C12         0.4390   -2.2590   -0.1940 c         1 F6F      0.637700
     13 N13         1.6190   -1.6610   -0.4850 n         1 F6F     -0.517900
     14 O14         0.2850   -3.5140   -0.1430 o         1 F6F     -0.726100
     15 C15         2.8650   -2.3800   -0.4650 c3        1 F6F      0.048000
     16 C16         4.0840   -1.4160   -0.4010 c3        1 F6F      0.206400
     17 O17         4.0450   -0.6070    0.7030 os        1 F6F     -0.570200
     18 P18         3.7200    1.0650    0.3970 p5        1 F6F      1.341900
     19 O19         4.1550    1.7440    1.6550 o         1 F6F     -0.917500
     20 O20         4.4980    1.3160   -0.8610 o         1 F6F     -0.917500
     21 O21         2.2130    0.9790    0.1800 o         1 F6F     -0.917500
     22 H2         -1.7890    1.7740    0.8210 ha        1 F6F      0.136000
     23 H3          0.3120    0.4730    0.5080 ha        1 F6F      0.213500
     24 H5         -2.0720   -3.0470   -0.4670 ha        1 F6F      0.213500
     25 H6         -4.1850   -1.7050   -0.1630 ha        1 F6F      0.136000
     26 H13         1.7400   -0.6310   -0.3450 hn        1 F6F      0.411500
     27 H151        2.9410   -3.0110   -1.3950 h1        1 F6F      0.007700
     28 H152        2.8940   -3.0770    0.4190 h1        1 F6F      0.007700
     29 H161        4.1380   -0.8060   -1.3490 h1        1 F6F      0.004700
     30 H162        4.9920   -2.0890   -0.3480 h1        1 F6F      0.004700
@<TRIPOS>BOND
     1    1    2 ar  
     2    1    6 ar  
     3    1    7 1   
     4    2    3 ar  
     5    2   22 1   
     6    3    4 ar  
     7    3   23 1   
     8    4    5 ar  
     9    4   12 1   
    10    5    6 ar  
    11    5   24 1   
    12    6   25 1   
    13    7    8 1   
    14    8    9 1   
    15    8   10 1   
    16    8   11 1   
    17   12   13 1   
    18   12   14 2   
    19   13   15 1   
    20   13   26 1   
    21   15   16 1   
    22   15   27 1   
    23   15   28 1   
    24   16   17 1   
    25   16   29 1   
    26   16   30 1   
    27   17   18 1   
    28   18   19 1   
    29   18   20 1   
    30   18   21 1   
@<TRIPOS>SUBSTRUCTURE
     1 F6F         1 TEMP              0 ****  ****    0 ROOT
