@<TRIPOS>MOLECULE
F6F
   31    31     1     0     0
SMALL
bcc


@<TRIPOS>ATOM
      1 C1          0.4140    0.0420   -0.0500 ca        1 F6F      0.076100
      2 C2          1.7250    0.4920    0.1270 ca        1 F6F     -0.145000
      3 C3          2.3050    0.4180    1.3960 ca        1 F6F     -0.081500
      4 C4          1.5680   -0.1030    2.4660 ca        1 F6F     -0.124600
      5 C5          0.2510   -0.5430    2.2710 ca        1 F6F     -0.081500
      6 C6         -0.3360   -0.4830    1.0110 ca        1 F6F     -0.145000
      7 O7         -0.2460    0.2270   -1.2710 os        1 F6F     -0.372900
      8 C8          0.1330   -0.5860   -2.3440 c3        1 F6F      0.817700
      9 F9          0.0340   -1.9110   -2.0680 f         1 F6F     -0.223967
     10 F10        -0.7420   -0.2840   -3.3390 f         1 F6F     -0.223967
     11 F11         1.3900   -0.3200   -2.7790 f         1 F6F     -0.223967
     12 C12         2.1210   -0.1910    3.8560 c         1 F6F      0.656700
     13 N13         3.4760   -0.3590    4.0010 ns        1 F6F     -0.534900
     14 O14         1.3420   -0.1910    4.8410 o         1 F6F     -0.655100
     15 C15         4.1000   -0.2120    5.2920 c3        1 F6F      0.056000
     16 C16         5.6100    0.0990    5.2040 c3        1 F6F      0.184400
     17 O17         5.8470    1.3170    4.5790 os        1 F6F     -0.581200
     18 P18         6.5150    1.2430    3.0610 p5        1 F6F      1.446800
     19 O19         7.7980    0.5280    3.1920 o         1 F6F     -0.847000
     20 O20         6.9050    2.8100    2.9140 oh        1 F6F     -0.762400
     21 O21         5.3960    0.8740    2.1630 o         1 F6F     -0.847000
     22 H2          2.2960    0.8940   -0.7230 ha        1 F6F      0.147500
     23 H3          3.3500    0.7800    1.5250 ha        1 F6F      0.193000
     24 H5         -0.3160   -0.9310    3.1320 ha        1 F6F      0.193000
     25 H6         -1.3670   -0.8220    0.8450 ha        1 F6F      0.147500
     26 H13         4.0710   -0.1420    3.2120 hn        1 F6F      0.362500
     27 H151        3.5930    0.6090    5.8750 h1        1 F6F      0.040700
     28 H152        3.9680   -1.1730    5.8640 h1        1 F6F      0.040700
     29 H161        5.9900    0.1650    6.2620 h1        1 F6F      0.028700
     30 H162        6.1580   -0.7270    4.6700 h1        1 F6F      0.028700
     31 H132        7.7640    2.9980    3.2770 ho        1 F6F      0.432000
@<TRIPOS>BOND
     1    1    2 ar  
     2    1    6 ar  
     3    1    7 1   
     4    2    3 ar  
     5    2   22 1   
     6    3    4 ar  
     7    3   23 1   
     8    4    5 ar  
     9    4   12 1   
    10    5    6 ar  
    11    5   24 1   
    12    6   25 1   
    13    7    8 1   
    14    8    9 1   
    15    8   10 1   
    16    8   11 1   
    17   12   13 1   
    18   12   14 2   
    19   13   15 1   
    20   13   26 1   
    21   15   16 1   
    22   15   27 1   
    23   15   28 1   
    24   16   17 1   
    25   16   29 1   
    26   16   30 1   
    27   17   18 1   
    28   18   19 1   
    29   18   20 1   
    30   18   21 1   
    31   20   31 1   
@<TRIPOS>SUBSTRUCTURE
     1 F6F         1 TEMP              0 ****  ****    0 ROOT
