@<TRIPOS>MOLECULE
F6F
   31    31     1     0     0
SMALL
bcc


@<TRIPOS>ATOM
      1 C1          0.4650   -0.0010   -0.1030 ca        1 F6F      0.076100
      2 C2          1.7640    0.4700    0.1020 ca        1 F6F     -0.145000
      3 C3          2.3180    0.4070    1.3830 ca        1 F6F     -0.081500
      4 C4          1.5670   -0.1250    2.4380 ca        1 F6F     -0.124600
      5 C5          0.2620   -0.5870    2.2140 ca        1 F6F     -0.081500
      6 C6         -0.2990   -0.5370    0.9420 ca        1 F6F     -0.145000
      7 O7         -0.1720    0.1720   -1.3380 os        1 F6F     -0.372900
      8 C8          0.2420   -0.6350   -2.4020 c3        1 F6F      0.817700
      9 F9          0.1610   -1.9610   -2.1260 f         1 F6F     -0.223967
     10 F10        -0.6160   -0.3490   -3.4150 f         1 F6F     -0.223967
     11 F11         1.5040   -0.3480   -2.8110 f         1 F6F     -0.223967
     12 C12         2.0910   -0.2030    3.8390 c         1 F6F      0.656700
     13 N13         3.4460   -0.3490    4.0130 n         1 F6F     -0.534900
     14 O14         1.2920   -0.2140    4.8070 o         1 F6F     -0.655100
     15 C15         4.0400   -0.1910    5.3160 c3        1 F6F      0.056000
     16 C16         5.5460    0.1440    5.2600 c3        1 F6F      0.184400
     17 O17         5.7770    1.3660    4.6390 os        1 F6F     -0.581200
     18 P18         6.4780    1.3020    3.1360 p5        1 F6F      1.446800
     19 O19         7.7690    0.6080    3.2950 o         1 F6F     -0.847000
     20 O20         6.8460    2.8750    2.9950 oh        1 F6F     -0.762400
     21 O21         5.3850    0.9140    2.2140 o         1 F6F     -0.847000
     22 H2          2.3460    0.8810   -0.7370 ha        1 F6F      0.147500
     23 H3          3.3540    0.7860    1.5330 ha        1 F6F      0.193000
     24 H5         -0.3170   -0.9830    3.0640 ha        1 F6F      0.193000
     25 H6         -1.3210   -0.8930    0.7550 ha        1 F6F      0.147500
     26 H13         4.0540   -0.1230    3.2360 hn        1 F6F      0.362500
     27 H151        3.5070    0.6220    5.8880 h1        1 F6F      0.040700
     28 H152        3.9110   -1.1540    5.8870 h1        1 F6F      0.040700
     29 H161        5.9020    0.2180    6.3260 h1        1 F6F      0.028700
     30 H162        6.1190   -0.6730    4.7390 h1        1 F6F      0.028700
     31 H132        7.6930    3.0770    3.3760 ho        1 F6F      0.432000
@<TRIPOS>BOND
     1    1    2 ar  
     2    1    6 ar  
     3    1    7 1   
     4    2    3 ar  
     5    2   22 1   
     6    3    4 ar  
     7    3   23 1   
     8    4    5 ar  
     9    4   12 1   
    10    5    6 ar  
    11    5   24 1   
    12    6   25 1   
    13    7    8 1   
    14    8    9 1   
    15    8   10 1   
    16    8   11 1   
    17   12   13 1   
    18   12   14 2   
    19   13   15 1   
    20   13   26 1   
    21   15   16 1   
    22   15   27 1   
    23   15   28 1   
    24   16   17 1   
    25   16   29 1   
    26   16   30 1   
    27   17   18 1   
    28   18   19 1   
    29   18   20 1   
    30   18   21 1   
    31   20   31 1   
@<TRIPOS>SUBSTRUCTURE
     1 F6F         1 TEMP              0 ****  ****    0 ROOT
