@<TRIPOS>MOLECULE
F6F
   30    27     1     0     0
SMALL
bcc


@<TRIPOS>ATOM
      1 C1         -2.4810    0.0480   -2.8750 c1        1 F6F      0.030600
      2 C2         -1.0920    0.0590   -2.8680 c1        1 F6F     -0.046500
      3 C3         -0.3940    0.0260   -1.6570 c1        1 F6F     -0.046500
      4 C4         -1.0880   -0.0180   -0.4590 cg        1 F6F     -0.053200
      5 C5         -2.4770   -0.0280   -0.4640 c1        1 F6F     -0.037500
      6 C6         -3.1770    0.0050   -1.6900 c1        1 F6F     -0.122500
      7 O7         -3.1840    0.0700   -4.1130 os        1 F6F     -0.351400
      8 C8         -3.4490   -1.2360   -4.6650 c3        1 F6F      0.812700
      9 F9         -2.7510   -2.1200   -4.0380 f         1 F6F     -0.235300
     10 F10        -3.1130   -1.2480   -5.9890 f         1 F6F     -0.235300
     11 F11        -4.7810   -1.5240   -4.5320 f         1 F6F     -0.235300
     12 C12        -0.3260   -0.0690    0.8530 c         1 F6F      0.587300
     13 N13         1.1020   -0.0730    0.8450 n         1 F6F     -0.515900
     14 O14        -0.9400   -0.2420    1.9210 o         1 F6F     -0.730100
     15 C15         1.8290   -0.5630    2.0000 c3        1 F6F      0.042000
     16 C16         2.8000    0.4550    2.4450 c3        1 F6F      0.204400
     17 O17         3.2310    0.1610    3.7920 os        1 F6F     -0.570200
     18 P18         3.9370    1.3180    4.6300 p5        1 F6F      1.342900
     19 O19         5.3650    1.4610    4.1740 o         1 F6F     -0.920167
     20 O20         3.9100    0.9750    6.0780 o         1 F6F     -0.920167
     21 O21         3.1840    2.6470    4.4050 o         1 F6F     -0.920167
     22 H2         -0.5850    0.1620   -3.7350 ha        1 F6F      0.156500
     23 H3          0.6060   -0.0710   -1.6610 ha        1 F6F      0.156500
     24 H5         -2.9850   -0.0150    0.4060 ha        1 F6F      0.090500
     25 H6         -4.1460   -0.1250   -1.7020 ha        1 F6F      0.065500
     26 H13         1.5450    0.2790    0.1510 hn        1 F6F      0.413500
     27 H151        1.2040   -0.7470    2.7160 h1        1 F6F      0.014700
     28 H152        2.3000   -1.3770    1.7640 h1        1 F6F      0.014700
     29 H161        2.3740    1.3420    2.4250 h1        1 F6F      0.003700
     30 H162        3.5810    0.4490    1.8450 h1        1 F6F      0.003700
@<TRIPOS>BOND
     1    1    6 3   
     2    1    7 1   
     3    2    3 3   
     4    2   22 1   
     5    3   23 1   
     6    4    5 3   
     7    4   12 1   
     8    5   24 1   
     9    6   25 1   
    10    7    8 1   
    11    8    9 1   
    12    8   10 1   
    13    8   11 1   
    14   12   13 1   
    15   12   14 2   
    16   13   15 1   
    17   13   26 1   
    18   15   16 1   
    19   15   27 1   
    20   15   28 1   
    21   16   17 1   
    22   16   29 1   
    23   16   30 1   
    24   17   18 1   
    25   18   19 1   
    26   18   20 1   
    27   18   21 1   
@<TRIPOS>SUBSTRUCTURE
     1 F6F         1 TEMP              0 ****  ****    0 ROOT
