@<TRIPOS>MOLECULE
F6F
   31    31     1     0     0
SMALL
bcc


@<TRIPOS>ATOM
      1 C1          0.6780   -0.3830   -0.0980 ca        1 F6F      0.078100
      2 C2          2.0260   -0.0430    0.0510 ca        1 F6F     -0.140500
      3 C3          2.5390    0.1440    1.3360 ca        1 F6F     -0.084000
      4 C4          1.7070   -0.0130    2.4500 ca        1 F6F     -0.118600
      5 C5          0.3560   -0.3470    2.2800 ca        1 F6F     -0.084000
      6 C6         -0.1710   -0.5330    1.0050 ca        1 F6F     -0.140500
      7 O7          0.1630   -0.7150   -1.3570 os        1 F6F     -0.370900
      8 C8         -0.0490    0.3250   -2.2680 c3        1 F6F      0.817700
      9 F9          1.1110    0.9000   -2.6760 f         1 F6F     -0.223300
     10 F10        -0.6450   -0.2610   -3.3380 f         1 F6F     -0.223300
     11 F11        -0.8710    1.2910   -1.7860 f         1 F6F     -0.223300
     12 C12         2.1940    0.1910    3.8520 c         1 F6F      0.656700
     13 N13         3.5000   -0.1140    4.1320 n         1 F6F     -0.524900
     14 O14         1.3940    0.5630    4.7440 o         1 F6F     -0.651100
     15 C15         4.0880    0.2160    5.4060 c3        1 F6F      0.062000
     16 C16         5.6200    0.0360    5.4160 c3        1 F6F      0.169400
     17 O17         6.2450    0.9440    4.5710 os        1 F6F     -0.580200
     18 P18         6.8700    0.3900    3.1400 p5        1 F6F      1.419800
     19 O19         7.9750    1.2840    2.7580 o         1 F6F     -0.823000
     20 O20         5.5990    0.8830    2.2230 oh        1 F6F     -0.798400
     21 O21         6.8330   -1.0830    3.1860 o         1 F6F     -0.823000
     22 H2          2.6700    0.0760   -0.8330 ha        1 F6F      0.149000
     23 H3          3.6080    0.4170    1.4500 ha        1 F6F      0.180000
     24 H5         -0.2860   -0.4490    3.1700 ha        1 F6F      0.180000
     25 H6         -1.2260   -0.8020    0.8580 ha        1 F6F      0.149000
     26 H13         4.1520   -0.2480    3.3800 hn        1 F6F      0.347500
     27 H151        3.6390   -0.4540    6.1920 h1        1 F6F      0.039700
     28 H152        3.8380    1.2820    5.6760 h1        1 F6F      0.039700
     29 H161        5.9630    0.2530    6.4680 h1        1 F6F      0.045200
     30 H162        5.8980   -1.0200    5.1380 h1        1 F6F      0.045200
     31 H132        5.6930    1.7840    1.9370 ho        1 F6F      0.431000
@<TRIPOS>BOND
     1    1    2 ar  
     2    1    6 ar  
     3    1    7 1   
     4    2    3 ar  
     5    2   22 1   
     6    3    4 ar  
     7    3   23 1   
     8    4    5 ar  
     9    4   12 1   
    10    5    6 ar  
    11    5   24 1   
    12    6   25 1   
    13    7    8 1   
    14    8    9 1   
    15    8   10 1   
    16    8   11 1   
    17   12   13 1   
    18   12   14 2   
    19   13   15 1   
    20   13   26 1   
    21   15   16 1   
    22   15   27 1   
    23   15   28 1   
    24   16   17 1   
    25   16   29 1   
    26   16   30 1   
    27   17   18 1   
    28   18   19 1   
    29   18   20 1   
    30   18   21 1   
    31   20   31 1   
@<TRIPOS>SUBSTRUCTURE
     1 F6F         1 TEMP              0 ****  ****    0 ROOT
