@<TRIPOS>MOLECULE
F6H
   40    40     1     0     0
SMALL
bcc


@<TRIPOS>ATOM
      1 P          -3.7410    2.3350   -1.5260 p4        1 F6H      1.719200
      2 N1          1.0000   -1.3970    0.5240 n         1 F6H     -0.313000
      3 C2         -0.3550   -1.9210    0.6790 c         1 F6H      0.789500
      4 O2         -1.3100   -1.1910    0.5120 o         1 F6H     -0.651500
      5 N3         -0.5600   -3.3270    1.0350 n         1 F6H     -0.597500
      6 C4          0.5490   -4.1380    1.3940 c         1 F6H      0.724700
      7 O4          0.3720   -5.2770    1.7780 o         1 F6H     -0.695500
      8 C5          1.9110   -3.5890    1.3270 cc        1 F6H     -0.349400
      9 C6          2.1180   -2.2020    0.8750 cd        1 F6H      0.088600
     10 C7          3.1030   -4.4810    1.6050 c3        1 F6H     -0.003900
     11 C1'         0.7820    0.9530    1.0660 c3        1 F6H      0.165400
     12 C2'         1.2050   -0.0510    0.0060 c3        1 F6H     -0.033300
     13 C3'         0.4390    0.1000   -1.2480 c3        1 F6H      0.311600
     14 F3'         0.9970   -0.7240   -2.2180 f         1 F6H     -0.280300
     15 C4'         0.4460    1.5000   -1.7460 c3        1 F6H     -0.484900
     16 O4'         1.7740    1.8280   -2.1920 oh        1 F6H     -0.556800
     17 C5'         0.0270    2.4960   -0.6770 c3        1 F6H      0.236100
     18 O5'         0.7840    2.3380    0.5640 os        1 F6H     -0.469600
     19 C6'        -1.4330    2.3060   -0.3810 c3        1 F6H      0.176100
     20 O6'        -2.1560    2.2680   -1.5900 os        1 F6H     -0.586200
     21 C7'        -1.9310    3.4580    0.4680 c3        1 F6H     -0.089100
     22 OP1        -4.1830    3.7810   -1.4880 o         1 F6H     -0.681500
     23 OP2        -4.3230    1.6630   -2.7450 o         1 F6H     -0.730300
     24 OP3        -4.2250    1.6280   -0.2820 os        1 F6H     -1.188000
     25 HN3        -1.3970   -3.6840    1.0120 hn        1 F6H      0.327500
     26 H6          3.0210   -1.8320    0.8290 h4        1 F6H      0.188000
     27 H7          3.9250   -4.0130    1.3570 hc        1 F6H      0.029367
     28 H7A         3.0230   -5.3050    1.0790 hc        1 F6H      0.029367
     29 H7B         3.1290   -4.7040    2.5590 hc        1 F6H      0.029367
     30 H1'        -0.1190    0.7300    1.3710 h1        1 F6H      0.032700
     31 H1'A        1.3970    0.8910    1.8250 h1        1 F6H      0.032700
     32 H2'         2.1550    0.0730   -0.1860 h1        1 F6H      0.068700
     33 H3'        -0.4830   -0.1760   -1.0900 h1        1 F6H      0.028700
     34 H4'        -0.1680    1.5700   -2.5020 h1        1 F6H      0.221700
     35 HO4'        1.7430    2.1070   -3.0320 ho        1 F6H      0.354000
     36 H5'         0.1650    3.4030   -1.0190 h1        1 F6H      0.057700
     37 H6'        -1.5610    1.4660    0.1010 h1        1 F6H      0.050700
     38 H7'        -1.9880    4.2680   -0.0810 hc        1 F6H      0.016700
     39 H7'A       -1.3100    3.6090    1.2090 hc        1 F6H      0.016700
     40 H7'B       -2.8190    3.2420    0.8250 hc        1 F6H      0.016700
@<TRIPOS>BOND
     1    1   20 1   
     2    1   22 1   
     3    1   23 2   
     4    2    3 1   
     5    2    9 1   
     6    2   12 1   
     7    3    4 2   
     8    3    5 1   
     9    5    6 1   
    10    5   25 1   
    11    6    7 2   
    12    6    8 1   
    13    8    9 2   
    14    8   10 1   
    15    9   26 1   
    16   10   27 1   
    17   10   28 1   
    18   10   29 1   
    19   11   12 1   
    20   11   18 1   
    21   11   30 1   
    22   11   31 1   
    23   12   13 1   
    24   12   32 1   
    25   13   14 1   
    26   13   15 1   
    27   13   33 1   
    28   15   16 1   
    29   15   17 1   
    30   15   34 1   
    31   16   35 1   
    32   17   18 1   
    33   17   19 1   
    34   17   36 1   
    35   19   20 1   
    36   19   21 1   
    37   19   37 1   
    38   21   38 1   
    39   21   39 1   
    40   21   40 1   
@<TRIPOS>SUBSTRUCTURE
     1 F6H         1 TEMP              0 ****  ****    0 ROOT
