@<TRIPOS>MOLECULE
F6H
   40    41     1     0     0
SMALL
bcc


@<TRIPOS>ATOM
      1 P          -2.5050   -1.6450   -0.1230 p5        1 F6H      1.329900
      2 N1          2.4370    0.5100   -0.0100 n         1 F6H     -0.343000
      3 C2          3.8240    0.5500   -0.2830 c         1 F6H      0.789500
      4 O2          4.4470    1.6240   -0.4980 o         1 F6H     -0.713500
      5 N3          4.5430   -0.6530   -0.3110 n         1 F6H     -0.595500
      6 C4          3.9500   -1.9110   -0.0690 c         1 F6H      0.714700
      7 O4          4.7050   -2.9050   -0.1140 o         1 F6H     -0.679500
      8 C5          2.5180   -1.8960    0.2110 cc        1 F6H     -0.278400
      9 C6          1.8240   -0.7150    0.2370 cd        1 F6H      0.071600
     10 C7          1.8260   -3.1820    0.4400 c3        1 F6H     -0.053900
     11 C1'         1.2370    2.1390    1.4870 c3        1 F6H      0.126400
     12 C2'         1.7340    1.7820    0.0750 c3        1 F6H      0.037700
     13 C3'         0.5250    1.9240   -0.9060 c3        1 F6H      0.159600
     14 F3'         0.3260    3.2810   -1.1300 f         1 F6H     -0.255300
     15 C4'        -0.7360    1.2160   -0.3750 c3        1 F6H      0.085100
     16 O4'        -1.8380    1.7100   -1.1080 oh        1 F6H     -0.647800
     17 C5'        -1.0020    1.3910    1.1270 c3        1 F6H      0.076100
     18 O5'         0.1940    1.3030    1.9220 os        1 F6H     -0.420600
     19 C6'        -1.8930    0.2230    1.6780 c3        1 F6H      0.233100
     20 O6'        -2.8180   -0.1760    0.7530 os        1 F6H     -0.564200
     21 C7'        -2.5860    0.7190    2.9450 c3        1 F6H     -0.101100
     22 OP1        -3.4400   -2.6660    0.4330 o         1 F6H     -0.918500
     23 OP2        -2.7450   -1.0400   -1.4800 o         1 F6H     -0.918500
     24 OP3        -1.0270   -1.8350    0.1710 o         1 F6H     -0.918500
     25 HN3         5.5120   -0.5920   -0.5220 hn        1 F6H      0.322500
     26 H6          0.7100   -0.7290    0.4570 h4        1 F6H      0.297000
     27 H7          2.1260   -3.9220   -0.3410 hc        1 F6H      0.064367
     28 H7A         2.1080   -3.5970    1.4390 hc        1 F6H      0.064367
     29 H7B         0.7050   -3.0290    0.4020 hc        1 F6H      0.064367
     30 H1'         2.0470    2.0130    2.2530 h1        1 F6H      0.036200
     31 H1'A        0.9010    3.2120    1.4550 h1        1 F6H      0.036200
     32 H2'         2.4770    2.5880   -0.2210 h1        1 F6H      0.084700
     33 H3'         0.7840    1.4590   -1.9010 h1        1 F6H      0.060700
     34 H4'        -0.6380    0.0960   -0.5820 h1        1 F6H      0.140700
     35 HO4'       -2.4490    0.9300   -1.1930 ho        1 F6H      0.496000
     36 H5'        -1.4780    2.3900    1.3110 h1        1 F6H      0.025700
     37 H6'        -1.1920   -0.6280    1.9380 h1        1 F6H      0.059700
     38 H7'        -1.8300    1.1020    3.6700 hc        1 F6H      0.010700
     39 H7'A       -3.3060    1.5360    2.7010 hc        1 F6H      0.010700
     40 H7'B       -3.1520   -0.1220    3.4090 hc        1 F6H      0.010700
@<TRIPOS>BOND
     1    1   20 1   
     2    1   22 1   
     3    1   23 1   
     4    1   24 1   
     5    2    3 1   
     6    2    9 1   
     7    2   12 1   
     8    3    4 2   
     9    3    5 1   
    10    5    6 1   
    11    5   25 1   
    12    6    7 2   
    13    6    8 1   
    14    8    9 2   
    15    8   10 1   
    16    9   26 1   
    17   10   27 1   
    18   10   28 1   
    19   10   29 1   
    20   11   12 1   
    21   11   18 1   
    22   11   30 1   
    23   11   31 1   
    24   12   13 1   
    25   12   32 1   
    26   13   14 1   
    27   13   15 1   
    28   13   33 1   
    29   15   16 1   
    30   15   17 1   
    31   15   34 1   
    32   16   35 1   
    33   17   18 1   
    34   17   19 1   
    35   17   36 1   
    36   19   20 1   
    37   19   21 1   
    38   19   37 1   
    39   21   38 1   
    40   21   39 1   
    41   21   40 1   
@<TRIPOS>SUBSTRUCTURE
     1 F6H         1 TEMP              0 ****  ****    0 ROOT
