@<TRIPOS>MOLECULE
F6P
   27    27     1     0     0
SMALL
bcc


@<TRIPOS>ATOM
      1 O1          2.4330   -0.8030    3.8880 oh        1 F6P     -0.627800
      2 C1          1.0200   -0.7880    3.8670 c3        1 F6P      0.151400
      3 C2          0.4360   -0.0420    2.6630 c3        1 F6P      0.271600
      4 O2          0.6790    1.3450    2.8280 oh        1 F6P     -0.643800
      5 C3         -1.0730   -0.3190    2.4370 c3        1 F6P      0.090100
      6 O3         -1.8700    0.7140    2.9730 oh        1 F6P     -0.600800
      7 C4         -1.2040   -0.4680    0.9030 c3        1 F6P      0.129100
      8 O4         -1.9620   -1.6220    0.6250 oh        1 F6P     -0.666800
      9 C5          0.2380   -0.6140    0.3770 c3        1 F6P      0.063100
     10 O5          1.1460   -0.3900    1.4920 os        1 F6P     -0.478600
     11 C6          0.5900    0.3800   -0.7570 c3        1 F6P      0.229400
     12 O6          0.4030   -0.1930   -1.9820 os        1 F6P     -0.556200
     13 P          -1.0670    0.3130   -2.7780 p5        1 F6P      1.331900
     14 O1P        -0.9290    1.8080   -2.7380 o         1 F6P     -0.931500
     15 O2P        -1.0000   -0.3690   -4.1080 o         1 F6P     -0.931500
     16 O3P        -2.0500   -0.2420   -1.7660 o         1 F6P     -0.931500
     17 HO1         2.7360   -0.7980    2.9700 ho        1 F6P      0.427000
     18 H11         0.6490   -1.8480    3.8480 h1        1 F6P      0.039200
     19 H12         0.7050   -0.2800    4.8150 h1        1 F6P      0.039200
     20 HO2         0.8150    1.7140    1.9420 ho        1 F6P      0.430000
     21 H3         -1.4090   -1.2480    2.9670 h1        1 F6P      0.079700
     22 HO3        -1.6330    1.5250    2.5020 ho        1 F6P      0.408000
     23 H4         -1.7090    0.4330    0.4530 h1        1 F6P      0.109700
     24 HO4        -2.2290   -1.5280   -0.3200 ho        1 F6P      0.500000
     25 H5          0.4290   -1.6650    0.0350 h1        1 F6P      0.074700
     26 H61        -0.0270    1.3170   -0.6430 h1        1 F6P     -0.004300
     27 H62         1.6810    0.6480   -0.6230 h1        1 F6P     -0.004300
@<TRIPOS>BOND
     1    1    2 1   
     2    1   17 1   
     3    2    3 1   
     4    2   18 1   
     5    2   19 1   
     6    3    4 1   
     7    3    5 1   
     8    3   10 1   
     9    4   20 1   
    10    5    6 1   
    11    5    7 1   
    12    5   21 1   
    13    6   22 1   
    14    7    8 1   
    15    7    9 1   
    16    7   23 1   
    17    8   24 1   
    18    9   10 1   
    19    9   11 1   
    20    9   25 1   
    21   11   12 1   
    22   11   26 1   
    23   11   27 1   
    24   12   13 1   
    25   13   14 1   
    26   13   15 1   
    27   13   16 1   
@<TRIPOS>SUBSTRUCTURE
     1 F6P         1 TEMP              0 ****  ****    0 ROOT
