@<TRIPOS>MOLECULE
F6R
   27    26     1     0     0
SMALL
bcc


@<TRIPOS>ATOM
      1 C1          0.0780   -0.3090    1.9830 c3        1 F6R     -0.023600
      2 C2          0.9830    0.1090    0.8540 c         1 F6R      0.532100
      3 C3          2.4450    0.3100    1.2120 c3        1 F6R      0.048100
      4 C4          2.5840    1.4860    2.1920 c3        1 F6R      0.069100
      5 C5          3.5070    1.1620    3.3820 c3        1 F6R      0.087100
      6 C6          3.3650    2.2750    4.4550 c3        1 F6R      0.188400
      7 O1         -1.1190   -0.8930    1.4910 oh        1 F6R     -0.621800
      8 O2          0.5530    0.2850   -0.2960 o         1 F6R     -0.597100
      9 O3          3.2300    0.4610    0.0440 oh        1 F6R     -0.613800
     10 O4          3.0850    2.6040    1.4800 oh        1 F6R     -0.670800
     11 O5          3.1610   -0.1010    3.9330 oh        1 F6R     -0.656800
     12 O6          2.1700    2.1810    5.1210 os        1 F6R     -0.581200
     13 P           0.8650    3.2000    4.5880 p5        1 F6R      1.335900
     14 O1P        -0.0130    2.1180    4.0020 o         1 F6R     -0.925833
     15 O2P         1.5470    4.0030    3.5020 o         1 F6R     -0.925833
     16 O3P         0.4190    3.9170    5.8200 o         1 F6R     -0.925833
     17 H1C1        0.5640   -1.1090    2.6010 h1        1 F6R      0.135700
     18 H1C2       -0.1480    0.5880    2.6570 h1        1 F6R      0.135700
     19 H3          2.8290   -0.6340    1.6980 h1        1 F6R      0.088700
     20 H4          1.5650    1.7480    2.6430 h1        1 F6R      0.144700
     21 H5          4.5700    1.0610    3.0420 h1        1 F6R      0.027700
     22 H6C1        3.4850    3.2760    3.9550 h1        1 F6R      0.005200
     23 H6C2        4.2050    2.1210    5.1960 h1        1 F6R      0.005200
     24 H1         -1.5570   -0.2060    0.9760 ho        1 F6R      0.399000
     25 HA          3.0750    1.3600   -0.2780 ho        1 F6R      0.418000
     26 HB          2.6790    3.3870    1.9110 ho        1 F6R      0.483000
     27 HC          2.3910    0.0630    4.5020 ho        1 F6R      0.437000
@<TRIPOS>BOND
     1    1    2 1   
     2    1    7 1   
     3    1   17 1   
     4    1   18 1   
     5    2    3 1   
     6    2    8 2   
     7    3    4 1   
     8    3    9 1   
     9    3   19 1   
    10    4    5 1   
    11    4   10 1   
    12    4   20 1   
    13    5    6 1   
    14    5   11 1   
    15    5   21 1   
    16    6   12 1   
    17    6   22 1   
    18    6   23 1   
    19    7   24 1   
    20    9   25 1   
    21   10   26 1   
    22   11   27 1   
    23   12   13 1   
    24   13   14 1   
    25   13   15 1   
    26   13   16 1   
@<TRIPOS>SUBSTRUCTURE
     1 F6R         1 TEMP              0 ****  ****    0 ROOT
