@<TRIPOS>MOLECULE
F6R
   27    26     1     0     0
SMALL
bcc


@<TRIPOS>ATOM
      1 C1         -3.4400   -1.0450   -1.4780 c3        1 F6R     -0.023600
      2 C2         -1.9340   -1.0520   -1.6150 c         1 F6R      0.532100
      3 C3         -1.0630   -1.1210   -0.3810 c3        1 F6R      0.048100
      4 C4          0.0610   -0.1180   -0.5010 c3        1 F6R      0.069100
      5 C5          0.6700    0.1210    0.8620 c3        1 F6R      0.087100
      6 C6          1.8840    1.0120    0.7220 c3        1 F6R      0.188400
      7 O1         -4.0280   -1.2520   -2.7430 oh        1 F6R     -0.621800
      8 O2         -1.4240   -1.0020   -2.7160 o         1 F6R     -0.597100
      9 O3         -0.5240   -2.4160   -0.2590 oh        1 F6R     -0.613800
     10 O4          1.0460   -0.6180   -1.3740 oh        1 F6R     -0.670800
     11 O5         -0.2770    0.7450    1.6960 oh        1 F6R     -0.656800
     12 O6          2.4660    1.2150    1.9890 os        1 F6R     -0.581200
     13 P           3.6830    2.2170    2.1070 p5        1 F6R      1.335900
     14 O1P         4.8470    1.6920    1.3010 o         1 F6R     -0.925833
     15 O2P         4.0910    2.3440    3.5550 o         1 F6R     -0.925833
     16 O3P         3.2740    3.5700    1.5780 o         1 F6R     -0.925833
     17 H1C1       -3.7320   -0.1820   -1.1190 h1        1 F6R      0.135700
     18 H1C2       -3.7160   -1.7620   -0.8690 h1        1 F6R      0.135700
     19 H3         -1.6000   -0.9160    0.4090 h1        1 F6R      0.088700
     20 H4         -0.2900    0.7240   -0.8530 h1        1 F6R      0.144700
     21 H5          0.9370   -0.7330    1.2540 h1        1 F6R      0.027700
     22 H6C1        1.6140    1.8750    0.3450 h1        1 F6R      0.005200
     23 H6C2        2.5350    0.5860    0.1280 h1        1 F6R      0.005200
     24 H1         -4.9120   -1.2990   -2.6550 ho        1 F6R      0.399000
     25 HA         -1.1140   -2.9460    0.1440 ho        1 F6R      0.418000
     26 HB          1.1660   -0.0460   -2.0450 ho        1 F6R      0.483000
     27 HC         -0.2190    0.4060    2.5160 ho        1 F6R      0.437000
@<TRIPOS>BOND
     1    1    2 1   
     2    1    7 1   
     3    1   17 1   
     4    1   18 1   
     5    2    3 1   
     6    2    8 2   
     7    3    4 1   
     8    3    9 1   
     9    3   19 1   
    10    4    5 1   
    11    4   10 1   
    12    4   20 1   
    13    5    6 1   
    14    5   11 1   
    15    5   21 1   
    16    6   12 1   
    17    6   22 1   
    18    6   23 1   
    19    7   24 1   
    20    9   25 1   
    21   10   26 1   
    22   11   27 1   
    23   12   13 1   
    24   13   14 1   
    25   13   15 1   
    26   13   16 1   
@<TRIPOS>SUBSTRUCTURE
     1 F6R         1 TEMP              0 ****  ****    0 ROOT
