@<TRIPOS>MOLECULE
F6R
   27    26     1     0     0
SMALL
bcc


@<TRIPOS>ATOM
      1 C1         -1.2210    0.7690   -0.4000 c3        1 F6R     -0.003600
      2 C2         -2.3050    0.7170   -1.4480 c         1 F6R      0.527100
      3 C3         -3.1260   -0.5570   -1.5230 c3        1 F6R      0.051100
      4 C4         -2.1840   -1.7680   -1.5410 c3        1 F6R      0.060100
      5 C5         -2.8660   -3.1130   -1.2600 c3        1 F6R      0.091100
      6 C6         -1.7470   -4.1730   -1.0580 c3        1 F6R      0.195400
      7 O1         -0.7430    2.0920   -0.2140 oh        1 F6R     -0.616800
      8 O2         -2.4770    1.6670   -2.2270 o         1 F6R     -0.596100
      9 O3         -3.9950   -0.5170   -2.6410 oh        1 F6R     -0.608800
     10 O4         -1.5550   -1.8010   -2.8100 oh        1 F6R     -0.674800
     11 O5         -3.6590   -3.0110   -0.0840 oh        1 F6R     -0.653800
     12 O6         -1.0410   -3.8850    0.0840 os        1 F6R     -0.580200
     13 P           0.6350   -3.4870   -0.1810 p5        1 F6R      1.330900
     14 O1P         0.4650   -2.1960   -0.9660 o         1 F6R     -0.924500
     15 O2P         1.1010   -4.6450   -1.0110 o         1 F6R     -0.924500
     16 O3P         1.1470   -3.3380    1.2160 o         1 F6R     -0.924500
     17 H1C1       -1.6160    0.4550    0.6030 h1        1 F6R      0.122200
     18 H1C2       -0.3750    0.0680   -0.6930 h1        1 F6R      0.122200
     19 H3         -3.8040   -0.6270   -0.6260 h1        1 F6R      0.090700
     20 H4         -1.3950   -1.6650   -0.7200 h1        1 F6R      0.152700
     21 H5         -3.5720   -3.3970   -2.0800 h1        1 F6R      0.031700
     22 H6C1       -2.2590   -5.1740   -0.9530 h1        1 F6R      0.005700
     23 H6C2       -1.0800   -4.1860   -1.9630 h1        1 F6R      0.005700
     24 H1         -0.5270    2.4300   -1.0910 ho        1 F6R      0.398000
     25 HA         -3.4410   -0.6750   -3.4170 ho        1 F6R      0.414000
     26 HB         -0.6090   -1.9860   -2.6210 ho        1 F6R      0.483000
     27 HC         -3.0430   -3.1330    0.6570 ho        1 F6R      0.427000
@<TRIPOS>BOND
     1    1    2 1   
     2    1    7 1   
     3    1   17 1   
     4    1   18 1   
     5    2    3 1   
     6    2    8 2   
     7    3    4 1   
     8    3    9 1   
     9    3   19 1   
    10    4    5 1   
    11    4   10 1   
    12    4   20 1   
    13    5    6 1   
    14    5   11 1   
    15    5   21 1   
    16    6   12 1   
    17    6   22 1   
    18    6   23 1   
    19    7   24 1   
    20    9   25 1   
    21   10   26 1   
    22   11   27 1   
    23   12   13 1   
    24   13   14 1   
    25   13   15 1   
    26   13   16 1   
@<TRIPOS>SUBSTRUCTURE
     1 F6R         1 TEMP              0 ****  ****    0 ROOT
