@<TRIPOS>MOLECULE
F6R
   27    26     1     0     0
SMALL
bcc


@<TRIPOS>ATOM
      1 C1          0.2480   -0.1030    0.9900 c3        1 F6R      0.018400
      2 C2          1.4900   -0.0420    0.1400 c         1 F6R      0.524100
      3 C3          2.7310    0.5620    0.7490 c3        1 F6R      0.012100
      4 C4          2.4640    1.8950    1.4980 c3        1 F6R      0.164100
      5 C5          2.7310    1.7100    2.9980 c3        1 F6R      0.047100
      6 C6          2.4250    3.0040    3.8010 c3        1 F6R      0.222400
      7 O1         -0.6650   -1.0870    0.5400 oh        1 F6R     -0.609800
      8 O2          1.4910   -0.5180   -1.0080 o         1 F6R     -0.602100
      9 O3          3.7220    0.8130   -0.2350 oh        1 F6R     -0.576800
     10 O4          3.2510    2.9250    0.9430 oh        1 F6R     -0.592800
     11 O5          1.9090    0.6370    3.4470 oh        1 F6R     -0.683800
     12 O6          2.3540    2.7080    5.1330 os        1 F6R     -0.562200
     13 P           3.7920    3.2290    6.0160 p5        1 F6R      1.309900
     14 O1P         3.6910    4.7230    5.9020 o         1 F6R     -0.926833
     15 O2P         3.5680    2.6180    7.3670 o         1 F6R     -0.926833
     16 O3P         4.8200    2.5820    5.1230 o         1 F6R     -0.926833
     17 H1C1        0.5060   -0.3710    2.0550 h1        1 F6R      0.101200
     18 H1C2       -0.2530    0.9050    0.9790 h1        1 F6R      0.101200
     19 H3          3.1290   -0.1980    1.4880 h1        1 F6R      0.088700
     20 H4          1.4010    2.2210    1.3210 h1        1 F6R      0.050700
     21 H5          3.8100    1.4280    3.1720 h1        1 F6R      0.097700
     22 H6C1        1.4290    3.3970    3.4380 h1        1 F6R     -0.003800
     23 H6C2        3.2290    3.7580    3.5790 h1        1 F6R     -0.003800
     24 H1         -0.6430   -1.0790   -0.4260 ho        1 F6R      0.401000
     25 HA          3.7090    0.0610   -0.8430 ho        1 F6R      0.391000
     26 HB          4.1120    2.8970    1.3840 ho        1 F6R      0.427000
     27 HC          1.7800    0.7970    4.3990 ho        1 F6R      0.458000
@<TRIPOS>BOND
     1    1    2 1   
     2    1    7 1   
     3    1   17 1   
     4    1   18 1   
     5    2    3 1   
     6    2    8 2   
     7    3    4 1   
     8    3    9 1   
     9    3   19 1   
    10    4    5 1   
    11    4   10 1   
    12    4   20 1   
    13    5    6 1   
    14    5   11 1   
    15    5   21 1   
    16    6   12 1   
    17    6   22 1   
    18    6   23 1   
    19    7   24 1   
    20    9   25 1   
    21   10   26 1   
    22   11   27 1   
    23   12   13 1   
    24   13   14 1   
    25   13   15 1   
    26   13   16 1   
@<TRIPOS>SUBSTRUCTURE
     1 F6R         1 TEMP              0 ****  ****    0 ROOT
