@<TRIPOS>MOLECULE
F6Y
   39    43     1     0     0
SMALL
bcc


@<TRIPOS>ATOM
      1 O1          0.5880    0.0260    4.0950 o         1 F6Y     -0.600500
      2 C1          0.6040    0.0210    2.8680 c         1 F6Y      0.736200
      3 C2          1.6550    0.0300    1.8440 ca        1 F6Y     -0.211600
      4 C3          3.0340    0.0500    1.9550 ca        1 F6Y     -0.075000
      5 C4          3.7920    0.0550    0.7760 ca        1 F6Y     -0.125000
      6 O2         -0.6440    0.0010    2.2530 os        1 F6Y     -0.423900
      7 C5         -0.4800   -0.0030    0.7800 c3        1 F6Y      0.321700
      8 C6         -1.1290   -1.2550    0.2730 ca        1 F6Y     -0.156300
      9 C7         -0.5070   -2.4990    0.4370 ca        1 F6Y     -0.025000
     10 C8         -1.1150   -3.6680   -0.0030 ca        1 F6Y     -0.238000
     11 C9         -2.3740   -3.5990   -0.6220 ca        1 F6Y      0.149100
     12 O3         -3.0350   -4.7210   -1.0730 oh        1 F6Y     -0.502100
     13 C11        -3.0250   -2.3760   -0.8120 ca        1 F6Y     -0.186000
     14 C12        -2.3820   -1.2140   -0.3560 ca        1 F6Y      0.167100
     15 O4         -3.0960   -0.0450   -0.5790 os        1 F6Y     -0.231200
     16 C13        -2.4140    1.1450   -0.3670 ca        1 F6Y      0.167100
     17 C14        -3.0880    2.2850   -0.8330 ca        1 F6Y     -0.186000
     18 C15        -2.4710    3.5270   -0.6540 ca        1 F6Y      0.149100
     19 O5         -3.1620    4.6260   -1.1150 oh        1 F6Y     -0.502100
     20 C16        -1.2140    3.6360   -0.0360 ca        1 F6Y     -0.238000
     21 C17        -0.5750    2.4880    0.4150 ca        1 F6Y     -0.025000
     22 C18        -1.1630    1.2260    0.2620 ca        1 F6Y     -0.156300
     23 C19         1.0230    0.0160    0.5710 ca        1 F6Y     -0.128300
     24 C20         1.7740    0.0210   -0.5870 ca        1 F6Y     -0.075000
     25 C21         3.1800    0.0410   -0.4770 ca        1 F6Y     -0.095600
     26 C22         4.0340    0.0470   -1.7460 c         1 F6Y      0.906200
     27 O6          3.4300    0.0330   -2.8530 o         1 F6Y     -0.814300
     28 O7          5.2860    0.0640   -1.6010 o         1 F6Y     -0.814300
     29 H3          3.5190    0.0610    2.9420 ha        1 F6Y      0.132000
     30 H4          4.8940    0.0700    0.8140 ha        1 F6Y      0.165000
     31 H7          0.4830   -2.5400    0.9210 ha        1 F6Y      0.157000
     32 H8         -0.6140   -4.6370    0.1260 ha        1 F6Y      0.135000
     33 HA         -2.4530   -5.4810   -0.9320 ho        1 F6Y      0.418000
     34 H11        -4.0050   -2.3220   -1.3020 ha        1 F6Y      0.162000
     35 H14        -4.0660    2.2010   -1.3220 ha        1 F6Y      0.162000
     36 H5         -2.6000    5.4030   -0.9810 ho        1 F6Y      0.418000
     37 H16        -0.7390    4.6190    0.0850 ha        1 F6Y      0.135000
     38 H17         0.4140    2.5600    0.8980 ha        1 F6Y      0.157000
     39 H20         1.3270    0.0110   -1.5940 ha        1 F6Y      0.173000
@<TRIPOS>BOND
     1    1    2 2   
     2    2    3 1   
     3    2    6 1   
     4    3    4 ar  
     5    3   23 ar  
     6    4    5 ar  
     7    4   29 1   
     8    5   25 ar  
     9    5   30 1   
    10    6    7 1   
    11    7    8 1   
    12    7   22 1   
    13    7   23 1   
    14    8    9 ar  
    15    8   14 ar  
    16    9   10 ar  
    17    9   31 1   
    18   10   11 ar  
    19   10   32 1   
    20   11   12 1   
    21   11   13 ar  
    22   12   33 1   
    23   13   14 ar  
    24   13   34 1   
    25   14   15 1   
    26   15   16 1   
    27   16   17 ar  
    28   16   22 ar  
    29   17   18 ar  
    30   17   35 1   
    31   18   19 1   
    32   18   20 ar  
    33   19   36 1   
    34   20   21 ar  
    35   20   37 1   
    36   21   22 ar  
    37   21   38 1   
    38   23   24 ar  
    39   24   25 ar  
    40   24   39 1   
    41   25   26 1   
    42   26   27 1   
    43   26   28 1   
@<TRIPOS>SUBSTRUCTURE
     1 F6Y         1 TEMP              0 ****  ****    0 ROOT
