@<TRIPOS>MOLECULE
F6Y
   39    43     1     0     0
SMALL
bcc


@<TRIPOS>ATOM
      1 O1         -0.0210   -0.0200   -0.3050 o         1 F6Y     -0.599500
      2 C1          1.1750   -0.0150   -0.0290 c         1 F6Y      0.734200
      3 C2          1.9600   -0.0100    1.2090 ca        1 F6Y     -0.212600
      4 C3          1.5680   -0.0090    2.5360 ca        1 F6Y     -0.072000
      5 C4          2.5660   -0.0040    3.5190 ca        1 F6Y     -0.125000
      6 O2          2.0370   -0.0130   -1.1260 os        1 F6Y     -0.426900
      7 C5          3.4380   -0.0070   -0.6640 c3        1 F6Y      0.320700
      8 C6          4.0940   -1.2470   -1.1910 ca        1 F6Y     -0.154300
      9 C7          3.5330   -2.5070   -0.9400 ca        1 F6Y     -0.031000
     10 C8          4.1350   -3.6700   -1.4000 ca        1 F6Y     -0.182000
     11 C9          5.3340   -3.5760   -2.1300 ca        1 F6Y      0.151100
     12 O3          5.8860   -4.7600   -2.5630 oh        1 F6Y     -0.500100
     13 C11         5.9190   -2.3380   -2.4090 ca        1 F6Y     -0.242000
     14 C12         5.2800   -1.1820   -1.9330 ca        1 F6Y      0.170100
     15 O4          5.9310    0.0010   -2.2560 os        1 F6Y     -0.234200
     16 C13         5.2710    1.1790   -1.9360 ca        1 F6Y      0.170100
     17 C14         5.9010    2.3390   -2.4160 ca        1 F6Y     -0.242000
     18 C15         5.3060    3.5730   -2.1410 ca        1 F6Y      0.151100
     19 O5          5.8490    4.7610   -2.5770 oh        1 F6Y     -0.500100
     20 C16         4.1070    3.6600   -1.4110 ca        1 F6Y     -0.182000
     21 C17         3.5130    2.4940   -0.9470 ca        1 F6Y     -0.031000
     22 C18         4.0850    1.2380   -1.1940 ca        1 F6Y     -0.154300
     23 C19         3.3350   -0.0050    0.8520 ca        1 F6Y     -0.121300
     24 C20         4.3140    0.0010    1.8240 ca        1 F6Y     -0.073000
     25 C21         3.9190    0.0010    3.1780 ca        1 F6Y     -0.091600
     26 C22         4.9860    0.0070    4.2730 c         1 F6Y      0.906200
     27 O6          6.1930    0.0110    3.9100 o         1 F6Y     -0.814800
     28 O7          4.5880    0.0070    5.4700 o         1 F6Y     -0.814800
     29 H3          0.5030   -0.0130    2.8090 ha        1 F6Y      0.131000
     30 H4          2.3030   -0.0040    4.5910 ha        1 F6Y      0.165000
     31 H7          2.5950   -2.5610   -0.3620 ha        1 F6Y      0.154000
     32 H8          3.6990   -4.6570   -1.1980 ha        1 F6Y      0.151000
     33 HA          6.7330   -4.5560   -2.9850 ho        1 F6Y      0.416000
     34 H11         6.8540   -2.2540   -2.9760 ha        1 F6Y      0.147000
     35 H14         6.8370    2.2610   -2.9830 ha        1 F6Y      0.147000
     36 H5          6.6980    4.5610   -2.9980 ho        1 F6Y      0.416000
     37 H16         3.6620    4.6440   -1.2120 ha        1 F6Y      0.151000
     38 H17         2.5750    2.5420   -0.3690 ha        1 F6Y      0.154000
     39 H20         5.3920    0.0040    1.5940 ha        1 F6Y      0.172000
@<TRIPOS>BOND
     1    1    2 2   
     2    2    3 1   
     3    2    6 1   
     4    3    4 ar  
     5    3   23 ar  
     6    4    5 ar  
     7    4   29 1   
     8    5   25 ar  
     9    5   30 1   
    10    6    7 1   
    11    7    8 1   
    12    7   22 1   
    13    7   23 1   
    14    8    9 ar  
    15    8   14 ar  
    16    9   10 ar  
    17    9   31 1   
    18   10   11 ar  
    19   10   32 1   
    20   11   12 1   
    21   11   13 ar  
    22   12   33 1   
    23   13   14 ar  
    24   13   34 1   
    25   14   15 1   
    26   15   16 1   
    27   16   17 ar  
    28   16   22 ar  
    29   17   18 ar  
    30   17   35 1   
    31   18   19 1   
    32   18   20 ar  
    33   19   36 1   
    34   20   21 ar  
    35   20   37 1   
    36   21   22 ar  
    37   21   38 1   
    38   23   24 ar  
    39   24   25 ar  
    40   24   39 1   
    41   25   26 1   
    42   26   27 1   
    43   26   28 1   
@<TRIPOS>SUBSTRUCTURE
     1 F6Y         1 TEMP              0 ****  ****    0 ROOT
