@<TRIPOS>MOLECULE
F6Y
   39    37     1     0     0
SMALL
bcc


@<TRIPOS>ATOM
      1 O1         -3.8790    0.6340   -0.0960 o         1 F6Y     -0.325000
      2 C1         -2.6650    0.6330   -0.1330 c1        1 F6Y      0.350000
      3 C2         -1.8750    0.6190    0.8860 c1        1 F6Y     -0.191000
      4 C3         -2.0950    0.8900    2.2320 c2        1 F6Y     -0.075000
      5 C4         -0.9980    1.0350    3.1120 c1        1 F6Y     -0.125000
      6 O2         -2.0280    0.4500   -1.0490 os        1 F6Y     -0.262000
      7 C5         -0.5540    0.1940   -0.5560 c3        1 F6Y      0.228000
      8 C6         -0.3680   -1.1280   -0.5960 c2        1 F6Y     -0.149000
      9 C7         -1.4050   -2.0150   -0.1790 c2        1 F6Y     -0.025000
     10 C8         -1.2010   -3.3750   -0.2100 c1        1 F6Y     -0.238000
     11 C9         -0.0080   -3.8750   -0.6380 c1        1 F6Y      0.104000
     12 O3          0.6100   -5.1280   -0.4750 oh        1 F6Y     -0.256000
     13 C11         0.9870   -3.0210   -1.0380 c1        1 F6Y     -0.186000
     14 C12         0.7730   -1.6050   -1.0060 c1        1 F6Y      0.122000
     15 O4          1.5130   -0.9260   -1.3770 os        1 F6Y     -0.141000
     16 C13         1.2530    0.2360   -1.4210 c2        1 F6Y      0.122000
     17 C14         2.1190    1.1240   -2.0620 c2        1 F6Y     -0.186000
     18 C15         1.7140    2.4600   -2.3030 c1        1 F6Y      0.104000
     19 O5          2.5360    3.2140   -3.1590 o         1 F6Y     -0.256000
     20 C16         0.4090    2.9050   -1.8890 c2        1 F6Y     -0.238000
     21 C17        -0.4700    2.0130   -1.2420 c1        1 F6Y     -0.025000
     22 C18        -0.0730    0.6870   -1.0000 c1        1 F6Y     -0.149000
     23 C19        -0.5100    0.4840    0.3830 c2        1 F6Y     -0.121000
     24 C20         0.5710    0.6270    1.2580 c2        1 F6Y     -0.075000
     25 C21         0.3430    0.9010    2.6190 c1        1 F6Y     -0.075000
     26 C22         1.5110    0.9960    3.5760 c2        1 F6Y      0.355000
     27 O6          1.7860    0.0260    4.3320 o         1 F6Y     -0.549000
     28 O7          2.1840    2.0580    3.6450 o         1 F6Y     -0.549000
     29 H3         -3.0050    1.0100    2.5630 ha        1 F6Y      0.132000
     30 H4         -1.1540    1.2250    4.0570 ha        1 F6Y      0.165000
     31 H7         -2.2600   -1.6560    0.1280 ha        1 F6Y      0.157000
     32 H8         -1.8990   -3.9810    0.1040 ha        1 F6Y      0.135000
     33 HA          0.0720   -5.6670   -0.0160 ho        1 F6Y      0.217000
     34 H11         1.8430   -3.3790   -1.3450 ha        1 F6Y      0.162000
     35 H14         3.0080    0.8260   -2.3380 ha        1 F6Y      0.162000
     36 H5          2.9470    3.8520   -2.6900 ho        1 F6Y      0.217000
     37 H16         0.1330    3.8260   -2.0560 ha        1 F6Y      0.135000
     38 H17        -1.3500    2.3210   -0.9490 ha        1 F6Y      0.157000
     39 H20         1.4830    0.5080    0.9300 ha        1 F6Y      0.173000
@<TRIPOS>BOND
     1    1    2 1   
     2    2    6 1   
     3    3    4 1   
     4    3   23 1   
     5    4    5 1   
     6    4   29 1   
     7    5   30 1   
     8    6    7 1   
     9    7    8 1   
    10    7   22 1   
    11    7   23 1   
    12    8    9 1   
    13    8   14 1   
    14    9   10 1   
    15    9   31 1   
    16   10   32 1   
    17   11   12 1   
    18   11   13 1   
    19   12   33 1   
    20   13   34 1   
    21   14   15 1   
    22   15   16 1   
    23   16   17 1   
    24   16   22 1   
    25   17   18 1   
    26   17   35 1   
    27   18   20 1   
    28   19   36 1   
    29   20   21 1   
    30   20   37 1   
    31   21   38 1   
    32   23   24 1   
    33   24   25 1   
    34   24   39 1   
    35   25   26 1   
    36   26   27 1   
    37   26   28 1   
@<TRIPOS>SUBSTRUCTURE
     1 F6Y         1 TEMP              0 ****  ****    0 ROOT
