@<TRIPOS>MOLECULE
F6Z
   39    43     1     0     0
SMALL
bcc


@<TRIPOS>ATOM
      1 O1          1.3510    0.0150    3.4890 o         1 F6Z     -0.586500
      2 C1          1.0770    0.0110    2.2930 c         1 F6Z      0.733200
      3 C2          1.8390    0.0130    1.0390 ca        1 F6Z     -0.211600
      4 C3          3.2000    0.0200    0.7980 ca        1 F6Z     -0.017000
      5 C4          3.6420    0.0200   -0.5390 ca        1 F6Z     -0.137600
      6 O2         -0.2920    0.0030    2.0080 os        1 F6Z     -0.429900
      7 C5         -0.5010   -0.0010    0.5500 c3        1 F6Z      0.319700
      8 C6         -1.2700    1.2360    0.1980 ca        1 F6Z     -0.156300
      9 C7         -0.7800    2.4970    0.5600 ca        1 F6Z     -0.024000
     10 C8         -1.4710    3.6570    0.2320 ca        1 F6Z     -0.238000
     11 C9         -2.6830    3.5590   -0.4720 ca        1 F6Z      0.147100
     12 O3         -3.4180    4.6680   -0.8300 oh        1 F6Z     -0.502100
     13 C11        -3.2090    2.3180   -0.8450 ca        1 F6Z     -0.187000
     14 C12        -2.4860    1.1670   -0.4960 ca        1 F6Z      0.160100
     15 O4         -3.0760   -0.0190   -0.9110 os        1 F6Z     -0.232200
     16 C13        -2.4730   -1.1960   -0.4910 ca        1 F6Z      0.160100
     17 C14        -3.1830   -2.3570   -0.8350 ca        1 F6Z     -0.187000
     18 C15        -2.6420   -3.5910   -0.4570 ca        1 F6Z      0.147100
     19 O5         -3.3650   -4.7090   -0.8100 oh        1 F6Z     -0.502100
     20 C16        -1.4290   -3.6710    0.2470 ca        1 F6Z     -0.238000
     21 C17        -0.7510   -2.5030    0.5710 ca        1 F6Z     -0.024000
     22 C18        -1.2560   -1.2490    0.2030 ca        1 F6Z     -0.156300
     23 C19         0.9020    0.0050   -0.0310 ca        1 F6Z     -0.124300
     24 C20         1.3340    0.0050   -1.3410 ca        1 F6Z     -0.122000
     25 C21         2.7190    0.0130   -1.5830 ca        1 F6Z     -0.083000
     26 O6          5.9300    0.0340    0.1430 o         1 F6Z     -0.817800
     27 C25         5.1400    0.0280   -0.8400 c         1 F6Z      0.909200
     28 O7          5.4890    0.0270   -2.0520 o         1 F6Z     -0.817800
     29 H3          3.9490    0.0260    1.6070 ha        1 F6Z      0.177000
     30 H21         3.1060    0.0130   -2.6160 ha        1 F6Z      0.164000
     31 H7          0.1720    2.5550    1.1140 ha        1 F6Z      0.157000
     32 H8         -1.0730    4.6400    0.5170 ha        1 F6Z      0.136000
     33 HA         -2.9320    5.4510   -0.5330 ho        1 F6Z      0.418000
     34 H11        -4.1580    2.2440   -1.3920 ha        1 F6Z      0.162000
     35 H14        -4.1320   -2.2960   -1.3820 ha        1 F6Z      0.162000
     36 H5         -2.8700   -5.4850   -0.5100 ho        1 F6Z      0.418000
     37 H16        -1.0210   -4.6490    0.5370 ha        1 F6Z      0.136000
     38 H17         0.2010   -2.5480    1.1250 ha        1 F6Z      0.157000
     39 H20         0.6230   -0.0010   -2.1770 ha        1 F6Z      0.128000
@<TRIPOS>BOND
     1    1    2 2   
     2    2    3 1   
     3    2    6 1   
     4    3    4 ar  
     5    3   23 ar  
     6    4    5 ar  
     7    4   29 1   
     8    5   25 ar  
     9    5   27 1   
    10    6    7 1   
    11    7    8 1   
    12    7   22 1   
    13    7   23 1   
    14    8    9 ar  
    15    8   14 ar  
    16    9   10 ar  
    17    9   31 1   
    18   10   11 ar  
    19   10   32 1   
    20   11   12 1   
    21   11   13 ar  
    22   12   33 1   
    23   13   14 ar  
    24   13   34 1   
    25   14   15 1   
    26   15   16 1   
    27   16   17 ar  
    28   16   22 ar  
    29   17   18 ar  
    30   17   35 1   
    31   18   19 1   
    32   18   20 ar  
    33   19   36 1   
    34   20   21 ar  
    35   20   37 1   
    36   21   22 ar  
    37   21   38 1   
    38   23   24 ar  
    39   24   25 ar  
    40   24   39 1   
    41   25   30 1   
    42   26   27 1   
    43   27   28 1   
@<TRIPOS>SUBSTRUCTURE
     1 F6Z         1 TEMP              0 ****  ****    0 ROOT
