@<TRIPOS>MOLECULE
F6Z
   39    43     1     0     0
SMALL
bcc


@<TRIPOS>ATOM
      1 O1          0.0060    0.0850   -0.2510 o         1 F6Z     -0.585500
      2 C1          1.2050    0.0470    0.0020 c         1 F6Z      0.734200
      3 C2          2.0250    0.0170    1.2180 ca        1 F6Z     -0.210600
      4 C3          1.6740    0.0250    2.5560 ca        1 F6Z     -0.017000
      5 C4          2.7030   -0.0080    3.5170 ca        1 F6Z     -0.136600
      6 O2          2.0380    0.0270   -1.1220 os        1 F6Z     -0.430900
      7 C5          3.4480   -0.0140   -0.7010 c3        1 F6Z      0.319700
      8 C6          4.1180    1.2190   -1.2330 ca        1 F6Z     -0.155300
      9 C7          3.5850    2.4850   -0.9590 ca        1 F6Z     -0.027500
     10 C8          4.2020    3.6380   -1.4270 ca        1 F6Z     -0.210000
     11 C9          5.3780    3.5300   -2.1880 ca        1 F6Z      0.148100
     12 O3          6.0410    4.6320   -2.6810 oh        1 F6Z     -0.500600
     13 C11         5.9350    2.2830   -2.4910 ca        1 F6Z     -0.216000
     14 C12         5.2850    1.1380   -2.0050 ca        1 F6Z      0.161600
     15 O4          5.9090   -0.0560   -2.3420 os        1 F6Z     -0.235200
     16 C13         5.2250   -1.2220   -2.0300 ca        1 F6Z      0.161600
     17 C14         5.8150   -2.3890   -2.5440 ca        1 F6Z     -0.216000
     18 C15         5.1970   -3.6130   -2.2740 ca        1 F6Z      0.148100
     19 O5          5.7030   -4.8060   -2.7380 oh        1 F6Z     -0.500600
     20 C16         4.0150   -3.6830   -1.5140 ca        1 F6Z     -0.210000
     21 C17         3.4600   -2.5110   -1.0190 ca        1 F6Z     -0.027500
     22 C18         4.0560   -1.2650   -1.2610 ca        1 F6Z     -0.155300
     23 C19         3.3880   -0.0250    0.8150 ca        1 F6Z     -0.123300
     24 C20         4.3960   -0.0600    1.7560 ca        1 F6Z     -0.122000
     25 C21         4.0360   -0.0520    3.1160 ca        1 F6Z     -0.082000
     26 O6          1.1270    0.0500    5.3100 o         1 F6Z     -0.817800
     27 C25         2.3500    0.0070    5.0030 c         1 F6Z      0.910200
     28 O7          3.3050   -0.0230    5.8270 o         1 F6Z     -0.817800
     29 H3          0.6260    0.0570    2.8970 ha        1 F6Z      0.177000
     30 H21         4.8130   -0.0790    3.9000 ha        1 F6Z      0.164000
     31 H7          2.6610    2.5520   -0.3610 ha        1 F6Z      0.158000
     32 H8          3.7780    4.6250   -1.2000 ha        1 F6Z      0.144500
     33 HA          5.5660    5.4190   -2.3790 ho        1 F6Z      0.417000
     34 H11         6.8510    2.2000   -3.0890 ha        1 F6Z      0.154000
     35 H14         6.7350   -2.3230   -3.1380 ha        1 F6Z      0.154000
     36 H5          6.5190   -4.6140   -3.2230 ho        1 F6Z      0.417000
     37 H16         3.5510   -4.6600   -1.3210 ha        1 F6Z      0.144500
     38 H17         2.5330   -2.5460   -0.4220 ha        1 F6Z      0.158000
     39 H20         5.4530   -0.0940    1.4610 ha        1 F6Z      0.128000
@<TRIPOS>BOND
     1    1    2 2   
     2    2    3 1   
     3    2    6 1   
     4    3    4 ar  
     5    3   23 ar  
     6    4    5 ar  
     7    4   29 1   
     8    5   25 ar  
     9    5   27 1   
    10    6    7 1   
    11    7    8 1   
    12    7   22 1   
    13    7   23 1   
    14    8    9 ar  
    15    8   14 ar  
    16    9   10 ar  
    17    9   31 1   
    18   10   11 ar  
    19   10   32 1   
    20   11   12 1   
    21   11   13 ar  
    22   12   33 1   
    23   13   14 ar  
    24   13   34 1   
    25   14   15 1   
    26   15   16 1   
    27   16   17 ar  
    28   16   22 ar  
    29   17   18 ar  
    30   17   35 1   
    31   18   19 1   
    32   18   20 ar  
    33   19   36 1   
    34   20   21 ar  
    35   20   37 1   
    36   21   22 ar  
    37   21   38 1   
    38   23   24 ar  
    39   24   25 ar  
    40   24   39 1   
    41   25   30 1   
    42   26   27 1   
    43   27   28 1   
@<TRIPOS>SUBSTRUCTURE
     1 F6Z         1 TEMP              0 ****  ****    0 ROOT
