@<TRIPOS>MOLECULE
F6Z
   39    43     1     0     0
SMALL
bcc


@<TRIPOS>ATOM
      1 O1         -0.0460   -0.0240   -0.1750 o         1 F6Z     -0.584500
      2 C1          1.1600   -0.0180    0.0480 c         1 F6Z      0.734200
      3 C2          2.0100   -0.0110    1.2430 ca        1 F6Z     -0.210600
      4 C3          1.6940   -0.0070    2.5890 ca        1 F6Z     -0.016000
      5 C4          2.7480    0.0010    3.5230 ca        1 F6Z     -0.136600
      6 O2          1.9640   -0.0190   -1.0970 os        1 F6Z     -0.430900
      7 C5          3.3840   -0.0120   -0.7120 c3        1 F6Z      0.319700
      8 C6          4.0070    1.2300   -1.2780 ca        1 F6Z     -0.153300
      9 C7          3.4210    2.4840   -1.0520 ca        1 F6Z     -0.030000
     10 C8          3.9940    3.6470   -1.5480 ca        1 F6Z     -0.182000
     11 C9          5.1840    3.5590   -2.2920 ca        1 F6Z      0.148100
     12 O3          5.7090    4.7440   -2.7580 oh        1 F6Z     -0.499100
     13 C11         5.7920    2.3270   -2.5480 ca        1 F6Z     -0.245000
     14 C12         5.1840    1.1710   -2.0340 ca        1 F6Z      0.163100
     15 O4          5.8580   -0.0070   -2.3280 os        1 F6Z     -0.238200
     16 C13         5.1930   -1.1890   -2.0260 ca        1 F6Z      0.163100
     17 C14         5.8110   -2.3440   -2.5310 ca        1 F6Z     -0.245000
     18 C15         5.2140   -3.5790   -2.2670 ca        1 F6Z      0.148100
     19 O5          5.7480   -4.7630   -2.7240 oh        1 F6Z     -0.499100
     20 C16         4.0250   -3.6710   -1.5220 ca        1 F6Z     -0.182000
     21 C17         3.4420   -2.5100   -1.0340 ca        1 F6Z     -0.030000
     22 C18         4.0170   -1.2530   -1.2690 ca        1 F6Z     -0.153300
     23 C19         3.3640   -0.0060    0.8060 ca        1 F6Z     -0.122300
     24 C20         4.3960    0.0010    1.7200 ca        1 F6Z     -0.122000
     25 C21         4.0710    0.0050    3.0880 ca        1 F6Z     -0.082000
     26 O6          1.2180    0.0010    5.3570 o         1 F6Z     -0.817800
     27 C25         2.4320    0.0050    5.0180 c         1 F6Z      0.910200
     28 O7          3.4090    0.0120    5.8170 o         1 F6Z     -0.817800
     29 H3          0.6540   -0.0100    2.9580 ha        1 F6Z      0.177000
     30 H21         4.8670    0.0110    3.8520 ha        1 F6Z      0.164000
     31 H7          2.4870    2.5330   -0.4670 ha        1 F6Z      0.159000
     32 H8          3.5380    4.6300   -1.3670 ha        1 F6Z      0.153000
     33 HA          6.5300    4.5410   -3.2280 ho        1 F6Z      0.416000
     34 H11         6.7180    2.2480   -3.1310 ha        1 F6Z      0.146000
     35 H14         6.7370   -2.2610   -3.1150 ha        1 F6Z      0.146000
     36 H5          6.5680   -4.5560   -3.1950 ho        1 F6Z      0.416000
     37 H16         3.5770   -4.6560   -1.3330 ha        1 F6Z      0.153000
     38 H17         2.5080   -2.5620   -0.4480 ha        1 F6Z      0.159000
     39 H20         5.4460    0.0040    1.3980 ha        1 F6Z      0.127000
@<TRIPOS>BOND
     1    1    2 2   
     2    2    3 1   
     3    2    6 1   
     4    3    4 ar  
     5    3   23 ar  
     6    4    5 ar  
     7    4   29 1   
     8    5   25 ar  
     9    5   27 1   
    10    6    7 1   
    11    7    8 1   
    12    7   22 1   
    13    7   23 1   
    14    8    9 ar  
    15    8   14 ar  
    16    9   10 ar  
    17    9   31 1   
    18   10   11 ar  
    19   10   32 1   
    20   11   12 1   
    21   11   13 ar  
    22   12   33 1   
    23   13   14 ar  
    24   13   34 1   
    25   14   15 1   
    26   15   16 1   
    27   16   17 ar  
    28   16   22 ar  
    29   17   18 ar  
    30   17   35 1   
    31   18   19 1   
    32   18   20 ar  
    33   19   36 1   
    34   20   21 ar  
    35   20   37 1   
    36   21   22 ar  
    37   21   38 1   
    38   23   24 ar  
    39   24   25 ar  
    40   24   39 1   
    41   25   30 1   
    42   26   27 1   
    43   27   28 1   
@<TRIPOS>SUBSTRUCTURE
     1 F6Z         1 TEMP              0 ****  ****    0 ROOT
