@<TRIPOS>MOLECULE
F70
   34    36     1     0     0
SMALL
bcc


@<TRIPOS>ATOM
      1 NAB        -7.1170   -2.6680    0.6430 n1        1 F70     -0.339800
      2 CAC        -6.7050   -1.6150    0.3760 c1        1 F70      0.207700
      3 CAD        -6.2150   -0.2910    0.0380 c3        1 F70      0.204500
      4 OAE        -4.7780   -0.3510    0.1000 os        1 F70     -0.433900
      5 CAF        -4.1190    0.8160   -0.2070 c         1 F70      0.652700
      6 OAG        -4.8060    1.7960   -0.5040 o         1 F70     -0.533000
      7 CAH        -2.6560    0.7120   -0.1330 ca        1 F70     -0.121600
      8 CAK        -2.0250   -0.4860    0.2210 ca        1 F70     -0.074500
      9 CAL        -0.6340   -0.5440    0.2810 ca        1 F70     -0.113000
     10 CAI        -1.8930    1.8500   -0.4280 ca        1 F70     -0.074500
     11 CAJ        -0.5040    1.7900   -0.3670 ca        1 F70     -0.113000
     12 CAM         0.1330    0.5930   -0.0070 ca        1 F70     -0.035800
     13 CAN         1.5950    0.5420    0.0750 cc        1 F70      0.181900
     14 OAO         2.0700   -0.7340   -0.1910 os        1 F70     -0.224200
     15 CAP         3.4450   -0.9170   -0.1390 ca        1 F70      0.141100
     16 CAQ         3.8850   -2.2240   -0.4160 ca        1 F70     -0.158000
     17 CAR         5.2480   -2.4870   -0.3830 ca        1 F70     -0.076000
     18 CAS         6.1650   -1.4730   -0.0800 ca        1 F70     -0.163000
     19 CAT         5.7210   -0.1850    0.1910 ca        1 F70     -0.046000
     20 CAU         4.3490    0.1120    0.1650 ca        1 F70     -0.214600
     21 CAV         3.8510    1.4660    0.4480 c         1 F70      0.588900
     22 OAW         4.5910    2.4210    0.7200 o         1 F70     -0.538100
     23 CAX         2.3940    1.5900    0.3800 cd        1 F70     -0.304200
     24 H1         -6.5290    0.0010   -1.0020 h1        1 F70      0.087700
     25 H2         -6.5840    0.4750    0.7750 h1        1 F70      0.087700
     26 H3         -2.6290   -1.3790    0.4500 ha        1 F70      0.164000
     27 H4         -0.1320   -1.4860    0.5540 ha        1 F70      0.155000
     28 H5         -2.4020    2.7870   -0.7100 ha        1 F70      0.164000
     29 H6          0.0930    2.6830   -0.6100 ha        1 F70      0.155000
     30 H7          3.1520   -3.0080   -0.6530 ha        1 F70      0.155000
     31 H8          5.6100   -3.5050   -0.5970 ha        1 F70      0.142000
     32 H9          7.2410   -1.7000   -0.0580 ha        1 F70      0.143000
     33 H10         6.4300    0.6250    0.4310 ha        1 F70      0.162000
     34 H11         1.9730    2.5830    0.6000 ha        1 F70      0.170000
@<TRIPOS>BOND
     1    1    2 3   
     2    2    3 1   
     3    3    4 1   
     4    3   24 1   
     5    3   25 1   
     6    4    5 1   
     7    5    6 2   
     8    5    7 1   
     9    7    8 ar  
    10    7   10 ar  
    11    8    9 ar  
    12    8   26 1   
    13    9   12 ar  
    14    9   27 1   
    15   10   11 ar  
    16   10   28 1   
    17   11   12 ar  
    18   11   29 1   
    19   12   13 1   
    20   13   14 1   
    21   13   23 2   
    22   14   15 1   
    23   15   16 ar  
    24   15   20 ar  
    25   16   17 ar  
    26   16   30 1   
    27   17   18 ar  
    28   17   31 1   
    29   18   19 ar  
    30   18   32 1   
    31   19   20 ar  
    32   19   33 1   
    33   20   21 1   
    34   21   22 2   
    35   21   23 1   
    36   23   34 1   
@<TRIPOS>SUBSTRUCTURE
     1 F70         1 TEMP              0 ****  ****    0 ROOT
