@<TRIPOS>MOLECULE
F70
   34    29     1     0     0
SMALL
bcc


@<TRIPOS>ATOM
      1 NAB        -7.8970   -0.4630    1.4610 n1        1 F70     -0.015000
      2 CAC        -7.3550   -0.7930    0.4710 c1        1 F70     -0.170000
      3 CAD        -6.6440   -1.2250   -0.8240 c2        1 F70      0.077000
      4 OAE        -5.2300   -1.3430   -0.5790 os        1 F70     -0.269000
      5 CAF        -4.5410   -0.1140   -0.5980 c2        1 F70      0.350000
      6 OAG        -5.1570    0.9220   -0.6830 o         1 F70     -0.336000
      7 CAH        -2.9900   -0.0870   -0.4310 c2        1 F70     -0.100000
      8 CAK        -2.1730   -0.2010   -1.5440 c2        1 F70     -0.077000
      9 CAL        -0.7860   -0.2780   -1.3880 c1        1 F70     -0.107000
     10 CAI        -2.4280   -0.0490    0.8420 c1        1 F70     -0.072000
     11 CAJ        -1.0500   -0.1250    0.9960 c1        1 F70     -0.119000
     12 CAM        -0.2290   -0.2400   -0.1230 c1        1 F70     -0.024000
     13 CAN         1.2960   -0.1960    0.0400 c2        1 F70      0.111000
     14 OAO         1.9920    1.0720   -0.0040 os        1 F70     -0.135000
     15 CAP         3.4770    1.1300    0.2740 c2        1 F70      0.111000
     16 CAQ         4.1330    2.3710    0.3380 c2        1 F70     -0.158000
     17 CAR         5.5280    2.4190    0.5010 c1        1 F70     -0.076000
     18 CAS         6.2580    1.2400    0.5990 c1        1 F70     -0.104500
     19 CAT         5.6060    0.0010    0.5360 c1        1 F70     -0.104500
     20 CAU         4.2140   -0.0520    0.3730 c1        1 F70     -0.194000
     21 CAV         3.4940   -1.4050    0.3610 c1        1 F70      0.310000
     22 OAW         4.1390   -2.4390    0.3780 o         1 F70     -0.299000
     23 CAX         2.0580   -1.4500    0.2700 c1        1 F70     -0.286000
     24 H1         -7.0010   -2.0990   -1.1190 h4        1 F70      0.139000
     25 H2         -6.8020   -0.5450   -1.5310 h4        1 F70      0.139000
     26 H3         -2.5790   -0.2280   -2.4660 ha        1 F70      0.164000
     27 H4         -0.2250   -0.3560   -2.1540 ha        1 F70      0.158000
     28 H5         -2.9950    0.0290    1.6160 ha        1 F70      0.162000
     29 H6         -0.6500   -0.0980    1.9050 ha        1 F70      0.151000
     30 H7          3.6380    3.1700    0.2720 ha        1 F70      0.155000
     31 H8          5.9960    3.3000    0.5470 ha        1 F70      0.142000
     32 H9          7.2070    1.2760    0.7110 ha        1 F70      0.152500
     33 H10         6.1180   -0.8210    0.6040 ha        1 F70      0.152500
     34 H11         1.5760   -2.3270    0.3460 ha        1 F70      0.169000
@<TRIPOS>BOND
     1    1    2 1   
     2    3    4 1   
     3    3   24 1   
     4    3   25 1   
     5    4    5 1   
     6    5    6 1   
     7    5    7 1   
     8    7    8 1   
     9    7   10 1   
    10    8    9 1   
    11    8   26 1   
    12    9   27 1   
    13   10   28 1   
    14   11   12 1   
    15   11   29 1   
    16   12   13 1   
    17   13   14 1   
    18   13   23 1   
    19   14   15 1   
    20   15   16 1   
    21   15   20 1   
    22   16   17 1   
    23   16   30 1   
    24   17   31 1   
    25   18   19 1   
    26   18   32 1   
    27   19   33 1   
    28   21   22 1   
    29   23   34 1   
@<TRIPOS>SUBSTRUCTURE
     1 F70         1 TEMP              0 ****  ****    0 ROOT
