@<TRIPOS>MOLECULE
F70
   34    36     1     0     0
SMALL
bcc


@<TRIPOS>ATOM
      1 NAB        -0.5070    0.6890   -2.5630 n1        1 F70     -0.339800
      2 CAC        -0.2280    0.4320   -1.4650 c1        1 F70      0.207700
      3 CAD         0.0950    0.1080   -0.0870 c3        1 F70      0.204500
      4 OAE         1.5300    0.1520    0.0250 os        1 F70     -0.433900
      5 CAF         2.0400   -0.1520    1.2640 c         1 F70      0.652700
      6 OAG         1.2370   -0.4300    2.1580 o         1 F70     -0.533000
      7 CAH         3.5060   -0.0960    1.3360 ca        1 F70     -0.121600
      8 CAK         4.2810    0.2390    0.2190 ca        1 F70     -0.074500
      9 CAL         5.6690    0.2820    0.3270 ca        1 F70     -0.113000
     10 CAI         4.1240   -0.3910    2.5590 ca        1 F70     -0.074500
     11 CAJ         5.5110   -0.3480    2.6650 ca        1 F70     -0.113000
     12 CAM         6.2910   -0.0050    1.5500 ca        1 F70     -0.035800
     13 CAN         7.7500    0.0580    1.6740 cc        1 F70      0.181900
     14 OAO         8.3700   -0.2250    0.4650 os        1 F70     -0.224200
     15 CAP         9.7570   -0.1910    0.4470 ca        1 F70      0.141100
     16 CAQ        10.3460   -0.4840   -0.7960 ca        1 F70     -0.158000
     17 CAR        11.7320   -0.4700   -0.8940 ca        1 F70     -0.076000
     18 CAS        12.5250   -0.1700    0.2200 ca        1 F70     -0.163000
     19 CAT        11.9340    0.1170    1.4440 ca        1 F70     -0.046000
     20 CAU        10.5360    0.1110    1.5750 ca        1 F70     -0.214600
     21 CAV         9.8840    0.4100    2.8570 c         1 F70      0.588900
     22 OAW        10.5080    0.6810    3.8920 o         1 F70     -0.538100
     23 CAX         8.4220    0.3620    2.8070 cd        1 F70     -0.304200
     24 H1         -0.3520    0.8610    0.6190 h1        1 F70      0.088200
     25 H2         -0.2660   -0.9230    0.1790 h1        1 F70      0.088200
     26 H3          3.7900    0.4670   -0.7410 ha        1 F70      0.164000
     27 H4          6.2840    0.5400   -0.5500 ha        1 F70      0.155000
     28 H5          3.5030   -0.6580    3.4310 ha        1 F70      0.164000
     29 H6          5.9940   -0.5890    3.6250 ha        1 F70      0.155000
     30 H7          9.7090   -0.7190   -1.6600 ha        1 F70      0.155000
     31 H8         12.2100   -0.6970   -1.8600 ha        1 F70      0.142000
     32 H9         13.6210   -0.1630    0.1230 ha        1 F70      0.143000
     33 H10        12.5440    0.3550    2.3310 ha        1 F70      0.162000
     34 H11         7.8880    0.5960    3.7410 ha        1 F70      0.170000
@<TRIPOS>BOND
     1    1    2 3   
     2    2    3 1   
     3    3    4 1   
     4    3   24 1   
     5    3   25 1   
     6    4    5 1   
     7    5    6 2   
     8    5    7 1   
     9    7    8 ar  
    10    7   10 ar  
    11    8    9 ar  
    12    8   26 1   
    13    9   12 ar  
    14    9   27 1   
    15   10   11 ar  
    16   10   28 1   
    17   11   12 ar  
    18   11   29 1   
    19   12   13 1   
    20   13   14 1   
    21   13   23 2   
    22   14   15 1   
    23   15   16 ar  
    24   15   20 ar  
    25   16   17 ar  
    26   16   30 1   
    27   17   18 ar  
    28   17   31 1   
    29   18   19 ar  
    30   18   32 1   
    31   19   20 ar  
    32   19   33 1   
    33   20   21 1   
    34   21   22 2   
    35   21   23 1   
    36   23   34 1   
@<TRIPOS>SUBSTRUCTURE
     1 F70         1 TEMP              0 ****  ****    0 ROOT
