@<TRIPOS>MOLECULE
F70
   34    36     1     0     0
SMALL
bcc


@<TRIPOS>ATOM
      1 NAB        -0.4830   -0.6030   -2.6410 n1        1 F70     -0.339800
      2 CAC        -0.2090   -0.3580   -1.5390 c1        1 F70      0.207700
      3 CAD         0.1070   -0.0490   -0.1570 c3        1 F70      0.204500
      4 OAE         1.5410   -0.1090   -0.0350 os        1 F70     -0.433900
      5 CAF         2.0460    0.1760    1.2110 c         1 F70      0.652700
      6 OAG         1.2390    0.4530    2.1020 o         1 F70     -0.533000
      7 CAH         3.5100    0.1040    1.2930 ca        1 F70     -0.121600
      8 CAK         4.2900   -0.2260    0.1780 ca        1 F70     -0.074500
      9 CAL         5.6760   -0.2850    0.2960 ca        1 F70     -0.113000
     10 CAI         4.1220    0.3790    2.5240 ca        1 F70     -0.074500
     11 CAJ         5.5080    0.3210    2.6390 ca        1 F70     -0.113000
     12 CAM         6.2920   -0.0170    1.5260 ca        1 F70     -0.035800
     13 CAN         7.7500   -0.0970    1.6600 cc        1 F70      0.181900
     14 OAO         8.3820    0.1930    0.4590 os        1 F70     -0.224200
     15 CAP         9.7680    0.1440    0.4510 ca        1 F70      0.141100
     16 CAQ        10.3700    0.4460   -0.7850 ca        1 F70     -0.158000
     17 CAR        11.7560    0.4180   -0.8730 ca        1 F70     -0.076000
     18 CAS        12.5370    0.0980    0.2440 ca        1 F70     -0.163000
     19 CAT        11.9340   -0.1970    1.4600 ca        1 F70     -0.046000
     20 CAU        10.5360   -0.1780    1.5800 ca        1 F70     -0.214600
     21 CAV         9.8710   -0.4850    2.8550 c         1 F70      0.588900
     22 OAW        10.4850   -0.7740    3.8910 o         1 F70     -0.538100
     23 CAX         8.4100   -0.4210    2.7950 cd        1 F70     -0.304200
     24 H1         -0.2440    0.9840    0.1150 h1        1 F70      0.088200
     25 H2         -0.3520   -0.8030    0.5400 h1        1 F70      0.088200
     26 H3          3.8040   -0.4390   -0.7880 ha        1 F70      0.164000
     27 H4          6.2950   -0.5400   -0.5800 ha        1 F70      0.155000
     28 H5          3.4980    0.6430    3.3940 ha        1 F70      0.164000
     29 H6          5.9860    0.5460    3.6050 ha        1 F70      0.155000
     30 H7          9.7420    0.6970   -1.6510 ha        1 F70      0.155000
     31 H8         12.2430    0.6520   -1.8330 ha        1 F70      0.142000
     32 H9         13.6340    0.0810    0.1550 ha        1 F70      0.143000
     33 H10        12.5350   -0.4510    2.3490 ha        1 F70      0.162000
     34 H11         7.8670   -0.6590    3.7220 ha        1 F70      0.170000
@<TRIPOS>BOND
     1    1    2 3   
     2    2    3 1   
     3    3    4 1   
     4    3   24 1   
     5    3   25 1   
     6    4    5 1   
     7    5    6 2   
     8    5    7 1   
     9    7    8 ar  
    10    7   10 ar  
    11    8    9 ar  
    12    8   26 1   
    13    9   12 ar  
    14    9   27 1   
    15   10   11 ar  
    16   10   28 1   
    17   11   12 ar  
    18   11   29 1   
    19   12   13 1   
    20   13   14 1   
    21   13   23 2   
    22   14   15 1   
    23   15   16 ar  
    24   15   20 ar  
    25   16   17 ar  
    26   16   30 1   
    27   17   18 ar  
    28   17   31 1   
    29   18   19 ar  
    30   18   32 1   
    31   19   20 ar  
    32   19   33 1   
    33   20   21 1   
    34   21   22 2   
    35   21   23 1   
    36   23   34 1   
@<TRIPOS>SUBSTRUCTURE
     1 F70         1 TEMP              0 ****  ****    0 ROOT
