@<TRIPOS>MOLECULE
F70
   34    36     1     0     0
SMALL
bcc


@<TRIPOS>ATOM
      1 NAB        -0.4880    0.6930   -2.6110 n1        1 F70     -0.339800
      2 CAC        -0.2120    0.4010   -1.5210 c1        1 F70      0.207700
      3 CAD         0.1070    0.0330   -0.1540 c3        1 F70      0.204500
      4 OAE         1.5400    0.0970   -0.0300 os        1 F70     -0.433900
      5 CAF         2.0470   -0.2380    1.2040 c         1 F70      0.652700
      6 OAG         1.2420   -0.5570    2.0820 o         1 F70     -0.533000
      7 CAH         3.5110   -0.1600    1.2880 ca        1 F70     -0.121600
      8 CAK         4.2880    0.2210    0.1880 ca        1 F70     -0.074500
      9 CAL         5.6750    0.2830    0.3070 ca        1 F70     -0.113000
     10 CAI         4.1250   -0.4820    2.5060 ca        1 F70     -0.074500
     11 CAJ         5.5110   -0.4190    2.6240 ca        1 F70     -0.113000
     12 CAM         6.2920   -0.0310    1.5260 ca        1 F70     -0.035800
     13 CAN         7.7500    0.0520    1.6630 cc        1 F70      0.181900
     14 OAO         8.3830   -0.1850    0.4510 os        1 F70     -0.224200
     15 CAP         9.7690   -0.1280    0.4450 ca        1 F70      0.141100
     16 CAQ        10.3720   -0.3750   -0.8020 ca        1 F70     -0.158000
     17 CAR        11.7580   -0.3360   -0.8890 ca        1 F70     -0.076000
     18 CAS        12.5380   -0.0570    0.2390 ca        1 F70     -0.163000
     19 CAT        11.9330    0.1850    1.4660 ca        1 F70     -0.046000
     20 CAU        10.5350    0.1520    1.5860 ca        1 F70     -0.214600
     21 CAV         9.8690    0.4040    2.8720 c         1 F70      0.588900
     22 OAW        10.4810    0.6540    3.9190 o         1 F70     -0.538100
     23 CAX         8.4080    0.3330    2.8090 cd        1 F70     -0.304200
     24 H1         -0.3570    0.7520    0.5760 h1        1 F70      0.087700
     25 H2         -0.2370   -1.0140    0.0730 h1        1 F70      0.087700
     26 H3          3.8010    0.4700   -0.7690 ha        1 F70      0.164000
     27 H4          6.2910    0.5770   -0.5570 ha        1 F70      0.155000
     28 H5          3.5030   -0.7850    3.3650 ha        1 F70      0.164000
     29 H6          5.9900   -0.6820    3.5800 ha        1 F70      0.155000
     30 H7          9.7450   -0.5940   -1.6780 ha        1 F70      0.155000
     31 H8         12.2460   -0.5270   -1.8580 ha        1 F70      0.142000
     32 H9         13.6340   -0.0290    0.1510 ha        1 F70      0.143000
     33 H10        12.5330    0.4060    2.3650 ha        1 F70      0.162000
     34 H11         7.8640    0.5300    3.7460 ha        1 F70      0.170000
@<TRIPOS>BOND
     1    1    2 3   
     2    2    3 1   
     3    3    4 1   
     4    3   24 1   
     5    3   25 1   
     6    4    5 1   
     7    5    6 2   
     8    5    7 1   
     9    7    8 ar  
    10    7   10 ar  
    11    8    9 ar  
    12    8   26 1   
    13    9   12 ar  
    14    9   27 1   
    15   10   11 ar  
    16   10   28 1   
    17   11   12 ar  
    18   11   29 1   
    19   12   13 1   
    20   13   14 1   
    21   13   23 2   
    22   14   15 1   
    23   15   16 ar  
    24   15   20 ar  
    25   16   17 ar  
    26   16   30 1   
    27   17   18 ar  
    28   17   31 1   
    29   18   19 ar  
    30   18   32 1   
    31   19   20 ar  
    32   19   33 1   
    33   20   21 1   
    34   21   22 2   
    35   21   23 1   
    36   23   34 1   
@<TRIPOS>SUBSTRUCTURE
     1 F70         1 TEMP              0 ****  ****    0 ROOT
