@<TRIPOS>MOLECULE
F71
   75    74     1     0     0
SMALL
bcc


@<TRIPOS>ATOM
      1 C21        35.9920  -45.5380   75.6480 c2        1 F71      0.462000
      2 O22        36.4480  -46.4320   76.4140 o         1 F71     -0.489000
      3 C22        35.9400  -45.7120   74.2300 c1        1 F71     -0.277000
      4 C27        35.3230  -40.5980   72.5350 c1        1 F71     -0.227000
      5 C26        34.5080  -41.4400   72.3050 c1        1 F71     -0.087000
      6 C25        35.2730  -45.1680   70.8100 c2        1 F71     -0.122000
      7 C24        35.8570  -46.0320   71.6480 c2        1 F71     -0.130000
      8 C23        35.8980  -45.8520   73.0390 c1        1 F71      0.033000
      9 O27        33.6660  -42.4430   72.0860 oh        1 F71     -0.172000
     10 N11       -29.3300   34.7840  -60.3230 n7        1 F71     -0.389000
     11 C12       -28.9750   33.7340  -61.2880 c3        1 F71     -0.113000
     12 C13       -27.5740   33.1170  -61.1150 c3        1 F71     -0.105000
     13 C14       -27.6630   31.7940  -60.3880 c3        1 F71     -0.220000
     14 C15       -26.9390   32.9530  -62.4920 c3        1 F71     -0.157000
     15 C17       -29.9440   35.2780  -57.9360 c3        1 F71     -0.048000
     16 C18       -25.5360   32.4080  -62.4180 c3        1 F71     -0.213000
     17 O18       -31.2180   35.6690  -58.4090 oh        1 F71     -0.358000
     18 C19        37.9890  -49.7150   74.5380 c1        1 F71      0.241000
     19 N20        35.5300  -44.3620   76.1640 nt        1 F71     -0.393000
     20 C32        36.7340  -49.2860   75.2680 c3        1 F71     -0.254000
     21 C33        37.5870  -48.3660   77.6760 c2        1 F71      0.196000
     22 C34        38.8620  -48.0020   78.1170 c2        1 F71     -0.234000
     23 C35        40.0180  -48.4580   77.4880 c2        1 F71      0.111000
     24 C36        39.9570  -49.1990   76.2610 c2        1 F71     -0.098000
     25 C37        38.7380  -49.6100   75.8470 c2        1 F71     -0.129000
     26 C38        37.4810  -49.3910   76.6530 c3        1 F71     -0.224000
     27 C1        -33.1380   40.8600  -64.4470 c2        1 F71     -0.165000
     28 N1        -33.6020   41.1530  -63.2150 n2        1 F71      0.054000
     29 O1        -32.8910   40.5350  -62.3130 os        1 F71      0.013000
     30 S1        -29.8610   38.0260  -62.5990 ss        1 F71      1.242000
     31 C2        -30.9970   39.0240  -62.1160 c2        1 F71     -0.443000
     32 C3        -31.8730   39.7630  -62.9470 c2        1 F71     -0.043000
     33 C4        -32.0100   39.9540  -64.3220 c2        1 F71     -0.147000
     34 C5        -29.2740   37.5720  -61.1780 c2        1 F71     -1.661000
     35 C6        -30.0780   38.2670  -60.0720 c3        1 F71     -0.185000
     36 C7        -31.0810   39.1400  -60.6650 c1        1 F71      0.120000
     37 S8        -28.1120   36.7040  -60.7080 s4        1 F71      2.164800
     38 O9        -27.3120   36.1900  -61.6850 o         1 F71     -0.460400
     39 O10       -27.6850   36.8400  -59.4230 o         1 F71     -0.460400
     40 H27        36.0440  -39.8470   72.7270 ha        1 F71      0.246000
     41 H25        34.7760  -44.2450   71.1470 ha        1 F71      0.140000
     42 H24        35.2620  -45.3430   69.7250 ha        1 F71      0.140000
     43 H23        36.3500  -46.9520   71.2790 ha        1 F71      0.153000
     44 HO27       32.8550  -42.0390   71.7190 ho        1 F71      0.240000
     45 H12       -29.7380   32.9030  -61.2550 h1        1 F71      0.104000
     46 H12A      -29.0420   34.2160  -62.3080 h1        1 F71      0.104000
     47 H13       -28.2100   31.0390  -61.0040 hc        1 F71      0.087000
     48 H14       -26.9160   33.8140  -60.5220 hc        1 F71      0.092000
     49 H14A      -26.6370   31.4010  -60.1810 hc        1 F71      0.087000
     50 H14B      -28.1950   31.9110  -59.4130 hc        1 F71      0.087000
     51 H15       -27.5750   32.2740  -63.1180 hc        1 F71      0.088000
     52 H15A      -26.9120   33.9600  -62.9930 hc        1 F71      0.088000
     53 H16       -29.7410   33.3090  -58.8370 h1        1 F71      0.122500
     54 H16A      -28.1770   34.2300  -58.6430 h1        1 F71      0.122500
     55 H17       -29.3570   36.2320  -57.8280 h1        1 F71      0.120500
     56 H18       -24.9100   33.0100  -61.7160 hc        1 F71      0.084000
     57 H18A      -25.0630   32.4430  -63.4300 hc        1 F71      0.084000
     58 H18B      -25.5350   31.3460  -62.0710 hc        1 F71      0.084000
     59 HO18      -31.8770   35.0640  -58.0460 ho        1 F71      0.230000
     60 H19       -30.0030   34.7700  -56.9380 h1        1 F71      0.120500
     61 HN20       35.5430  -44.2160   77.1440 hn        1 F71      0.245000
     62 H32        36.4100  -48.2430   75.0070 hc        1 F71      0.187500
     63 H32A       35.8630  -49.9750   75.1830 hc        1 F71      0.187500
     64 H33        37.1270  -50.3380   77.1710 hc        1 F71      0.219000
     65 H34        36.6700  -47.9430   78.1320 ha        1 F71      0.209000
     66 H35        38.9540  -47.3070   78.9740 ha        1 F71      0.191000
     67 H36        41.0120  -48.1830   77.8930 ha        1 F71      0.186000
     68 H37        40.8750  -49.3460   75.6630 ha        1 F71      0.202000
     69 H4        -31.4250   39.5440  -65.1410 ha        1 F71      0.186000
     70 H6        -30.6220   37.5170  -59.4130 hc        1 F71      0.210500
     71 H7        -29.4130   38.8680  -59.3830 hc        1 F71      0.210500
     72 H111      -30.2870   35.0670  -60.5020 hn        1 F71      0.191000
     73 H202       35.1610  -43.6560   75.5760 hn        1 F71      0.245000
     74 C16       -29.2620   34.3270  -58.9310 c3        1 F71     -0.149000
     75 H1        -33.5730   41.2630  -65.3660 h4        1 F71      0.218000
@<TRIPOS>BOND
     1    1    2 1   
     2    1    3 1   
     3    1   19 1   
     4    3    8 1   
     5    4    5 1   
     6    4   40 1   
     7    5    9 1   
     8    6    7 1   
     9    6   41 1   
    10    6   42 1   
    11    7    8 1   
    12    7   43 1   
    13    9   44 1   
    14   10   11 1   
    15   10   72 1   
    16   10   74 1   
    17   11   12 1   
    18   11   45 1   
    19   11   46 1   
    20   12   13 1   
    21   12   14 1   
    22   12   48 1   
    23   13   47 1   
    24   13   49 1   
    25   13   50 1   
    26   14   16 1   
    27   14   51 1   
    28   14   52 1   
    29   15   17 1   
    30   15   55 1   
    31   15   60 1   
    32   15   74 1   
    33   16   56 1   
    34   16   57 1   
    35   16   58 1   
    36   17   59 1   
    37   18   20 1   
    38   18   25 1   
    39   19   61 1   
    40   19   73 1   
    41   20   26 1   
    42   20   62 1   
    43   20   63 1   
    44   21   22 1   
    45   21   26 1   
    46   21   65 1   
    47   22   23 1   
    48   22   66 1   
    49   23   24 1   
    50   23   67 1   
    51   24   25 1   
    52   24   68 1   
    53   25   26 1   
    54   26   64 1   
    55   27   28 1   
    56   27   33 1   
    57   27   75 1   
    58   28   29 1   
    59   29   32 1   
    60   30   31 1   
    61   30   34 1   
    62   31   32 1   
    63   31   36 1   
    64   32   33 1   
    65   33   69 1   
    66   34   35 1   
    67   34   37 1   
    68   35   36 1   
    69   35   70 1   
    70   35   71 1   
    71   37   38 1   
    72   37   39 1   
    73   53   74 1   
    74   54   74 1   
@<TRIPOS>SUBSTRUCTURE
     1 F71         1 TEMP              0 ****  ****    0 ROOT
