@<TRIPOS>MOLECULE
F71
   73    76     1     0     0
SMALL
bcc


@<TRIPOS>ATOM
      1 C21        -2.5450   -0.9840    0.2780 c         1 F71      0.677700
      2 O22        -1.7260   -1.2030   -0.6420 o         1 F71     -0.627100
      3 C22        -3.3260   -2.0850    0.9110 ca        1 F71     -0.099600
      4 C27        -3.8080   -3.1020    0.0810 ca        1 F71     -0.164000
      5 C26        -4.5370   -4.1550    0.6490 ca        1 F71      0.120100
      6 C25        -4.7790   -4.2030    2.0330 ca        1 F71     -0.136000
      7 C24        -4.2790   -3.1860    2.8390 ca        1 F71     -0.104000
      8 C23        -3.5550   -2.1270    2.2880 ca        1 F71     -0.142000
      9 O27        -5.0520   -5.1880   -0.0990 oh        1 F71     -0.494100
     10 N11         1.6290    2.2120   -0.1360 n3        1 F71     -0.797500
     11 C12         2.3970    2.3390    1.0770 c3        1 F71      0.219800
     12 C13         3.2110    3.6400    1.2130 c3        1 F71     -0.094700
     13 C14         2.3070    4.8510    1.2750 c3        1 F71     -0.085100
     14 C15         4.0700    3.5360    2.4670 c3        1 F71     -0.074400
     15 C17        -0.6090    1.5080    0.7630 c3        1 F71      0.086100
     16 C18         5.2170    4.5140    2.4560 c3        1 F71     -0.093100
     17 O18        -0.6030    1.8200    2.1420 oh        1 F71     -0.591800
     18 C19        -2.0540    1.4280    0.1910 c3        1 F71      0.080700
     19 N20        -2.7870    0.3010    0.7180 n         1 F71     -0.550900
     20 C32        -2.7950    2.7560    0.4230 c3        1 F71     -0.049100
     21 C33        -5.3000    2.8030    0.4160 ca        1 F71     -0.124000
     22 C34        -6.5170    2.8720   -0.2620 ca        1 F71     -0.125000
     23 C35        -6.5390    2.9500   -1.6540 ca        1 F71     -0.126000
     24 C36        -5.3410    2.9600   -2.3690 ca        1 F71     -0.125000
     25 C37        -4.1240    2.8920   -1.6940 ca        1 F71     -0.124000
     26 C38        -4.0960    2.8120   -0.2960 ca        1 F71     -0.085300
     27 C1          5.3120   -5.2560   -0.5550 cc        1 F71      0.306200
     28 N1          4.0430   -5.6920   -0.5350 nd        1 F71     -0.349300
     29 O1          3.2260   -4.6710   -0.6880 os        1 F71     -0.105100
     30 S1          3.9590   -0.7640   -1.1020 ss        1 F71      0.283200
     31 C2          3.2540   -2.2590   -0.9950 cd        1 F71     -0.185600
     32 C3          3.9780   -3.4700   -0.8190 cd        1 F71      0.338200
     33 C4          5.3200   -3.8110   -0.7380 cc        1 F71     -0.353600
     34 C5          2.5420    0.0620   -1.2860 cd        1 F71     -0.484600
     35 C6          1.4550   -0.8270   -1.2730 cc        1 F71     -0.028000
     36 C7          1.8610   -2.1670   -1.1040 cc        1 F71     -0.134000
     37 S8          2.3200    1.6980   -1.5270 sy        1 F71      1.539200
     38 O9          3.5980    2.2820   -1.6790 o         1 F71     -0.653800
     39 O10         1.4170    1.9030   -2.5920 o         1 F71     -0.653800
     40 H27        -3.6010   -3.0720   -1.0000 ha        1 F71      0.157000
     41 H25        -5.3530   -5.0410    2.4540 ha        1 F71      0.155000
     42 H24        -4.4540   -3.2190    3.9260 ha        1 F71      0.140000
     43 H23        -3.1540   -1.3450    2.9490 ha        1 F71      0.138000
     44 HO27       -4.7800   -5.0560   -1.0200 ho        1 F71      0.425000
     45 H12         1.7090    2.2490    1.9670 h1        1 F71      0.054700
     46 H12A        3.1200    1.4700    1.1180 h1        1 F71      0.054700
     47 H13         3.8890    3.7370    0.3170 hc        1 F71      0.081700
     48 H14         2.9010    5.7670    1.5110 hc        1 F71      0.033033
     49 H14A        1.7970    5.0120    0.2950 hc        1 F71      0.033033
     50 H14B        1.5280    4.7230    2.0650 hc        1 F71      0.033033
     51 H15         3.4300    3.7110    3.3720 hc        1 F71      0.038200
     52 H15A        4.4840    2.4950    2.5500 hc        1 F71      0.038200
     53 H16         0.1060    3.5380    0.4170 h1        1 F71      0.068200
     54 H16A       -0.1870    2.5690   -1.1040 h1        1 F71      0.068200
     55 H17        -0.1490    0.4760    0.7180 h1        1 F71      0.101700
     56 H18         5.8680    4.3490    1.5630 hc        1 F71      0.035367
     57 H18A        4.8450    5.5670    2.4280 hc        1 F71      0.035367
     58 H18B        5.8380    4.3870    3.3750 hc        1 F71      0.035367
     59 HO18       -0.9030    2.7320    2.2390 ho        1 F71      0.396000
     60 H19        -1.9520    1.2620   -0.9270 h1        1 F71      0.089700
     61 HN20       -3.3660    0.4520    1.5090 hn        1 F71      0.319500
     62 H32        -2.9540    2.9190    1.5230 hc        1 F71      0.055200
     63 H32A       -2.1320    3.5840    0.0510 hc        1 F71      0.055200
     64 H33        -5.2900    2.7430    1.5140 ha        1 F71      0.132000
     65 H34        -7.4600    2.8650    0.3040 ha        1 F71      0.134500
     66 H35        -7.4990    3.0040   -2.1880 ha        1 F71      0.134000
     67 H36        -5.3550    3.0210   -3.4670 ha        1 F71      0.134500
     68 H37        -3.1800    2.8990   -2.2600 ha        1 F71      0.132000
     69 H4          6.1960   -3.1750   -0.7970 ha        1 F71      0.178000
     70 H6          0.4010   -0.5350   -1.3870 ha        1 F71      0.194000
     71 H7          1.1770   -3.0200   -1.0630 ha        1 F71      0.184000
     72 C16         0.2290    2.5170   -0.0540 c3        1 F71      0.190800
     73 H1          6.1770   -5.9130   -0.4480 h4        1 F71      0.055100
@<TRIPOS>BOND
     1    1    2 2   
     2    1    3 1   
     3    1   19 1   
     4    3    4 ar  
     5    3    8 ar  
     6    4    5 ar  
     7    4   40 1   
     8    5    6 ar  
     9    5    9 1   
    10    6    7 ar  
    11    6   41 1   
    12    7    8 ar  
    13    7   42 1   
    14    8   43 1   
    15    9   44 1   
    16   10   11 1   
    17   10   37 1   
    18   10   72 1   
    19   11   12 1   
    20   11   45 1   
    21   11   46 1   
    22   12   13 1   
    23   12   14 1   
    24   12   47 1   
    25   13   48 1   
    26   13   49 1   
    27   13   50 1   
    28   14   16 1   
    29   14   51 1   
    30   14   52 1   
    31   15   17 1   
    32   15   18 1   
    33   15   55 1   
    34   15   72 1   
    35   16   56 1   
    36   16   57 1   
    37   16   58 1   
    38   17   59 1   
    39   18   19 1   
    40   18   20 1   
    41   18   60 1   
    42   19   61 1   
    43   20   26 1   
    44   20   62 1   
    45   20   63 1   
    46   21   22 ar  
    47   21   26 ar  
    48   21   64 1   
    49   22   23 ar  
    50   22   65 1   
    51   23   24 ar  
    52   23   66 1   
    53   24   25 ar  
    54   24   67 1   
    55   25   26 ar  
    56   25   68 1   
    57   27   28 2   
    58   27   33 1   
    59   27   73 1   
    60   28   29 1   
    61   29   32 1   
    62   30   31 1   
    63   30   34 1   
    64   31   32 1   
    65   31   36 2   
    66   32   33 2   
    67   33   69 1   
    68   34   35 2   
    69   34   37 1   
    70   35   36 1   
    71   35   70 1   
    72   36   71 1   
    73   37   38 2   
    74   37   39 2   
    75   53   72 1   
    76   54   72 1   
@<TRIPOS>SUBSTRUCTURE
     1 F71         1 TEMP              0 ****  ****    0 ROOT
