@<TRIPOS>MOLECULE
F71
   73    65     1     0     0
SMALL
bcc


@<TRIPOS>ATOM
      1 C21         1.2130   -0.7490    3.8000 c1        1 F71      0.350000
      2 O22         2.3870   -0.5050    3.5980 o         1 F71     -0.388000
      3 C22         0.6000   -0.5010    5.1990 c2        1 F71     -0.085000
      4 C27         1.3780    0.0480    6.2100 c2        1 F71     -0.105000
      5 C26         0.8120    0.3310    7.4470 c1        1 F71      0.074000
      6 C25        -0.5310    0.0650    7.6720 c1        1 F71     -0.132167
      7 C24        -1.3090   -0.4840    6.6620 c1        1 F71     -0.132167
      8 C23        -0.7430   -0.7670    5.4240 c1        1 F71     -0.144000
      9 O27         1.6030    0.8940    8.4750 oh        1 F71     -0.245000
     10 N11         0.2490    0.1740   -1.8360 n3        1 F71     -0.825000
     11 C12        -0.8750   -0.3240   -2.6040 c3        1 F71     -0.007000
     12 C13        -0.5270   -0.3050   -4.0870 c3        1 F71     -0.136000
     13 C14        -0.5490   -1.7170   -4.6290 c3        1 F71     -0.206000
     14 C15        -1.5370    0.5320   -4.8300 c3        1 F71     -0.152000
     15 C16         0.9470   -0.7150   -0.8990 c3        1 F71     -0.055000
     16 C17         0.1440   -0.8180    0.4020 c3        1 F71     -0.020000
     17 C18        -0.8710    1.1870   -6.0190 c3        1 F71     -0.211000
     18 O18        -1.0310   -1.5210    0.1650 oh        1 F71     -0.329000
     19 C19         0.9690   -1.5480    1.4520 c3        1 F71      0.047000
     20 N20         0.4040   -1.3200    2.7470 n2        1 F71     -0.365000
     21 C32         0.9670   -3.0280    1.1550 c3        1 F71     -0.134000
     22 C33         1.9830   -4.7140    2.6980 c1        1 F71     -0.133000
     23 C34         3.0260   -5.5540    3.0650 c1        1 F71     -0.132167
     24 C35         4.2910   -5.3630    2.5310 c1        1 F71     -0.132167
     25 C36         4.5160   -4.3320    1.6300 c1        1 F71     -0.132167
     26 C37         3.4720   -3.4910    1.2620 c1        1 F71     -0.132167
     27 C38         2.2070   -3.6820    1.7950 c1        1 F71     -0.078000
     28 C1         -4.4990    6.4430   -4.8440 c1        1 F71     -0.159000
     29 N1         -5.3660    5.5640   -4.2980 n2        1 F71     -0.014000
     30 O1         -4.6480    4.7180   -3.4570 os        1 F71     -0.047000
     31 S1         -1.4240    3.3160   -3.2430 ss        1 F71      0.811000
     32 C2         -2.3050    4.5110   -2.7750 c2        1 F71     -0.345000
     33 C3         -3.3480    5.0910   -3.4990 c2        1 F71      0.035000
     34 C4         -3.2400    6.1600   -4.3550 c1        1 F71     -0.223000
     35 C5         -0.5090    2.9120   -2.0530 c1        1 F71     -1.198000
     36 C6         -0.8120    3.7960   -0.9390 c1        1 F71     -0.026000
     37 C7         -1.9540    4.8120   -1.3990 c1        1 F71     -0.135000
     38 S8          0.8330    1.7160   -2.1150 s4        1 F71      2.094800
     39 O9          1.5400    1.7890   -3.3640 o         1 F71     -0.538900
     40 O10         1.8750    2.0550   -1.1850 o         1 F71     -0.538900
     41 H27         2.3210    0.2350    6.0520 ha        1 F71      0.172000
     42 H25        -0.9300    0.2640    8.5440 ha        1 F71      0.134833
     43 H24        -2.2550   -0.6710    6.8210 ha        1 F71      0.134833
     44 H23        -1.2900   -1.1530    4.7140 ha        1 F71      0.139000
     45 HO27        1.3960    1.7550    8.5710 ho        1 F71      0.220000
     46 H12        -1.0770   -1.2400   -2.3280 h1        1 F71      0.081500
     47 H12A       -1.6560    0.2440   -2.4450 h1        1 F71      0.081500
     48 H13         0.3620    0.0750   -4.2070 hc        1 F71      0.125000
     49 H14         0.2720   -2.1770   -4.3730 hc        1 F71      0.075000
     50 H14A       -1.3190   -2.1960   -4.2610 hc        1 F71      0.075000
     51 H14B       -0.6170   -1.6910   -5.6060 hc        1 F71      0.075000
     52 H15        -1.8900    1.2200   -4.2350 hc        1 F71      0.076000
     53 H15A       -2.2680   -0.0370   -5.1390 hc        1 F71      0.076000
     54 H16         1.0360   -1.6030   -1.2980 h1        1 F71      0.115500
     55 H16A        1.8350   -0.3520   -0.7060 h1        1 F71      0.115500
     56 H17        -0.0710    0.0760    0.7220 h1        1 F71      0.103000
     57 H18        -0.8450    0.5540   -6.7680 hc        1 F71      0.076000
     58 H18A        0.0420    1.4470   -5.7790 hc        1 F71      0.076000
     59 H18B       -1.3800    1.9830   -6.2810 hc        1 F71      0.076000
     60 HO18       -1.7190   -1.0690    0.5030 ho        1 F71      0.203000
     61 H19         1.8880   -1.2130    1.4340 h1        1 F71      0.118000
     62 HN20       -0.4650   -1.5520    2.9140 hn        1 F71      0.238000
     63 H32         0.1570   -3.4340    1.5250 hc        1 F71      0.106500
     64 H32A        0.9890   -3.1670    0.1880 hc        1 F71      0.106500
     65 H33         1.0960   -4.8490    3.0720 ha        1 F71      0.128000
     66 H34         2.8680   -6.2800    3.6990 ha        1 F71      0.134833
     67 H35         5.0240   -5.9530    2.7890 ha        1 F71      0.134833
     68 H36         5.4070   -4.1970    1.2540 ha        1 F71      0.134833
     69 H37         3.6290   -2.7690    0.6320 ha        1 F71      0.134833
     70 H1         -4.7240    7.1540   -5.4750 DU        1 F71      0.189250
     71 H4         -2.4180    6.6350   -4.5780 DU        1 F71      0.189250
     72 H6         -0.3890    3.7720   -0.0610 DU        1 F71      0.189250
     73 H7         -2.3480    5.5150   -0.8500 DU        1 F71      0.189250
@<TRIPOS>BOND
     1    1    2 1   
     2    1    3 1   
     3    3    4 1   
     4    3    8 1   
     5    4    5 1   
     6    4   41 1   
     7    5    9 1   
     8    6    7 1   
     9    6   42 1   
    10    7   43 1   
    11    8   44 1   
    12    9   45 1   
    13   10   11 1   
    14   10   15 1   
    15   10   38 1   
    16   11   12 1   
    17   11   46 1   
    18   11   47 1   
    19   12   13 1   
    20   12   14 1   
    21   12   48 1   
    22   13   49 1   
    23   13   50 1   
    24   13   51 1   
    25   14   17 1   
    26   14   52 1   
    27   14   53 1   
    28   15   16 1   
    29   15   54 1   
    30   15   55 1   
    31   16   18 1   
    32   16   19 1   
    33   16   56 1   
    34   17   57 1   
    35   17   58 1   
    36   17   59 1   
    37   18   60 1   
    38   19   20 1   
    39   19   21 1   
    40   19   61 1   
    41   20   62 1   
    42   21   27 1   
    43   21   63 1   
    44   21   64 1   
    45   22   27 1   
    46   22   65 1   
    47   23   24 1   
    48   23   66 1   
    49   24   67 1   
    50   25   26 1   
    51   25   68 1   
    52   26   69 1   
    53   28   29 1   
    54   28   34 1   
    55   29   30 1   
    56   30   33 1   
    57   31   32 1   
    58   31   35 1   
    59   32   33 1   
    60   32   37 1   
    61   33   34 1   
    62   35   36 1   
    63   36   37 1   
    64   38   39 1   
    65   38   40 1   
@<TRIPOS>SUBSTRUCTURE
     1 F71         1 TEMP              0 ****  ****    0 ROOT
