@<TRIPOS>MOLECULE
F72
   76    70     1     0     0
SMALL
bcc


@<TRIPOS>ATOM
      1 C21         0.9160   -0.6240    3.9970 c1        1 F72      0.351000
      2 O22         2.0600   -0.2120    3.8940 o         1 F72     -0.398000
      3 C22         0.1890   -0.5410    5.3470 c2        1 F72     -0.079000
      4 C27         0.8490   -0.0370    6.4620 c2        1 F72     -0.166000
      5 C26         0.2010    0.0090    7.6920 c1        1 F72      0.074000
      6 C25        -1.1010   -0.4470    7.8050 c1        1 F72     -0.124333
      7 C24        -1.7620   -0.9510    6.6890 c1        1 F72     -0.124333
      8 C23        -1.1150   -0.9970    5.4610 c1        1 F72     -0.142000
      9 O27         0.8920    0.4730    8.8400 oh        1 F72     -0.249000
     10 C11        -0.4190   -1.3920   -6.1030 c3        1 F72     -0.153500
     11 N11         0.1820    0.4920   -1.7320 n3        1 F72     -0.826000
     12 C12        -0.9010   -0.0590   -2.5110 c3        1 F72     -0.005000
     13 C13        -0.5390    0.0080   -4.0290 c3        1 F72     -0.123000
     14 C14        -1.5030    0.9440   -4.7210 c3        1 F72     -0.156000
     15 C15        -0.5790   -1.3790   -4.5980 c3        1 F72     -0.156000
     16 C16         0.9130   -0.3700   -0.7590 c3        1 F72     -0.057000
     17 C17         0.0860   -0.5000    0.5350 c3        1 F72     -0.017000
     18 C18        -1.3820   -0.4560   -6.7950 c3        1 F72     -0.157000
     19 O18        -1.0690   -1.2260    0.2750 oh        1 F72     -0.331000
     20 C19         0.9070   -1.2160    1.5920 c3        1 F72      0.043000
     21 C20        -1.3420    0.9310   -6.2250 c3        1 F72     -0.153500
     22 N20         0.2340   -1.1440    2.8470 n2        1 F72     -0.359000
     23 C32         1.0860   -2.6770    1.1950 c3        1 F72     -0.131000
     24 C33         1.8850   -4.4920    2.6050 c1        1 F72     -0.129000
     25 C34         2.8640   -5.3660    3.0570 c1        1 F72     -0.124333
     26 C35         4.2030   -5.0430    2.9080 c1        1 F72     -0.124333
     27 C36         4.5660   -3.8450    2.3060 c1        1 F72     -0.124333
     28 C37         3.5850   -2.9690    1.8530 c1        1 F72     -0.124333
     29 C38         2.2480   -3.2920    2.0020 c1        1 F72     -0.079000
     30 C1         -2.6840    7.5050   -0.7810 c1        1 F72     -0.298000
     31 N1         -3.2670    6.7090   -1.8140 n2        1 F72     -0.104000
     32 S1         -1.4400    6.7660   -0.2630 ss        1 F72      0.496000
     33 C2         -2.3900    5.4000   -1.9940 c1        1 F72     -0.008000
     34 C3         -1.3110    5.4510   -1.0660 c1        1 F72     -0.361000
     35 C4         -0.4660    4.3670   -0.9320 c1        1 F72      0.055000
     36 C5         -0.6700    3.2190   -1.7070 c1        1 F72     -0.832000
     37 C6         -1.7330    3.1690   -2.6220 c1        1 F72     -0.043000
     38 C7         -2.5900    4.2650   -2.7590 c1        1 F72     -0.104000
     39 S8          0.6860    2.0770   -1.9970 s6        1 F72      2.845000
     40 O9          1.2270    2.2370   -3.3160 o         1 F72     -0.931500
     41 O10         1.8340    2.4070   -1.1810 o         1 F72     -0.931500
     42 H27         1.7740    0.2860    6.3820 ha        1 F72      0.156000
     43 H25        -1.5560   -0.4140    8.6680 ha        1 F72      0.138500
     44 H24        -2.6780   -1.2710    6.7690 ha        1 F72      0.138500
     45 H23        -1.5770   -1.3500    4.6800 ha        1 F72      0.139000
     46 HO27        0.7830    1.3540    8.9180 ho        1 F72      0.223000
     47 H11         0.4940   -1.1250   -6.3240 hc        1 F72      0.080250
     48 H11A       -0.5710   -2.3020   -6.4300 hc        1 F72      0.080250
     49 H12        -1.0490   -0.9990   -2.2500 h1        1 F72      0.082000
     50 H12A       -1.7210    0.4610   -2.3450 h1        1 F72      0.082000
     51 H13         0.3700    0.3630   -4.1240 hc        1 F72      0.095000
     52 H14        -2.4080    0.6790   -4.5010 hc        1 F72      0.086000
     53 H14A       -1.3510    1.8470   -4.3960 hc        1 F72      0.086000
     54 H15         0.1330   -1.8990   -4.2030 hc        1 F72      0.086000
     55 H15A       -1.4340   -1.7900   -4.3680 hc        1 F72      0.086000
     56 H16         1.0500   -1.2550   -1.1480 h1        1 F72      0.114000
     57 H16A        1.7920    0.0390   -0.5500 h1        1 F72      0.114000
     58 H17        -0.1560    0.3960    0.8600 h1        1 F72      0.099000
     59 H18        -2.2870   -0.8090   -6.7020 hc        1 F72      0.079000
     60 H18A       -1.1530   -0.4140   -7.7510 hc        1 F72      0.079000
     61 HO18       -1.7810   -0.7340    0.4810 ho        1 F72      0.204000
     62 H19         1.7900   -0.7870    1.6690 h1        1 F72      0.127000
     63 H20        -0.4810    1.3440   -6.4560 hc        1 F72      0.080250
     64 H20A       -2.0600    1.4550   -6.6230 hc        1 F72      0.080250
     65 HN20       -0.6430   -1.3880    2.9080 hn        1 F72      0.237000
     66 H32         1.2860   -2.7330    0.2410 hc        1 F72      0.106000
     67 H32A        0.2640   -3.1680    1.3840 hc        1 F72      0.106000
     68 H33         0.9440   -4.7200    2.7100 ha        1 F72      0.128000
     69 H34         2.6120   -6.2020    3.4780 ha        1 F72      0.138500
     70 H35         4.8930   -5.6570    3.2260 ha        1 F72      0.138500
     71 H36         5.5100   -3.6170    2.2010 ha        1 F72      0.138500
     72 H37         3.8390   -2.1300    1.4310 ha        1 F72      0.138500
     73 H1         -3.0390    8.3440   -0.4340 DU        1 F72      0.194000
     74 H4          0.2710    4.4010   -0.2980 ha        1 F72      0.182000
     75 H6         -1.8740    2.3720   -3.1600 ha        1 F72      0.162000
     76 H7         -3.3340    4.2290   -3.4000 ha        1 F72      0.159000
@<TRIPOS>BOND
     1    1    2 1   
     2    1    3 1   
     3    3    4 1   
     4    3    8 1   
     5    4    5 1   
     6    4   42 1   
     7    5    9 1   
     8    6    7 1   
     9    6   43 1   
    10    7   44 1   
    11    8   45 1   
    12    9   46 1   
    13   10   15 1   
    14   10   18 1   
    15   10   47 1   
    16   10   48 1   
    17   11   12 1   
    18   11   16 1   
    19   11   39 1   
    20   12   13 1   
    21   12   49 1   
    22   12   50 1   
    23   13   14 1   
    24   13   15 1   
    25   13   51 1   
    26   14   21 1   
    27   14   52 1   
    28   14   53 1   
    29   15   54 1   
    30   15   55 1   
    31   16   17 1   
    32   16   56 1   
    33   16   57 1   
    34   17   19 1   
    35   17   20 1   
    36   17   58 1   
    37   18   21 1   
    38   18   59 1   
    39   18   60 1   
    40   19   61 1   
    41   20   22 1   
    42   20   23 1   
    43   20   62 1   
    44   21   63 1   
    45   21   64 1   
    46   22   65 1   
    47   23   29 1   
    48   23   66 1   
    49   23   67 1   
    50   24   29 1   
    51   24   68 1   
    52   25   26 1   
    53   25   69 1   
    54   26   70 1   
    55   27   28 1   
    56   27   71 1   
    57   28   72 1   
    58   30   31 1   
    59   30   32 1   
    60   31   33 1   
    61   32   34 1   
    62   33   38 1   
    63   34   35 1   
    64   35   74 1   
    65   36   37 1   
    66   36   39 1   
    67   37   75 1   
    68   38   76 1   
    69   39   40 1   
    70   39   41 1   
@<TRIPOS>SUBSTRUCTURE
     1 F72         1 TEMP              0 ****  ****    0 ROOT
