@<TRIPOS>MOLECULE
F72
   76    80     1     0     0
SMALL
bcc


@<TRIPOS>ATOM
      1 C21         2.7260   -0.0620   -0.3270 c         1 F72      0.678700
      2 O22         2.1110   -0.7570    0.5110 o         1 F72     -0.629100
      3 C22         3.9310   -0.5770   -1.0410 ca        1 F72     -0.099600
      4 C27         4.8690   -1.3030   -0.3010 ca        1 F72     -0.167000
      5 C26         6.0030   -1.8070   -0.9510 ca        1 F72      0.119100
      6 C25         6.2010   -1.5990   -2.3270 ca        1 F72     -0.137000
      7 C24         5.2480   -0.8820   -3.0430 ca        1 F72     -0.104000
      8 C23         4.1150   -0.3680   -2.4090 ca        1 F72     -0.142000
      9 O27         6.9750   -2.5260   -0.2950 oh        1 F72     -0.495100
     10 C11        -5.7240    3.5480   -0.6980 c3        1 F72     -0.076400
     11 N11        -2.4050    0.6840    0.4200 n3        1 F72     -0.800500
     12 C12        -3.2310    0.5790   -0.7560 c3        1 F72      0.217800
     13 C13        -4.5790    1.3180   -0.6910 c3        1 F72     -0.092700
     14 C14        -5.4050    0.9070   -1.9030 c3        1 F72     -0.069400
     15 C15        -4.3930    2.8250   -0.6590 c3        1 F72     -0.069400
     16 C17        -0.1550    1.2480   -0.5420 c3        1 F72      0.088100
     17 C18        -6.5490    3.1310   -1.8970 c3        1 F72     -0.076400
     18 O18        -0.3780    1.6550   -1.8770 oh        1 F72     -0.590800
     19 C19         1.1750    1.8170    0.0290 c3        1 F72      0.081700
     20 C20        -6.7370    1.6280   -1.9300 c3        1 F72     -0.076400
     21 N20         2.3350    1.2310   -0.6010 n         1 F72     -0.550900
     22 C32         1.1830    3.3520   -0.0620 c3        1 F72     -0.050100
     23 C33         3.3630    4.5870   -0.0570 ca        1 F72     -0.124500
     24 C34         4.4360    5.1660    0.6200 ca        1 F72     -0.125000
     25 C35         4.4920    5.1190    2.0130 ca        1 F72     -0.126000
     26 C36         3.4710    4.4910    2.7280 ca        1 F72     -0.125000
     27 C37         2.3980    3.9130    2.0530 ca        1 F72     -0.124500
     28 C38         2.3370    3.9560    0.6550 ca        1 F72     -0.086300
     29 C1          0.1210   -5.7040   -0.1050 cc        1 F72      0.344100
     30 N1         -1.2000   -5.6910   -0.1250 nd        1 F72     -0.531100
     31 S1          0.9030   -4.2590    0.3840 ss        1 F72      0.040900
     32 C2         -1.6490   -4.4260    0.2860 ca        1 F72      0.131400
     33 C3         -0.5940   -3.5030    0.6080 ca        1 F72     -0.133100
     34 C4         -0.9020   -2.2100    1.0320 ca        1 F72      0.053000
     35 C5         -2.2300   -1.8140    1.1500 ca        1 F72     -0.382500
     36 C6         -3.2580   -2.7290    0.8300 ca        1 F72     -0.042000
     37 C7         -2.9920   -4.0150    0.4050 ca        1 F72     -0.103000
     38 S8         -2.6520   -0.2810    1.7190 sy        1 F72      1.502200
     39 O9         -4.0210   -0.2960    2.0610 o         1 F72     -0.652300
     40 O10        -1.7630    0.0980    2.7510 o         1 F72     -0.652300
     41 H27         4.7040   -1.4800    0.7720 ha        1 F72      0.156000
     42 H25         7.0980   -2.0060   -2.8140 ha        1 F72      0.155000
     43 H24         5.3880   -0.7210   -4.1230 ha        1 F72      0.140000
     44 H23         3.3660    0.1820   -2.9980 ha        1 F72      0.140000
     45 HO27        6.7130   -2.6050    0.6350 ho        1 F72      0.424000
     46 H11        -6.2940    3.3250    0.2430 hc        1 F72      0.042200
     47 H11A       -5.5460    4.6550   -0.7300 hc        1 F72      0.042200
     48 H12        -2.6540    0.9510   -1.6520 h1        1 F72      0.057200
     49 H12A       -3.4470   -0.5190   -0.9250 h1        1 F72      0.057200
     50 H13        -5.1280    1.0040    0.2430 hc        1 F72      0.081700
     51 H14        -4.8340    1.1380   -2.8400 hc        1 F72      0.037450
     52 H14A       -5.5820   -0.2000   -1.8780 hc        1 F72      0.037450
     53 H15        -3.7660    3.1430   -1.5340 hc        1 F72      0.037450
     54 H15A       -3.8470    3.1180    0.2760 hc        1 F72      0.037450
     55 H16        -1.7410    2.6310    0.0250 h1        1 F72      0.067700
     56 H16A       -0.9420    1.7800    1.4300 h1        1 F72      0.067700
     57 H17        -0.0610    0.1230   -0.6150 h1        1 F72      0.101700
     58 H18        -7.5490    3.6350   -1.8590 hc        1 F72      0.038200
     59 H18A       -6.0380    3.4650   -2.8380 hc        1 F72      0.038200
     60 HO18       -0.5630    2.6030   -1.8690 ho        1 F72      0.395000
     61 H19         1.2100    1.5190    1.1250 h1        1 F72      0.089700
     62 H20        -7.2990    1.3390   -2.8560 hc        1 F72      0.042200
     63 H20A       -7.3520    1.3090   -1.0470 hc        1 F72      0.042200
     64 HN20        2.7800    1.7410   -1.3250 hn        1 F72      0.320500
     65 H32         1.1870    3.6710   -1.1390 hc        1 F72      0.056200
     66 H32A        0.2270    3.7230    0.3970 hc        1 F72      0.056200
     67 H33         3.3240    4.6300   -1.1560 ha        1 F72      0.132000
     68 H34         5.2380    5.6610    0.0530 ha        1 F72      0.134500
     69 H35         5.3380    5.5750    2.5460 ha        1 F72      0.134000
     70 H36         3.5130    4.4520    3.8260 ha        1 F72      0.134500
     71 H37         1.5950    3.4170    2.6200 ha        1 F72      0.132000
     72 H4         -0.0800   -1.5080    1.2780 ha        1 F72      0.177000
     73 H6         -4.3080   -2.4000    0.9440 ha        1 F72      0.162000
     74 H7         -3.8050   -4.7170    0.1640 ha        1 F72      0.158000
     75 C16        -1.3340    1.6380    0.3790 c3        1 F72      0.191800
     76 H1          0.6810   -6.6010   -0.3920 h5        1 F72      0.063800
@<TRIPOS>BOND
     1    1    2 2   
     2    1    3 1   
     3    1   21 1   
     4    3    4 ar  
     5    3    8 ar  
     6    4    5 ar  
     7    4   41 1   
     8    5    6 ar  
     9    5    9 1   
    10    6    7 ar  
    11    6   42 1   
    12    7    8 ar  
    13    7   43 1   
    14    8   44 1   
    15    9   45 1   
    16   10   15 1   
    17   10   17 1   
    18   10   46 1   
    19   10   47 1   
    20   11   12 1   
    21   11   38 1   
    22   11   75 1   
    23   12   13 1   
    24   12   48 1   
    25   12   49 1   
    26   13   14 1   
    27   13   15 1   
    28   13   50 1   
    29   14   20 1   
    30   14   51 1   
    31   14   52 1   
    32   15   53 1   
    33   15   54 1   
    34   16   18 1   
    35   16   19 1   
    36   16   57 1   
    37   16   75 1   
    38   17   20 1   
    39   17   58 1   
    40   17   59 1   
    41   18   60 1   
    42   19   21 1   
    43   19   22 1   
    44   19   61 1   
    45   20   62 1   
    46   20   63 1   
    47   21   64 1   
    48   22   28 1   
    49   22   65 1   
    50   22   66 1   
    51   23   24 ar  
    52   23   28 ar  
    53   23   67 1   
    54   24   25 ar  
    55   24   68 1   
    56   25   26 ar  
    57   25   69 1   
    58   26   27 ar  
    59   26   70 1   
    60   27   28 ar  
    61   27   71 1   
    62   29   30 2   
    63   29   31 1   
    64   29   76 1   
    65   30   32 1   
    66   31   33 1   
    67   32   33 ar  
    68   32   37 ar  
    69   33   34 ar  
    70   34   35 ar  
    71   34   72 1   
    72   35   36 ar  
    73   35   38 1   
    74   36   37 ar  
    75   36   73 1   
    76   37   74 1   
    77   38   39 2   
    78   38   40 2   
    79   55   75 1   
    80   56   75 1   
@<TRIPOS>SUBSTRUCTURE
     1 F72         1 TEMP              0 ****  ****    0 ROOT
