@<TRIPOS>MOLECULE
F72
   78    75     1     0     0
SMALL
bcc


@<TRIPOS>ATOM
      1 C21         1.0580   -0.2490    0.0780 c2        1 F72      0.320000
      2 O22         1.9740    0.2050   -0.6340 o         1 F72     -0.371000
      3 C22         1.1660   -0.2720    1.6130 c3        1 F72     -0.003000
      4 C27         1.8090   -1.4860    2.0190 c1        1 F72     -0.236000
      5 C26         2.3630   -2.4910    2.3520 c1        1 F72      0.002000
      6 C25         0.3540    0.7180    4.4860 c2        1 F72     -0.097000
      7 C24        -0.4020    0.0470    3.5970 c2        1 F72     -0.233000
      8 C23        -0.1620   -0.0710    2.2170 c1        1 F72     -0.068000
      9 O27         2.9250   -3.6560    2.6180 oh        1 F72     -0.150000
     10 C11         1.1280   -0.0120   -7.8360 c3        1 F72     -0.085000
     11 N11        -3.2000    1.2920   -3.6410 n3        1 F72     -0.363000
     12 C12        -4.1250    0.6410   -4.5640 c3        1 F72     -0.167000
     13 C13        -0.2150   -0.8690   -5.8790 c1        1 F72      0.029000
     14 C14         1.7370   -2.7360  -10.1910 c2        1 F72     -0.199000
     15 C15         0.2240   -0.9390   -7.1060 c2        1 F72     -0.405000
     16 C17        -1.6920    0.0820   -2.1190 c2        1 F72     -0.154000
     17 C18         2.0990   -0.7550   -8.7350 c3        1 F72     -0.136000
     18 O18        -4.6410    3.2490   -2.0190 oh        1 F72     -0.456000
     19 C19        -0.3800   -0.6260   -1.8850 c3        1 F72      0.055000
     20 C20         1.4100   -1.5000   -9.8180 c2        1 F72     -0.192000
     21 N20        -0.0780   -0.8210   -0.4850 n         1 F72     -0.369000
     22 C32        -0.3920   -1.9650   -2.6630 c3        1 F72     -0.206000
     23 C33         0.6020   -4.2510   -2.2760 c3        1 F72     -0.219000
     24 C34         1.8160   -5.0660   -2.1360 c2        1 F72      0.018000
     25 C35         3.0620   -4.5030   -2.1210 c2        1 F72     -0.203000
     26 C36         3.2070   -3.1020   -2.2490 c2        1 F72      0.134000
     27 C37         2.0920   -2.2740   -2.4160 c2        1 F72     -0.220000
     28 C38         0.8100   -2.7980   -2.4450 c2        1 F72      0.144000
     29 C1         -6.8510    9.5800   -6.2710 c1        1 F72     -0.671000
     30 N1         -4.8410    7.8950   -6.9340 n2        1 F72     -0.187000
     31 S1         -7.7780   10.5610   -6.1390 s         1 F72      0.780000
     32 C2         -4.5390    6.7920   -6.4750 cu        1 F72      0.193000
     33 C3         -4.6980    5.6490   -5.5640 cu        1 F72     -0.136500
     34 C4         -4.6550    4.5220   -4.8560 c2        1 F72     -0.130500
     35 C5         -3.4900    3.6740   -5.4290 c3        1 F72     -0.873000
     36 C6         -2.8700    4.5710   -6.5460 c2        1 F72     -0.130500
     37 C7         -3.6120    5.6730   -6.5900 cu        1 F72     -0.136500
     38 S8         -2.3250    3.2970   -4.3550 s4        1 F72      2.031800
     39 O9         -1.1890    2.7530   -4.8740 o         1 F72     -0.428400
     40 O10        -2.3450    3.8690   -3.1230 o         1 F72     -0.428400
     41 H27         1.8340    0.6130    1.8860 hc        1 F72      0.167000
     42 H25         1.3040    1.2020    4.2140 ha        1 F72      0.132000
     43 H24         0.0280    0.8790    5.5250 ha        1 F72      0.132000
     44 H23        -1.3760   -0.3780    3.9180 ha        1 F72      0.170000
     45 HO27        3.3890   -3.5550    3.4760 ho        1 F72      0.258000
     46 H11         1.7080    0.6170   -7.1080 hc        1 F72      0.098500
     47 H11A        0.4950    0.6800   -8.4560 hc        1 F72      0.098500
     48 H12        -4.4800   -0.3490   -4.1690 h1        1 F72      0.115333
     49 H12A       -5.0200    1.3040   -4.7080 h1        1 F72      0.115333
     50 H13        -3.6150    0.4630   -5.5480 h1        1 F72      0.115333
     51 H14         0.6060    0.9660   -4.7650 ha        1 F72      0.012500
     52 H14A        1.2320   -3.2480  -11.0220 ha        1 F72      0.121000
     53 H15         2.5370   -3.3130   -9.7100 ha        1 F72      0.121000
     54 H15A       -0.1140   -1.8000   -7.7330 ha        1 F72      0.217000
     55 H16        -1.4490    0.2410   -4.2550 h4        1 F72      0.205000
     56 H16A       -2.3070    0.2940   -1.2260 ha        1 F72      0.157000
     57 H17         0.4400    0.0210   -2.3400 h1        1 F72      0.146000
     58 H18         2.7310   -1.4460   -8.1170 hc        1 F72      0.100500
     59 H18A        2.7910   -0.0020   -9.2040 hc        1 F72      0.100500
     60 HO18       -5.4280    3.2690   -1.4660 ho        1 F72      0.231000
     61 H19        -4.0640    3.9190   -1.6330 ho        1 F72      0.231000
     62 H20         0.5710    1.2810   -5.3690 ha        1 F72      0.012500
     63 H20A        0.6120   -0.9410  -10.3350 ha        1 F72      0.126000
     64 HN20       -0.8550   -0.9520    0.1320 hn        1 F72      0.254000
     65 H32        -1.3200   -2.5410   -2.4080 hc        1 F72      0.150000
     66 H32A       -0.4370   -1.7040   -3.7700 hc        1 F72      0.150000
     67 H33        -0.0240   -4.6500   -3.1360 hc        1 F72      0.207500
     68 H34        -0.0430   -4.4120   -1.3500 hc        1 F72      0.207500
     69 H35         1.6770   -6.1590   -2.0330 ha        1 F72      0.186000
     70 H36         3.9660   -5.1290   -2.0030 ha        1 F72      0.195000
     71 H37         4.2210   -2.6550   -2.2160 ha        1 F72      0.192000
     72 H6         -3.9810    2.8190   -5.9810 h1        1 F72      0.234000
     73 H7         -2.0470    4.2080   -7.1610 ha        1 F72      0.193500
     74 H1         -5.6510    8.5150   -6.6100 hn        1 F72      0.336000
     75 H111       -3.6960    1.5390   -2.7860 hn        1 F72      0.231000
     76 H202        2.2480   -1.1770   -2.4880 ha        1 F72      0.209000
     77 C16        -2.0530    0.4880   -3.3480 c2        1 F72     -0.177000
     78 H4         -5.2610    4.1410   -4.0330 ha        1 F72      0.193500
@<TRIPOS>BOND
     1    1    2 1   
     2    1    3 1   
     3    1   21 1   
     4    3    4 1   
     5    3    8 1   
     6    3   41 1   
     7    4    5 1   
     8    5    9 1   
     9    6    7 1   
    10    6   42 1   
    11    6   43 1   
    12    7    8 1   
    13    7   44 1   
    14    9   45 1   
    15   10   15 1   
    16   10   17 1   
    17   10   46 1   
    18   10   47 1   
    19   11   12 1   
    20   11   75 1   
    21   11   77 1   
    22   12   48 1   
    23   12   49 1   
    24   12   50 1   
    25   13   15 1   
    26   14   20 1   
    27   14   52 1   
    28   14   53 1   
    29   15   54 1   
    30   16   19 1   
    31   16   56 1   
    32   16   77 1   
    33   17   20 1   
    34   17   58 1   
    35   17   59 1   
    36   18   60 1   
    37   18   61 1   
    38   19   21 1   
    39   19   22 1   
    40   19   57 1   
    41   20   63 1   
    42   21   64 1   
    43   22   28 1   
    44   22   65 1   
    45   22   66 1   
    46   23   24 1   
    47   23   28 1   
    48   23   67 1   
    49   23   68 1   
    50   24   25 1   
    51   24   69 1   
    52   25   26 1   
    53   25   70 1   
    54   26   27 1   
    55   26   71 1   
    56   27   28 1   
    57   27   76 1   
    58   29   31 1   
    59   30   32 1   
    60   30   74 1   
    61   32   33 1   
    62   32   37 1   
    63   33   34 1   
    64   33   37 1   
    65   34   35 1   
    66   34   78 1   
    67   35   36 1   
    68   35   38 1   
    69   35   72 1   
    70   36   37 1   
    71   36   73 1   
    72   38   39 1   
    73   38   40 1   
    74   51   62 1   
    75   55   77 1   
@<TRIPOS>SUBSTRUCTURE
     1 F72         1 TEMP              0 ****  ****    0 ROOT
