@<TRIPOS>MOLECULE
F76
   56    59     1     0     0
SMALL
bcc


@<TRIPOS>ATOM
      1 N01         0.1730   -0.1490   -0.0570 nb        1 F76     -0.643000
      2 C02         0.9740    0.9460   -0.2840 ca        1 F76      0.399600
      3 C03         1.6360    1.5790    0.8190 ca        1 F76     -0.155300
      4 C04         2.4300    2.6770    0.6080 ca        1 F76     -0.122000
      5 C05         2.6090    3.2050   -0.6930 ca        1 F76     -0.112000
      6 C06         1.9910    2.6200   -1.7710 ca        1 F76     -0.125000
      7 C07         1.1660    1.4800   -1.5930 ca        1 F76     -0.116300
      8 C08         0.5080    0.8140   -2.6670 ca        1 F76     -0.090600
      9 C09         0.7410    1.3000   -4.0410 c         1 F76      0.664700
     10 O10         1.3990    0.8140   -4.9590 o         1 F76     -0.525000
     11 O11         0.0980    2.4970   -4.3140 os        1 F76     -0.405900
     12 C12         0.1870    2.9980   -5.6350 c3        1 F76      0.075400
     13 C13         1.5340    3.6870   -5.8480 c         1 F76      0.650100
     14 O14         2.3050    3.9590   -4.9250 o         1 F76     -0.518100
     15 N15         1.8350    4.0190   -7.1920 n         1 F76     -0.453100
     16 C16         3.0020    4.5480   -7.6830 ca        1 F76      0.230600
     17 C17         4.1390    4.8540   -6.8730 ca        1 F76     -0.215000
     18 C18         5.2780    5.3730   -7.4370 ca        1 F76      0.049500
     19 C19         5.3900    5.6460   -8.8260 ca        1 F76     -0.644500
     20 S20         6.7320    6.1610   -9.4610 sy        1 F76      1.514200
     21 O21         7.8560    6.0740   -8.6670 o         1 F76     -0.577300
     22 O22         6.8160    6.0970  -10.8360 o         1 F76     -0.577300
     23 N23         6.3940    8.0810   -9.2750 n4        1 F76     -0.780500
     24 C24         4.2550    5.3370   -9.6230 ca        1 F76      0.049500
     25 C25         3.1070    4.8130   -9.0900 ca        1 F76     -0.215000
     26 C26        -0.3030   -0.2880   -2.4440 ca        1 F76     -0.114600
     27 C27        -0.9330   -0.9710   -3.6070 c3        1 F76     -0.040100
     28 C28        -2.3220   -1.5240   -3.3710 c3        1 F76     -0.074400
     29 C29        -2.2900   -2.9250   -2.8000 c3        1 F76     -0.083400
     30 C30        -1.2810   -3.0610   -1.6800 c3        1 F76     -0.079400
     31 C31        -1.3430   -1.8990   -0.7130 c3        1 F76     -0.134700
     32 C32        -0.4460   -0.7410   -1.0750 ca        1 F76      0.438600
     33 H1          1.4940    1.1690    1.8320 ha        1 F76      0.159000
     34 H2          2.9400    3.1640    1.4550 ha        1 F76      0.143000
     35 H3          3.2480    4.0900   -0.8280 ha        1 F76      0.136000
     36 H4          2.1180    3.0330   -2.7860 ha        1 F76      0.146000
     37 H5         -0.6380    3.7620   -5.6920 h1        1 F76      0.101700
     38 H6          0.0390    2.1730   -6.3830 h1        1 F76      0.101700
     39 H7          1.1350    3.7880   -7.8690 hn        1 F76      0.338500
     40 H8          4.1160    4.6570   -5.7850 ha        1 F76      0.187000
     41 H9          6.1540    5.5690   -6.7870 ha        1 F76      0.166500
     42 H10         7.1200    8.5090   -8.7080 hn        1 F76      0.447800
     43 H11         6.4050    8.5270  -10.1880 hn        1 F76      0.447800
     44 H12         4.3140    5.5110  -10.7160 ha        1 F76      0.166500
     45 H13         2.2590    4.5830   -9.7570 ha        1 F76      0.187000
     46 H14        -0.9920   -0.2500   -4.4710 hc        1 F76      0.056200
     47 H15        -0.2460   -1.8040   -3.9330 hc        1 F76      0.056200
     48 H16        -2.8740   -1.5450   -4.3490 hc        1 F76      0.048700
     49 H17        -2.8930   -0.8410   -2.6880 hc        1 F76      0.048700
     50 H18        -3.3130   -3.1870   -2.4220 hc        1 F76      0.048200
     51 H19        -2.0360   -3.6580   -3.6110 hc        1 F76      0.048200
     52 H20        -1.4900   -4.0110   -1.1190 hc        1 F76      0.051700
     53 H21        -0.2460   -3.1530   -2.1020 hc        1 F76      0.051700
     54 H22        -1.0730   -2.2770    0.3130 hc        1 F76      0.071700
     55 H23        -2.3950   -1.5060   -0.6430 hc        1 F76      0.071700
     56 H233        5.4990    8.2690   -8.8400 hn        1 F76      0.447800
@<TRIPOS>BOND
     1    1    2 ar  
     2    1   32 ar  
     3    2    3 ar  
     4    2    7 ar  
     5    3    4 ar  
     6    3   33 1   
     7    4    5 ar  
     8    4   34 1   
     9    5    6 ar  
    10    5   35 1   
    11    6    7 ar  
    12    6   36 1   
    13    7    8 ar  
    14    8    9 1   
    15    8   26 ar  
    16    9   10 2   
    17    9   11 1   
    18   11   12 1   
    19   12   13 1   
    20   12   37 1   
    21   12   38 1   
    22   13   14 2   
    23   13   15 1   
    24   15   16 1   
    25   15   39 1   
    26   16   17 ar  
    27   16   25 ar  
    28   17   18 ar  
    29   17   40 1   
    30   18   19 ar  
    31   18   41 1   
    32   19   20 1   
    33   19   24 ar  
    34   20   21 2   
    35   20   22 2   
    36   20   23 1   
    37   23   42 1   
    38   23   43 1   
    39   23   56 1   
    40   24   25 ar  
    41   24   44 1   
    42   25   45 1   
    43   26   27 1   
    44   26   32 ar  
    45   27   28 1   
    46   27   46 1   
    47   27   47 1   
    48   28   29 1   
    49   28   48 1   
    50   28   49 1   
    51   29   30 1   
    52   29   50 1   
    53   29   51 1   
    54   30   31 1   
    55   30   52 1   
    56   30   53 1   
    57   31   32 1   
    58   31   54 1   
    59   31   55 1   
@<TRIPOS>SUBSTRUCTURE
     1 F76         1 TEMP              0 ****  ****    0 ROOT
