@<TRIPOS>MOLECULE
F76
   57    60     1     0     0
SMALL
bcc


@<TRIPOS>ATOM
      1 N01         0.8960   -1.0330   -0.8290 nb        1 F76     -0.616000
      2 C02         1.8850   -0.0910   -0.9790 ca        1 F76      0.403600
      3 C03         3.0110   -0.1040   -0.0900 ca        1 F76     -0.125300
      4 C04         4.0040    0.8340   -0.2180 ca        1 F76     -0.122000
      5 C05         3.9350    1.8260   -1.2230 ca        1 F76     -0.088000
      6 C06         2.8710    1.8600   -2.0930 ca        1 F76     -0.156000
      7 C07         1.8250    0.9100   -1.9960 ca        1 F76     -0.111300
      8 C08         0.6970    0.8720   -2.8700 ca        1 F76     -0.138600
      9 C09         0.6280    1.8400   -3.9690 c         1 F76      0.698700
     10 O10         0.6260    1.6930   -5.1950 o         1 F76     -0.578000
     11 O11         0.6310    3.1800   -3.5710 os        1 F76     -0.432900
     12 C12         0.1150    4.1410   -4.4580 c3        1 F76      0.084400
     13 C13         1.1450    4.7330   -5.4080 c         1 F76      0.526100
     14 O14         1.1010    5.8170   -5.9560 o         1 F76     -0.392100
     15 N15         2.3460    3.8390   -5.7300 n4        1 F76     -0.588200
     16 C16         3.3060    4.4040   -6.6780 ca        1 F76      0.088600
     17 C17         4.3090    5.2800   -6.2270 ca        1 F76     -0.117000
     18 C18         5.2250    5.7970   -7.1390 ca        1 F76      0.026000
     19 C19         5.1700    5.4630   -8.5050 ca        1 F76     -0.471500
     20 S20         6.3420    5.9620   -9.5410 sy        1 F76      1.465200
     21 O21         7.4500    6.4570   -8.8950 o         1 F76     -0.533800
     22 O22         6.3700    5.2360  -10.7070 o         1 F76     -0.533800
     23 N23         5.5500    7.5650  -10.1490 n4        1 F76     -0.800500
     24 C24         4.1570    4.5860   -8.9320 ca        1 F76      0.026000
     25 C25         3.2280    4.0570   -8.0390 ca        1 F76     -0.117000
     26 C26        -0.3080   -0.0760   -2.7180 ca        1 F76     -0.071600
     27 C27        -1.4490   -0.0950   -3.6740 c3        1 F76     -0.047100
     28 C28        -2.7960   -0.4510   -3.0790 c3        1 F76     -0.076400
     29 C29        -3.0340   -1.9460   -3.0660 c3        1 F76     -0.087400
     30 C30        -1.8250   -2.7110   -2.5720 c3        1 F76     -0.082400
     31 C31        -1.2100   -2.0770   -1.3450 c3        1 F76     -0.140700
     32 C32        -0.1580   -1.0350   -1.6390 ca        1 F76      0.445600
     33 H1          3.0590   -0.8780    0.6960 ha        1 F76      0.178000
     34 H2          4.8680    0.8260    0.4670 ha        1 F76      0.162000
     35 H3          4.7420    2.5710   -1.2910 ha        1 F76      0.138000
     36 H4          2.8080    2.6440   -2.8610 ha        1 F76      0.077000
     37 H5         -0.7220    3.7310   -5.0930 h1        1 F76      0.151700
     38 H6         -0.2500    4.9810   -3.7910 h1        1 F76      0.151700
     39 H7          2.8200    3.6250   -4.8380 hn        1 F76      0.492800
     40 H8          4.3930    5.5670   -5.1620 ha        1 F76      0.193000
     41 H9          6.0290    6.4650   -6.7660 ha        1 F76      0.197500
     42 H10         5.4260    7.5390  -11.1650 hn        1 F76      0.470800
     43 H11         6.1570    8.3640   -9.9430 hn        1 F76      0.470800
     44 H12         4.1030    4.2800   -9.9980 ha        1 F76      0.197500
     45 H13         2.4540    3.3640   -8.4190 ha        1 F76      0.193000
     46 H14        -1.5460    0.9140   -4.1620 hc        1 F76      0.055700
     47 H15        -1.1970   -0.8260   -4.4950 hc        1 F76      0.055700
     48 H16        -3.6000    0.0380   -3.6910 hc        1 F76      0.055200
     49 H17        -2.8780   -0.0360   -2.0400 hc        1 F76      0.055200
     50 H18        -3.9170   -2.1660   -2.4080 hc        1 F76      0.058700
     51 H19        -3.2940   -2.2990   -4.0990 hc        1 F76      0.058700
     52 H20        -1.0600   -2.7960   -3.3870 hc        1 F76      0.057200
     53 H21        -2.1430   -3.7580   -2.3150 hc        1 F76      0.057200
     54 H22        -2.0060   -1.5850   -0.7190 hc        1 F76      0.084200
     55 H23        -0.7620   -2.8920   -0.7100 hc        1 F76      0.084200
     56 H152        1.9670    2.9440   -6.1060 hn        1 F76      0.492800
     57 H233        4.6410    7.7620   -9.7380 hn        1 F76      0.470800
@<TRIPOS>BOND
     1    1    2 ar  
     2    1   32 ar  
     3    2    3 ar  
     4    2    7 ar  
     5    3    4 ar  
     6    3   33 1   
     7    4    5 ar  
     8    4   34 1   
     9    5    6 ar  
    10    5   35 1   
    11    6    7 ar  
    12    6   36 1   
    13    7    8 ar  
    14    8    9 1   
    15    8   26 ar  
    16    9   10 2   
    17    9   11 1   
    18   11   12 1   
    19   12   13 1   
    20   12   37 1   
    21   12   38 1   
    22   13   14 2   
    23   13   15 1   
    24   15   16 1   
    25   15   39 1   
    26   15   56 1   
    27   16   17 ar  
    28   16   25 ar  
    29   17   18 ar  
    30   17   40 1   
    31   18   19 ar  
    32   18   41 1   
    33   19   20 1   
    34   19   24 ar  
    35   20   21 2   
    36   20   22 2   
    37   20   23 1   
    38   23   42 1   
    39   23   43 1   
    40   23   57 1   
    41   24   25 ar  
    42   24   44 1   
    43   25   45 1   
    44   26   27 1   
    45   26   32 ar  
    46   27   28 1   
    47   27   46 1   
    48   27   47 1   
    49   28   29 1   
    50   28   48 1   
    51   28   49 1   
    52   29   30 1   
    53   29   50 1   
    54   29   51 1   
    55   30   31 1   
    56   30   52 1   
    57   30   53 1   
    58   31   32 1   
    59   31   54 1   
    60   31   55 1   
@<TRIPOS>SUBSTRUCTURE
     1 F76         1 TEMP              0 ****  ****    0 ROOT
