@<TRIPOS>MOLECULE
F76
   56    59     1     0     0
SMALL
bcc


@<TRIPOS>ATOM
      1 N01         0.1700   -0.1570   -0.0640 nb        1 F76     -0.643000
      2 C02         0.9800    0.9310   -0.2860 ca        1 F76      0.399600
      3 C03         1.6570    1.5470    0.8180 ca        1 F76     -0.155300
      4 C04         2.4610    2.6390    0.6110 ca        1 F76     -0.122000
      5 C05         2.6360    3.1760   -0.6860 ca        1 F76     -0.112000
      6 C06         2.0060    2.6080   -1.7660 ca        1 F76     -0.125000
      7 C07         1.1700    1.4750   -1.5930 ca        1 F76     -0.116300
      8 C08         0.4980    0.8250   -2.6680 ca        1 F76     -0.090600
      9 C09         0.7260    1.3210   -4.0380 c         1 F76      0.664700
     10 O10         1.3700    0.8340   -4.9670 o         1 F76     -0.526000
     11 O11         0.0980    2.5300   -4.2950 os        1 F76     -0.404900
     12 C12         0.1830    3.0420   -5.6130 c3        1 F76      0.075400
     13 C13         1.5400    3.7090   -5.8310 c         1 F76      0.650100
     14 O14         2.3210    3.9670   -4.9120 o         1 F76     -0.518100
     15 N15         1.8390    4.0380   -7.1770 ns        1 F76     -0.453100
     16 C16         3.0120    4.5500   -7.6730 ca        1 F76      0.230600
     17 C17         4.1580    4.8350   -6.8690 ca        1 F76     -0.215000
     18 C18         5.3020    5.3370   -7.4370 ca        1 F76      0.049500
     19 C19         5.4120    5.6090   -8.8270 ca        1 F76     -0.644500
     20 S20         6.7590    6.1040   -9.4680 sy        1 F76      1.514200
     21 O21         7.8860    5.9970   -8.6800 o         1 F76     -0.577300
     22 O22         6.8350    6.0400  -10.8430 o         1 F76     -0.577300
     23 N23         6.4540    8.0280   -9.2780 nz        1 F76     -0.780500
     24 C24         4.2680    5.3210   -9.6180 ca        1 F76      0.049500
     25 C25         3.1140    4.8150   -9.0790 ca        1 F76     -0.215000
     26 C26        -0.3240   -0.2700   -2.4480 ca        1 F76     -0.114600
     27 C27        -0.9690   -0.9360   -3.6140 c3        1 F76     -0.040100
     28 C28        -2.3620   -1.4760   -3.3730 c3        1 F76     -0.074400
     29 C29        -2.3410   -2.8830   -2.8150 c3        1 F76     -0.083400
     30 C30        -1.3260   -3.0390   -1.7020 c3        1 F76     -0.079400
     31 C31        -1.3690   -1.8860   -0.7250 c3        1 F76     -0.134700
     32 C32        -0.4630   -0.7340   -1.0830 ca        1 F76      0.438600
     33 H1          1.5170    1.1290    1.8280 ha        1 F76      0.159000
     34 H2          2.9810    3.1120    1.4580 ha        1 F76      0.143000
     35 H3          3.2840    4.0560   -0.8180 ha        1 F76      0.136000
     36 H4          2.1300    3.0280   -2.7780 ha        1 F76      0.146000
     37 H5         -0.6280    3.8200   -5.6550 h1        1 F76      0.101700
     38 H6          0.0140    2.2260   -6.3660 h1        1 F76      0.101700
     39 H7          1.1320    3.8200   -7.8500 hn        1 F76      0.338500
     40 H8          4.1380    4.6380   -5.7800 ha        1 F76      0.187000
     41 H9          6.1850    5.5180   -6.7920 ha        1 F76      0.166500
     42 H10         7.1900    8.4440   -8.7140 hn        1 F76      0.447800
     43 H11         6.4660    8.4760  -10.1900 hn        1 F76      0.447800
     44 H12         4.3240    5.4960  -10.7110 ha        1 F76      0.166500
     45 H13         2.2590    4.6000   -9.7430 ha        1 F76      0.187000
     46 H14        -0.2930   -1.7730   -3.9510 hc        1 F76      0.056200
     47 H15        -1.0260   -0.2070   -4.4700 hc        1 F76      0.056200
     48 H16        -2.9210   -1.4830   -4.3470 hc        1 F76      0.048700
     49 H17        -2.9210   -0.7930   -2.6800 hc        1 F76      0.048700
     50 H18        -3.3640   -3.1380   -2.4320 hc        1 F76      0.048200
     51 H19        -2.1010   -3.6120   -3.6330 hc        1 F76      0.048200
     52 H20        -0.2950   -3.1390   -2.1320 hc        1 F76      0.051700
     53 H21        -1.5420   -3.9920   -1.1490 hc        1 F76      0.051700
     54 H22        -1.0960   -2.2760    0.2960 hc        1 F76      0.071700
     55 H23        -2.4160   -1.4820   -0.6450 hc        1 F76      0.071700
     56 H233        5.5640    8.2310   -8.8370 hn        1 F76      0.447800
@<TRIPOS>BOND
     1    1    2 ar  
     2    1   32 ar  
     3    2    3 ar  
     4    2    7 ar  
     5    3    4 ar  
     6    3   33 1   
     7    4    5 ar  
     8    4   34 1   
     9    5    6 ar  
    10    5   35 1   
    11    6    7 ar  
    12    6   36 1   
    13    7    8 ar  
    14    8    9 1   
    15    8   26 ar  
    16    9   10 2   
    17    9   11 1   
    18   11   12 1   
    19   12   13 1   
    20   12   37 1   
    21   12   38 1   
    22   13   14 2   
    23   13   15 1   
    24   15   16 1   
    25   15   39 1   
    26   16   17 ar  
    27   16   25 ar  
    28   17   18 ar  
    29   17   40 1   
    30   18   19 ar  
    31   18   41 1   
    32   19   20 1   
    33   19   24 ar  
    34   20   21 2   
    35   20   22 2   
    36   20   23 1   
    37   23   42 1   
    38   23   43 1   
    39   23   56 1   
    40   24   25 ar  
    41   24   44 1   
    42   25   45 1   
    43   26   27 1   
    44   26   32 ar  
    45   27   28 1   
    46   27   46 1   
    47   27   47 1   
    48   28   29 1   
    49   28   48 1   
    50   28   49 1   
    51   29   30 1   
    52   29   50 1   
    53   29   51 1   
    54   30   31 1   
    55   30   52 1   
    56   30   53 1   
    57   31   32 1   
    58   31   54 1   
    59   31   55 1   
@<TRIPOS>SUBSTRUCTURE
     1 F76         1 TEMP              0 ****  ****    0 ROOT
