@<TRIPOS>MOLECULE
F77
   38    39     1     0     0
SMALL
bcc


@<TRIPOS>ATOM
      1 C1         -0.5150    0.0490    0.2060 c3        1 F77     -0.087100
      2 C2          0.9620    0.2610   -0.0290 c3        1 F77     -0.028100
      3 C3          1.7440    0.1920    1.2380 ca        1 F77     -0.110300
      4 C4          2.2400   -1.0460    1.6550 ca        1 F77     -0.133000
      5 C5          2.9620   -1.1730    2.8350 ca        1 F77     -0.166000
      6 C6          3.2060   -0.0330    3.6270 ca        1 F77      0.147600
      7 C7          2.7370    1.2340    3.1970 ca        1 F77     -0.129600
      8 C8          2.0010    1.3390    2.0110 ca        1 F77     -0.034300
      9 C9          1.5030    2.6630    1.5600 c3        1 F77     -0.052800
     10 C10         3.0710    2.4500    4.0520 c         1 F77      0.900200
     11 O11         3.7410    3.3870    3.5350 o         1 F77     -0.825300
     12 O12         2.7180    2.4330    5.2680 o         1 F77     -0.825300
     13 N13         3.8860   -0.1440    4.8570 nu        1 F77     -0.785500
     14 S14         5.2820   -0.8780    5.1270 sy        1 F77      1.499200
     15 O15         5.5570   -0.8660    6.5180 o         1 F77     -0.671800
     16 O16         5.3370   -2.1750    4.5520 o         1 F77     -0.671800
     17 C17         6.4590    0.0690    4.3430 ca        1 F77     -0.377500
     18 C18         6.3600    1.4520    4.1620 ca        1 F77      0.007500
     19 C19         7.3860    2.1750    3.5540 ca        1 F77     -0.196000
     20 C20         8.5380    1.5030    3.1140 ca        1 F77      0.160900
     21 C21         8.6500    0.1070    3.2770 ca        1 F77     -0.196000
     22 C22         7.6120   -0.5850    3.8820 ca        1 F77      0.007500
     23 F23         9.5460    2.1910    2.5260 f         1 F77     -0.151900
     24 H11        -0.6980   -0.9500    0.6690 hc        1 F77      0.028700
     25 H12        -1.0710    0.1010   -0.7610 hc        1 F77      0.028700
     26 H13        -0.9200    0.8320    0.8920 hc        1 F77      0.028700
     27 H21A        1.3370   -0.5230   -0.7420 hc        1 F77      0.036200
     28 H22A        1.1220    1.2560   -0.5250 hc        1 F77      0.036200
     29 H4          2.0520   -1.9400    1.0420 ha        1 F77      0.113000
     30 H5          3.3460   -2.1590    3.1400 ha        1 F77      0.148000
     31 H91         2.0100    2.9570    0.6060 hc        1 F77      0.045367
     32 H92         1.7160    3.4570    2.3200 hc        1 F77      0.045367
     33 H93         0.4000    2.6220    1.3770 hc        1 F77      0.045367
     34 HN13        3.5070    0.5070    5.5350 hn        1 F77      0.507800
     35 H18         5.4510    2.0150    4.4710 ha        1 F77      0.176000
     36 H19         7.2840    3.2600    3.4080 ha        1 F77      0.151000
     37 H21         9.5490   -0.4140    2.9220 ha        1 F77      0.151000
     38 H22         7.6860   -1.6820    3.9950 ha        1 F77      0.176000
@<TRIPOS>BOND
     1    1    2 1   
     2    1   24 1   
     3    1   25 1   
     4    1   26 1   
     5    2    3 1   
     6    2   27 1   
     7    2   28 1   
     8    3    4 ar  
     9    3    8 ar  
    10    4    5 ar  
    11    4   29 1   
    12    5    6 ar  
    13    5   30 1   
    14    6    7 ar  
    15    6   13 1   
    16    7    8 ar  
    17    7   10 1   
    18    8    9 1   
    19    9   31 1   
    20    9   32 1   
    21    9   33 1   
    22   10   11 1   
    23   10   12 1   
    24   13   14 1   
    25   13   34 1   
    26   14   15 2   
    27   14   16 2   
    28   14   17 1   
    29   17   18 ar  
    30   17   22 ar  
    31   18   19 ar  
    32   18   35 1   
    33   19   20 ar  
    34   19   36 1   
    35   20   21 ar  
    36   20   23 1   
    37   21   22 ar  
    38   21   37 1   
    39   22   38 1   
@<TRIPOS>SUBSTRUCTURE
     1 F77         1 TEMP              0 ****  ****    0 ROOT
