@<TRIPOS>MOLECULE
F77
   38    34     1     0     0
SMALL
bcc


@<TRIPOS>ATOM
      1 C1         -3.0670   -0.4510   -4.3810 c3        1 F77     -0.205000
      2 C2         -1.6320    0.0290   -4.4100 c3        1 F77     -0.114000
      3 C3         -1.0760    0.0450   -2.9990 c2        1 F77     -0.103000
      4 C4         -0.8640   -1.1470   -2.3240 c2        1 F77     -0.133000
      5 C5         -0.3320   -1.1340   -1.0440 c1        1 F77     -0.166000
      6 C6         -0.0110    0.0720   -0.4390 c1        1 F77      0.066000
      7 C7         -0.2230    1.2640   -1.1130 c1        1 F77     -0.109000
      8 C8         -0.7560    1.2510   -2.3940 c1        1 F77     -0.027000
      9 C9         -0.9110    2.5460   -3.1610 c3        1 F77     -0.178000
     10 C10         0.0500    2.5820   -0.4230 c2        1 F77      0.349000
     11 O11        -0.8540    3.1370    0.2550 o         1 F77     -0.559500
     12 O12         1.1700    3.1410   -0.5560 o         1 F77     -0.559500
     13 N13         0.4580    0.0890    0.9040 n3        1 F77     -0.835000
     14 S14         1.3390   -1.1720    1.4840 s4        1 F77      2.054800
     15 O15         0.7310   -2.4290    1.1510 o         1 F77     -0.559400
     16 O16         2.6000   -1.2830    0.8050 o         1 F77     -0.559400
     17 C17         1.5630   -1.0100    3.2390 c1        1 F77     -0.822000
     18 C18         2.7230   -0.4360    3.7380 c2        1 F77      0.023000
     19 C19         2.9410   -0.3900    5.1060 c1        1 F77     -0.183000
     20 C20         2.0000   -0.9180    5.9760 c1        1 F77      0.126000
     21 C21         0.8400   -1.4920    5.4780 c1        1 F77     -0.209000
     22 C22         0.6220   -1.5380    4.1090 c1        1 F77     -0.008000
     23 F23         2.2220   -0.8980    7.2960 f         1 F77     -0.117000
     24 H11        -3.0820   -1.4310   -4.3540 hc        1 F77      0.068000
     25 H12        -3.5150   -0.0950   -3.5860 hc        1 F77      0.068000
     26 H13        -3.5310   -0.1390   -5.1860 hc        1 F77      0.068000
     27 H21A       -1.5980    0.9320   -4.7840 hc        1 F77      0.075500
     28 H22A       -1.0970   -0.5730   -4.9640 hc        1 F77      0.075500
     29 H4         -1.1070   -1.9950   -2.7430 ha        1 F77      0.113000
     30 H5         -0.1820   -1.9740   -0.5690 ha        1 F77      0.148000
     31 H91        -0.3900    2.4990   -3.9900 hc        1 F77      0.084667
     32 H92        -0.5880    3.2910   -2.6130 hc        1 F77      0.084667
     33 H93        -1.8570    2.6860   -3.3780 hc        1 F77      0.084667
     34 HN13        0.2840    0.8070    1.4380 hn        1 F77      0.303000
     35 H18         3.3860   -0.0640    3.1260 ha        1 F77      0.201000
     36 H19         3.7580    0.0140    5.4570 ha        1 F77      0.164000
     37 H21         0.1830   -1.8760    6.0910 ha        1 F77      0.138000
     38 H22        -0.1940   -1.9420    3.7580 ha        1 F77      0.151000
@<TRIPOS>BOND
     1    1    2 1   
     2    1   24 1   
     3    1   25 1   
     4    1   26 1   
     5    2    3 1   
     6    2   27 1   
     7    2   28 1   
     8    3    4 1   
     9    3    8 1   
    10    4    5 1   
    11    4   29 1   
    12    5   30 1   
    13    6    7 1   
    14    6   13 1   
    15    7   10 1   
    16    8    9 1   
    17    9   31 1   
    18    9   32 1   
    19    9   33 1   
    20   10   11 1   
    21   10   12 1   
    22   13   14 1   
    23   13   34 1   
    24   14   15 1   
    25   14   16 1   
    26   17   18 1   
    27   17   22 1   
    28   18   19 1   
    29   18   35 1   
    30   19   36 1   
    31   20   21 1   
    32   20   23 1   
    33   21   37 1   
    34   22   38 1   
@<TRIPOS>SUBSTRUCTURE
     1 F77         1 TEMP              0 ****  ****    0 ROOT
