@<TRIPOS>MOLECULE
F77
   38    39     1     0     0
SMALL
bcc


@<TRIPOS>ATOM
      1 C1          2.9010    0.7090   -2.1320 c3        1 F77     -0.087100
      2 C2          2.3650   -0.6710   -1.8330 c3        1 F77     -0.028100
      3 C3          2.1850   -0.8950   -0.3700 ca        1 F77     -0.110300
      4 C4          0.9610   -0.5620    0.2140 ca        1 F77     -0.133000
      5 C5          0.7420   -0.7350    1.5750 ca        1 F77     -0.166000
      6 C6          1.7690   -1.2600    2.3840 ca        1 F77      0.147600
      7 C7          3.0030   -1.6340    1.7960 ca        1 F77     -0.129600
      8 C8          3.2090   -1.4410    0.4250 ca        1 F77     -0.034300
      9 C9          4.5030   -1.8250   -0.1950 c3        1 F77     -0.052800
     10 C10         4.0680   -2.2520    2.6940 c         1 F77      0.900200
     11 O11         4.4780   -3.4170    2.4330 o         1 F77     -0.825300
     12 O12         4.4440   -1.5910    3.7070 o         1 F77     -0.825300
     13 N13         1.5930   -1.3920    3.7770 nh        1 F77     -0.785500
     14 S14         0.3670   -2.0860    4.5350 sy        1 F77      1.499200
     15 O15         0.5120   -1.8990    5.9330 o         1 F77     -0.671800
     16 O16        -0.8940   -1.6610    4.0370 o         1 F77     -0.671800
     17 C17         0.5020   -3.7500    4.2020 ca        1 F77     -0.377500
     18 C18         1.7150   -4.4080    3.9760 ca        1 F77      0.007500
     19 C19         1.7580   -5.7840    3.7590 ca        1 F77     -0.196000
     20 C20         0.5650   -6.5230    3.7650 ca        1 F77      0.160900
     21 C21        -0.6690   -5.8750    3.9800 ca        1 F77     -0.196000
     22 C22        -0.6810   -4.5040    4.1890 ca        1 F77      0.007500
     23 F23         0.5900   -7.8620    3.5610 f         1 F77     -0.151900
     24 H11         2.2040    1.4910   -1.7470 hc        1 F77      0.028700
     25 H12         3.0190    0.8470   -3.2340 hc        1 F77      0.028700
     26 H13         3.8960    0.8570   -1.6460 hc        1 F77      0.028700
     27 H21A        3.0630   -1.4430   -2.2570 hc        1 F77      0.036200
     28 H22A        1.3780   -0.8030   -2.3540 hc        1 F77      0.036200
     29 H4          0.1540   -0.1500   -0.4100 ha        1 F77      0.113000
     30 H5         -0.2340   -0.4690    2.0130 ha        1 F77      0.148000
     31 H91         5.2380   -2.1640    0.5790 hc        1 F77      0.045367
     32 H92         4.3460   -2.6690   -0.9120 hc        1 F77      0.045367
     33 H93         4.9380   -0.9600   -0.7550 hc        1 F77      0.045367
     34 HN13        2.4590   -1.2010    4.2660 hn        1 F77      0.507800
     35 H18         2.6780   -3.8520    3.9340 ha        1 F77      0.176000
     36 H19         2.7210   -6.2820    3.5680 ha        1 F77      0.151000
     37 H21        -1.6000   -6.4570    3.9740 ha        1 F77      0.151000
     38 H22        -1.6470   -3.9880    4.3390 ha        1 F77      0.176000
@<TRIPOS>BOND
     1    1    2 1   
     2    1   24 1   
     3    1   25 1   
     4    1   26 1   
     5    2    3 1   
     6    2   27 1   
     7    2   28 1   
     8    3    4 ar  
     9    3    8 ar  
    10    4    5 ar  
    11    4   29 1   
    12    5    6 ar  
    13    5   30 1   
    14    6    7 ar  
    15    6   13 1   
    16    7    8 ar  
    17    7   10 1   
    18    8    9 1   
    19    9   31 1   
    20    9   32 1   
    21    9   33 1   
    22   10   11 1   
    23   10   12 1   
    24   13   14 1   
    25   13   34 1   
    26   14   15 2   
    27   14   16 2   
    28   14   17 1   
    29   17   18 ar  
    30   17   22 ar  
    31   18   19 ar  
    32   18   35 1   
    33   19   20 ar  
    34   19   36 1   
    35   20   21 ar  
    36   20   23 1   
    37   21   22 ar  
    38   21   37 1   
    39   22   38 1   
@<TRIPOS>SUBSTRUCTURE
     1 F77         1 TEMP              0 ****  ****    0 ROOT
