@<TRIPOS>MOLECULE
F77
   39    40     1     0     0
SMALL
bcc


@<TRIPOS>ATOM
      1 C1         -0.3130   -0.3400    0.1240 c3        1 F77     -0.091100
      2 C2          1.1070    0.1430   -0.0610 c3        1 F77     -0.037100
      3 C3          1.8560    0.1870    1.2260 ca        1 F77     -0.107300
      4 C4          2.5430   -0.9550    1.6510 ca        1 F77     -0.072000
      5 C5          3.2640   -0.9750    2.8370 ca        1 F77     -0.192000
      6 C6          3.3260    0.1800    3.6470 ca        1 F77      0.207600
      7 C7          2.6200    1.3350    3.2210 ca        1 F77     -0.222600
      8 C8          1.8930    1.3440    2.0210 ca        1 F77      0.006700
      9 C9          1.1730    2.5670    1.5890 c3        1 F77     -0.071800
     10 C10         2.6750    2.5510    4.0600 c         1 F77      0.642700
     11 O11         3.2610    3.6090    3.8400 o         1 F77     -0.474000
     12 O12         2.0380    2.5250    5.2750 oh        1 F77     -0.593100
     13 N13         4.0550    0.1940    4.8430 nh        1 F77     -0.773500
     14 S14         5.3670   -0.7040    5.2580 sy        1 F77      1.522200
     15 O15         5.2280   -2.0340    4.8240 o         1 F77     -0.645300
     16 O16         5.5670   -0.4940    6.6380 o         1 F77     -0.645300
     17 C17         6.6130    0.0210    4.4020 ca        1 F77     -0.419500
     18 C18         7.2530    1.1630    4.9040 ca        1 F77      0.016500
     19 C19         8.3020    1.7640    4.2210 ca        1 F77     -0.194000
     20 C20         8.7330    1.2100    2.9990 ca        1 F77      0.199900
     21 C21         8.1080    0.0570    2.4830 ca        1 F77     -0.194000
     22 C22         7.0610   -0.5190    3.1880 ca        1 F77      0.016500
     23 F23         9.7500    1.7840    2.3220 f         1 F77     -0.125900
     24 H11        -0.8360   -0.3730   -0.8620 hc        1 F77      0.038033
     25 H12        -0.8790    0.3420    0.8030 hc        1 F77      0.038033
     26 H13        -0.3240   -1.3650    0.5680 hc        1 F77      0.038033
     27 H21A        1.0990    1.1610   -0.5360 hc        1 F77      0.051200
     28 H22A        1.6390   -0.5440   -0.7740 hc        1 F77      0.051200
     29 H4          2.5080   -1.8670    1.0320 ha        1 F77      0.143000
     30 H5          3.7770   -1.9050    3.1390 ha        1 F77      0.176000
     31 H91         1.1430    3.3450    2.3920 hc        1 F77      0.058700
     32 H92         1.6870    3.0120    0.6990 hc        1 F77      0.058700
     33 H93         0.1210    2.3170    1.3000 hc        1 F77      0.058700
     34 HN13        1.5020    1.7220    5.3500 ho        1 F77      0.433000
     35 H18         6.9230    1.5860    5.8700 ha        1 F77      0.159500
     36 H19         8.7970    2.6610    4.6200 ha        1 F77      0.161000
     37 H21         8.4560   -0.3730    1.5320 ha        1 F77      0.161000
     38 H22         6.5760   -1.4310    2.7940 ha        1 F77      0.159500
     39 H132        3.7640    0.9080    5.4790 hn        1 F77      0.457800
@<TRIPOS>BOND
     1    1    2 1   
     2    1   24 1   
     3    1   25 1   
     4    1   26 1   
     5    2    3 1   
     6    2   27 1   
     7    2   28 1   
     8    3    4 ar  
     9    3    8 ar  
    10    4    5 ar  
    11    4   29 1   
    12    5    6 ar  
    13    5   30 1   
    14    6    7 ar  
    15    6   13 1   
    16    7    8 ar  
    17    7   10 1   
    18    8    9 1   
    19    9   31 1   
    20    9   32 1   
    21    9   33 1   
    22   10   11 2   
    23   10   12 1   
    24   12   34 1   
    25   13   14 1   
    26   13   39 1   
    27   14   15 2   
    28   14   16 2   
    29   14   17 1   
    30   17   18 ar  
    31   17   22 ar  
    32   18   19 ar  
    33   18   35 1   
    34   19   20 ar  
    35   19   36 1   
    36   20   21 ar  
    37   20   23 1   
    38   21   22 ar  
    39   21   37 1   
    40   22   38 1   
@<TRIPOS>SUBSTRUCTURE
     1 F77         1 TEMP              0 ****  ****    0 ROOT
