@<TRIPOS>MOLECULE
F77
   38    39     1     0     0
SMALL
bcc


@<TRIPOS>ATOM
      1 C1         -0.5270    0.0480    0.2260 c3        1 F77     -0.087100
      2 C2          0.9500    0.2560   -0.0150 c3        1 F77     -0.028100
      3 C3          1.7370    0.1900    1.2480 ca        1 F77     -0.110300
      4 C4          2.2320   -1.0470    1.6690 ca        1 F77     -0.133000
      5 C5          2.9580   -1.1700    2.8460 ca        1 F77     -0.166000
      6 C6          3.2080   -0.0270    3.6320 ca        1 F77      0.147600
      7 C7          2.7400    1.2380    3.1990 ca        1 F77     -0.129600
      8 C8          2.0000    1.3410    2.0150 ca        1 F77     -0.034300
      9 C9          1.5020    2.6630    1.5600 c3        1 F77     -0.052800
     10 C10         3.0800    2.4580    4.0460 c         1 F77      0.900200
     11 O11         3.7510    3.3900    3.5230 o         1 F77     -0.824800
     12 O12         2.7320    2.4470    5.2640 o         1 F77     -0.824800
     13 N13         3.8930   -0.1340    4.8610 nh        1 F77     -0.785500
     14 S14         5.2880   -0.8700    5.1280 sy        1 F77      1.499200
     15 O15         5.5690   -0.8520    6.5180 o         1 F77     -0.671800
     16 O16         5.3380   -2.1700    4.5580 o         1 F77     -0.671800
     17 C17         6.4650    0.0700    4.3340 ca        1 F77     -0.377500
     18 C18         6.3680    1.4520    4.1470 ca        1 F77      0.007500
     19 C19         7.3930    2.1700    3.5310 ca        1 F77     -0.196000
     20 C20         8.5410    1.4940    3.0910 ca        1 F77      0.160900
     21 C21         8.6510    0.0980    3.2600 ca        1 F77     -0.196000
     22 C22         7.6140   -0.5890    3.8720 ca        1 F77      0.007500
     23 F23         9.5490    2.1760    2.4950 f         1 F77     -0.151900
     24 H11        -0.7100   -0.9500    0.6950 hc        1 F77      0.028700
     25 H12        -1.0870    0.0960   -0.7390 hc        1 F77      0.028700
     26 H13        -0.9270    0.8340    0.9110 hc        1 F77      0.028700
     27 H21A        1.3200   -0.5320   -0.7260 hc        1 F77      0.036200
     28 H22A        1.1090    1.2480   -0.5170 hc        1 F77      0.036200
     29 H4          2.0400   -1.9440    1.0610 ha        1 F77      0.113000
     30 H5          3.3420   -2.1560    3.1550 ha        1 F77      0.148000
     31 H91         2.0060    2.9510    0.6030 hc        1 F77      0.045367
     32 H92         1.7210    3.4600    2.3160 hc        1 F77      0.045367
     33 H93         0.3990    2.6230    1.3820 hc        1 F77      0.045367
     34 HN13        3.5180    0.5200    5.5370 hn        1 F77      0.507800
     35 H18         5.4620    2.0190    4.4560 ha        1 F77      0.176000
     36 H19         7.2930    3.2550    3.3800 ha        1 F77      0.151000
     37 H21         9.5470   -0.4270    2.9030 ha        1 F77      0.151000
     38 H22         7.6860   -1.6850    3.9900 ha        1 F77      0.176000
@<TRIPOS>BOND
     1    1    2 1   
     2    1   24 1   
     3    1   25 1   
     4    1   26 1   
     5    2    3 1   
     6    2   27 1   
     7    2   28 1   
     8    3    4 ar  
     9    3    8 ar  
    10    4    5 ar  
    11    4   29 1   
    12    5    6 ar  
    13    5   30 1   
    14    6    7 ar  
    15    6   13 1   
    16    7    8 ar  
    17    7   10 1   
    18    8    9 1   
    19    9   31 1   
    20    9   32 1   
    21    9   33 1   
    22   10   11 1   
    23   10   12 1   
    24   13   14 1   
    25   13   34 1   
    26   14   15 2   
    27   14   16 2   
    28   14   17 1   
    29   17   18 ar  
    30   17   22 ar  
    31   18   19 ar  
    32   18   35 1   
    33   19   20 ar  
    34   19   36 1   
    35   20   21 ar  
    36   20   23 1   
    37   21   22 ar  
    38   21   37 1   
    39   22   38 1   
@<TRIPOS>SUBSTRUCTURE
     1 F77         1 TEMP              0 ****  ****    0 ROOT
