@<TRIPOS>MOLECULE
F78
   78    68     1     0     0
SMALL
bcc


@<TRIPOS>ATOM
      1 C21         0.4920   -0.8880    4.0990 c1        1 F78      0.341000
      2 O22         1.5670   -0.3200    4.1390 o         1 F78     -0.374000
      3 C22        -0.4150   -0.9560    5.3990 c2        1 F78     -0.090000
      4 C27         0.0640   -0.4450    6.5870 c2        1 F78     -0.108000
      5 C26        -0.6630   -0.6220    7.7720 c1        1 F78      0.074000
      6 C25        -1.8740   -1.3160    7.7510 c1        1 F78     -0.123600
      7 C24        -2.3520   -1.8240    6.5720 c1        1 F78     -0.123600
      8 C23        -1.6190   -1.6460    5.3750 c1        1 F78     -0.141000
      9 O27        -0.1770   -0.0680    9.0010 oh        1 F78     -0.245000
     10 N11         0.3850    0.5160   -1.4820 n3        1 F78     -0.823000
     11 C12        -0.5640    0.0200   -2.4100 c3        1 F78     -0.015000
     12 C13         0.1070   -0.1710   -3.7940 c3        1 F78     -0.179000
     13 C14        -0.9650   -0.1150   -4.8930 c3        1 F78     -0.120000
     14 C16         1.0160   -0.3890   -0.5430 c3        1 F78     -0.013000
     15 C17         0.0670   -0.6860    0.5950 c3        1 F78     -0.007000
     16 O18        -0.9340   -1.5290    0.1520 oh        1 F78     -0.327000
     17 C19         0.8240   -1.3720    1.7380 c3        1 F78     -0.006000
     18 N20         0.0150   -1.4100    2.8670 n2        1 F78     -0.369000
     19 C32         1.1870   -2.8160    1.3180 c3        1 F78     -0.137000
     20 C33         2.1700   -4.4490    2.8510 c1        1 F78     -0.138000
     21 C34         3.2300   -5.2050    3.2970 c1        1 F78     -0.123600
     22 C35         4.5460   -4.8100    3.0060 c1        1 F78     -0.123600
     23 C36         4.7810   -3.6430    2.2590 c1        1 F78     -0.123600
     24 C37         3.7270   -2.8880    1.8140 c1        1 F78     -0.123600
     25 C38         2.4060   -3.2840    2.1060 c1        1 F78     -0.086000
     26 C40        -0.2920    0.0420   -6.2480 c2        1 F78     -0.071000
     27 C41        -0.1600    1.3120   -6.8180 c2        1 F78     -0.125000
     28 C42         0.3260    1.4470   -8.1400 c1        1 F78     -0.128000
     29 C43         0.6720    0.3190   -8.8690 c1        1 F78     -0.123600
     30 C44         0.5400   -0.9550   -8.2970 c1        1 F78     -0.123600
     31 C45         0.0570   -1.0890   -6.9860 c1        1 F78     -0.128000
     32 S8          0.9210    2.0770   -1.5920 s4        1 F78      2.066800
     33 O9          1.4960    2.3380   -2.8470 o         1 F78     -0.545400
     34 O10         2.0320    2.3000   -0.7300 o         1 F78     -0.545400
     35 C5         -0.4090    3.2120   -1.2430 c1        1 F78     -0.369500
     36 C4         -1.6320    3.0710   -1.9070 c1        1 F78     -0.123600
     37 C6         -0.1970    4.2950   -0.3890 c1        1 F78     -0.098500
     38 C3         -2.6360    4.0050   -1.7190 c1        1 F78     -0.123600
     39 C7         -1.2040    5.2330   -0.2000 c1        1 F78     -0.098500
     40 C2         -2.4340    5.0880   -0.8700 c1        1 F78     -0.369500
     41 O1         -3.4520    6.0410   -0.6960 o         1 F78     -0.206000
     42 C1         -4.3650    5.7320    0.3680 c3        1 F78     -0.079000
     43 H27         0.8610    0.0110    6.6020 ha        1 F78      0.172000
     44 H25        -2.4000   -1.4450    8.6140 ha        1 F78      0.139000
     45 H24        -3.2050   -2.3120    6.5580 ha        1 F78      0.139000
     46 H23        -1.9500   -1.9980    4.5560 ha        1 F78      0.139000
     47 HO27       -0.8090    0.4170    9.3760 ho        1 F78      0.221000
     48 H12        -1.2940    0.6440   -2.4920 h1        1 F78      0.094500
     49 H12A       -0.9310   -0.9010   -2.0710 h1        1 F78      0.094500
     50 H13         0.5600   -1.0440   -3.8200 hc        1 F78      0.098500
     51 H13A        0.7830    0.5660   -3.9500 hc        1 F78      0.098500
     52 H14        -1.4820   -0.9310   -4.8810 hc        1 F78      0.087000
     53 H14A       -1.5630    0.6590   -4.7300 hc        1 F78      0.087000
     54 H16         1.8280    0.0290   -0.1860 h1        1 F78      0.113500
     55 H16A        1.2420   -1.1950   -0.9850 h1        1 F78      0.113500
     56 H17        -0.3370    0.1740    0.9250 h1        1 F78      0.105000
     57 HO18       -1.6960   -1.2090    0.3760 ho        1 F78      0.204000
     58 H19         1.6430   -0.8730    1.9390 h1        1 F78      0.112000
     59 HN20       -0.8290   -1.7980    2.8210 hn        1 F78      0.231000
     60 H32         0.4120   -3.4240    1.5090 hc        1 F78      0.109000
     61 H32A        1.3930   -2.8380    0.3390 hc        1 F78      0.109000
     62 H33         1.1920   -4.7400    3.0700 ha        1 F78      0.129000
     63 H34         3.0710   -5.9950    3.8020 ha        1 F78      0.139000
     64 H35         5.2700   -5.3270    3.3110 ha        1 F78      0.139000
     65 H36         5.7280   -3.3590    2.0510 ha        1 F78      0.139000
     66 H37         3.8950   -2.0570    1.2830 ha        1 F78      0.139000
     67 H41        -0.4130    2.1380   -6.2820 ha        1 F78      0.138000
     68 H42         0.4230    2.3790   -8.5600 ha        1 F78      0.131000
     69 H43         0.9940    0.4080   -9.7440 ha        1 F78      0.139000
     70 H44         0.7990   -1.7970   -8.8430 ha        1 F78      0.139000
     71 H45        -0.0370   -1.9990   -6.5800 ha        1 F78      0.129000
     72 H4         -1.7800    2.3060   -2.5100 ha        1 F78      0.139000
     73 H6          0.6340    4.3900    0.0610 ha        1 F78      0.161000
     74 H3         -3.5120    3.9000   -2.1980 ha        1 F78      0.139000
     75 H7         -1.0500    6.0410    0.4360 ha        1 F78      0.161000
     76 H1         -4.6450    4.8450    0.2920 h1        1 F78      0.089333
     77 H1A        -5.1490    6.3280    0.3130 h1        1 F78      0.089333
     78 H1B        -3.9280    5.8570    1.2080 h1        1 F78      0.089333
@<TRIPOS>BOND
     1    1    2 1   
     2    1    3 1   
     3    3    4 1   
     4    3    8 1   
     5    4    5 1   
     6    4   43 1   
     7    5    9 1   
     8    6    7 1   
     9    6   44 1   
    10    7   45 1   
    11    8   46 1   
    12    9   47 1   
    13   10   11 1   
    14   10   14 1   
    15   10   32 1   
    16   11   12 1   
    17   11   48 1   
    18   11   49 1   
    19   12   13 1   
    20   12   50 1   
    21   12   51 1   
    22   13   26 1   
    23   13   52 1   
    24   13   53 1   
    25   14   15 1   
    26   14   54 1   
    27   14   55 1   
    28   15   16 1   
    29   15   17 1   
    30   15   56 1   
    31   16   57 1   
    32   17   18 1   
    33   17   19 1   
    34   17   58 1   
    35   18   59 1   
    36   19   25 1   
    37   19   60 1   
    38   19   61 1   
    39   20   25 1   
    40   20   62 1   
    41   21   22 1   
    42   21   63 1   
    43   22   64 1   
    44   23   24 1   
    45   23   65 1   
    46   24   66 1   
    47   26   27 1   
    48   26   31 1   
    49   27   28 1   
    50   27   67 1   
    51   28   68 1   
    52   29   30 1   
    53   29   69 1   
    54   30   70 1   
    55   31   71 1   
    56   32   33 1   
    57   32   34 1   
    58   35   37 1   
    59   36   38 1   
    60   36   72 1   
    61   37   73 1   
    62   38   74 1   
    63   39   40 1   
    64   39   75 1   
    65   41   42 1   
    66   42   76 1   
    67   42   77 1   
    68   42   78 1   
@<TRIPOS>SUBSTRUCTURE
     1 F78         1 TEMP              0 ****  ****    0 ROOT
