@<TRIPOS>MOLECULE
F78
   78    81     1     0     0
SMALL
bcc


@<TRIPOS>ATOM
      1 C21         3.2130    0.0470    0.3860 c         1 F78      0.676700
      2 O22         2.8070    0.8540   -0.4780 o         1 F78     -0.624100
      3 C22         4.3980    0.3470    1.2420 ca        1 F78     -0.098600
      4 C27         5.4950    0.9720    0.6420 ca        1 F78     -0.165000
      5 C26         6.6170    1.2760    1.4240 ca        1 F78      0.120100
      6 C25         6.6470    0.9670    2.7960 ca        1 F78     -0.137000
      7 C24         5.5390    0.3560    3.3720 ca        1 F78     -0.104000
      8 C23         4.4150    0.0420    2.6050 ca        1 F78     -0.142000
      9 O27         7.7380    1.8830    0.9080 oh        1 F78     -0.495100
     10 N11        -1.9710    0.0420   -0.6200 n3        1 F78     -0.802500
     11 C12        -2.8300    0.1510    0.5320 c3        1 F78      0.218800
     12 C13        -4.1150   -0.6760    0.4470 c3        1 F78     -0.101400
     13 C14        -4.9420   -0.4660    1.7000 c3        1 F78     -0.034100
     14 C16        -1.0290   -1.0400   -0.6210 c3        1 F78      0.194800
     15 C17         0.1410   -0.8760    0.3770 c3        1 F78      0.085100
     16 O18        -0.1920   -1.3720    1.6580 oh        1 F78     -0.592800
     17 C19         1.4250   -1.5460   -0.1910 c3        1 F78      0.079700
     18 N20         2.6060   -1.1800    0.5550 n         1 F78     -0.549900
     19 C32         1.2420   -3.0720   -0.2670 c3        1 F78     -0.049100
     20 C33         3.2460   -4.5740   -0.3540 ca        1 F78     -0.123500
     21 C34         4.2640   -5.2100   -1.0640 ca        1 F78     -0.125500
     22 C35         4.3840   -5.0160   -2.4390 ca        1 F78     -0.127000
     23 C36         3.4830   -4.1840   -3.1050 ca        1 F78     -0.125500
     24 C37         2.4650   -3.5480   -2.3980 ca        1 F78     -0.123500
     25 C38         2.3400   -3.7390   -1.0160 ca        1 F78     -0.084300
     26 C40        -6.2090   -1.2470    1.6620 ca        1 F78     -0.079300
     27 C41        -6.4220   -2.3000    2.5580 ca        1 F78     -0.127000
     28 C42        -7.6160   -3.0190    2.5270 ca        1 F78     -0.128500
     29 C43        -8.6060   -2.6930    1.6010 ca        1 F78     -0.132000
     30 C44        -8.4000   -1.6440    0.7060 ca        1 F78     -0.128500
     31 C45        -7.2080   -0.9230    0.7350 ca        1 F78     -0.127000
     32 S8         -2.0810    1.1080   -1.8600 sy        1 F78      1.512200
     33 O9         -3.4390    1.4290   -2.0920 o         1 F78     -0.657300
     34 O10        -1.3680    0.5940   -2.9670 o         1 F78     -0.657300
     35 C5         -1.3070    2.4730   -1.2720 ca        1 F78     -0.435500
     36 C4          0.0900    2.5160   -1.1350 ca        1 F78      0.018500
     37 C6         -2.0430    3.6180   -0.9420 ca        1 F78      0.018500
     38 C3          0.7380    3.6550   -0.6840 ca        1 F78     -0.208500
     39 C7         -1.4230    4.7770   -0.4910 ca        1 F78     -0.208500
     40 C2         -0.0250    4.7950   -0.3600 ca        1 F78      0.187100
     41 O1          0.7010    5.8770    0.0780 os        1 F78     -0.318900
     42 C1         -0.0380    7.0530    0.3950 c3        1 F78      0.110700
     43 H27         5.4620    1.2290   -0.4280 ha        1 F78      0.157000
     44 H25         7.5380    1.2160    3.3880 ha        1 F78      0.154000
     45 H24         5.5480    0.1180    4.4470 ha        1 F78      0.140000
     46 H23         3.5440   -0.4250    3.0870 ha        1 F78      0.139000
     47 HO27        7.5750    2.0650   -0.0290 ho        1 F78      0.424000
     48 H12        -2.2540   -0.1590    1.4530 h1        1 F78      0.055700
     49 H12A       -3.1120    1.2390    0.6530 h1        1 F78      0.055700
     50 H13        -4.7090   -0.3680   -0.4550 hc        1 F78      0.057700
     51 H13A       -3.8670   -1.7630    0.3340 hc        1 F78      0.057700
     52 H14        -4.3370   -0.7560    2.6010 hc        1 F78      0.048200
     53 H14A       -5.1890    0.6260    1.8040 hc        1 F78      0.048200
     54 H16        -1.5730   -1.9990   -0.3720 h1        1 F78      0.066200
     55 H16A       -0.6070   -1.1430   -1.6640 h1        1 F78      0.066200
     56 H17         0.3590    0.2180    0.5600 h1        1 F78      0.101700
     57 HO18       -0.4820   -2.2870    1.5530 ho        1 F78      0.396000
     58 H19         1.5620   -1.1460   -1.2440 h1        1 F78      0.091700
     59 HN20        2.8710   -1.7610    1.3130 hn        1 F78      0.318500
     60 H32         1.1650   -3.5000    0.7680 hc        1 F78      0.055200
     61 H32A        0.2670   -3.2710   -0.7880 hc        1 F78      0.055200
     62 H33         3.1560   -4.7320    0.7310 ha        1 F78      0.132000
     63 H34         4.9720   -5.8650   -0.5360 ha        1 F78      0.134000
     64 H35         5.1880   -5.5170   -2.9990 ha        1 F78      0.133000
     65 H36         3.5750   -4.0290   -4.1900 ha        1 F78      0.134000
     66 H37         1.7560   -2.8920   -2.9260 ha        1 F78      0.132000
     67 H41        -5.6450   -2.5610    3.2920 ha        1 F78      0.133000
     68 H42        -7.7760   -3.8450    3.2360 ha        1 F78      0.130500
     69 H43        -9.5470   -3.2610    1.5770 ha        1 F78      0.130000
     70 H44        -9.1780   -1.3840   -0.0260 ha        1 F78      0.130500
     71 H45        -7.0450   -0.0960    0.0270 ha        1 F78      0.133000
     72 H4          0.7000    1.6280   -1.3920 ha        1 F78      0.162000
     73 H6         -3.1430    3.6000   -1.0550 ha        1 F78      0.162000
     74 H3          1.8330    3.6750   -0.5740 ha        1 F78      0.156500
     75 H7         -2.0270    5.6610   -0.2450 ha        1 F78      0.156500
     76 H1          0.7550    7.7780    0.7090 h1        1 F78      0.049700
     77 H1A        -0.5840    7.4290   -0.5040 h1        1 F78      0.049700
     78 H1B        -0.7490    6.8560    1.2340 h1        1 F78      0.049700
@<TRIPOS>BOND
     1    1    2 2   
     2    1    3 1   
     3    1   18 1   
     4    3    4 ar  
     5    3    8 ar  
     6    4    5 ar  
     7    4   43 1   
     8    5    6 ar  
     9    5    9 1   
    10    6    7 ar  
    11    6   44 1   
    12    7    8 ar  
    13    7   45 1   
    14    8   46 1   
    15    9   47 1   
    16   10   11 1   
    17   10   14 1   
    18   10   32 1   
    19   11   12 1   
    20   11   48 1   
    21   11   49 1   
    22   12   13 1   
    23   12   50 1   
    24   12   51 1   
    25   13   26 1   
    26   13   52 1   
    27   13   53 1   
    28   14   15 1   
    29   14   54 1   
    30   14   55 1   
    31   15   16 1   
    32   15   17 1   
    33   15   56 1   
    34   16   57 1   
    35   17   18 1   
    36   17   19 1   
    37   17   58 1   
    38   18   59 1   
    39   19   25 1   
    40   19   60 1   
    41   19   61 1   
    42   20   21 ar  
    43   20   25 ar  
    44   20   62 1   
    45   21   22 ar  
    46   21   63 1   
    47   22   23 ar  
    48   22   64 1   
    49   23   24 ar  
    50   23   65 1   
    51   24   25 ar  
    52   24   66 1   
    53   26   27 ar  
    54   26   31 ar  
    55   27   28 ar  
    56   27   67 1   
    57   28   29 ar  
    58   28   68 1   
    59   29   30 ar  
    60   29   69 1   
    61   30   31 ar  
    62   30   70 1   
    63   31   71 1   
    64   32   33 2   
    65   32   34 2   
    66   32   35 1   
    67   35   36 ar  
    68   35   37 ar  
    69   36   38 ar  
    70   36   72 1   
    71   37   39 ar  
    72   37   73 1   
    73   38   40 ar  
    74   38   74 1   
    75   39   40 ar  
    76   39   75 1   
    77   40   41 1   
    78   41   42 1   
    79   42   76 1   
    80   42   77 1   
    81   42   78 1   
@<TRIPOS>SUBSTRUCTURE
     1 F78         1 TEMP              0 ****  ****    0 ROOT
