@<TRIPOS>MOLECULE
F78
   80    82     1     0     0
SMALL
bcc


@<TRIPOS>ATOM
      1 C21        -0.7390   -0.6060    0.5170 c         1 F78      0.584700
      2 O22        -0.9340    0.6000    0.4300 o         1 F78     -0.448100
      3 C22        -0.8660   -1.4610    1.6980 ca        1 F78     -0.172600
      4 C27        -0.8330   -0.8120    2.9390 ca        1 F78     -0.079000
      5 C26        -0.9590   -1.5800    4.1120 ca        1 F78      0.144100
      6 C25        -1.1260   -2.9710    4.0430 ca        1 F78     -0.140000
      7 C24        -1.1680   -3.5940    2.7950 ca        1 F78     -0.075000
      8 C23        -1.0380   -2.8530    1.6230 ca        1 F78     -0.139000
      9 O27        -0.9070   -0.8800    5.2860 oh        1 F78     -0.468100
     10 N11        -1.5240    2.0270   -4.3250 n7        1 F78     -0.894200
     11 C12        -2.4750    1.3260   -5.1930 c3        1 F78      0.111800
     12 C13        -1.8530    0.5480   -6.3510 c3        1 F78     -0.094400
     13 C14        -2.9340    0.1620   -7.3460 c3        1 F78     -0.026100
     14 C16        -0.5060    1.1810   -3.7150 c3        1 F78      0.095800
     15 C17        -0.9990    0.2290   -2.6120 c3        1 F78      0.098100
     16 O18        -1.8240   -0.8090   -3.0950 oh        1 F78     -0.598800
     17 C19         0.2050   -0.3640   -1.8300 c3        1 F78      0.099500
     18 N20        -0.2900   -1.2980   -0.7580 ny        1 F78     -0.678800
     19 C32         1.1960   -1.0810   -2.7590 c3        1 F78     -0.052100
     20 C33         2.2320   -3.1760   -1.8620 ca        1 F78     -0.131000
     21 C34         3.2610   -3.8390   -1.1950 ca        1 F78     -0.111500
     22 C35         4.3330   -3.1160   -0.6670 ca        1 F78     -0.091000
     23 C36         4.3750   -1.7280   -0.8110 ca        1 F78     -0.111500
     24 C37         3.3490   -1.0630   -1.4800 ca        1 F78     -0.131000
     25 C38         2.2700   -1.7830   -2.0060 ca        1 F78     -0.169300
     26 C40        -2.4020   -0.7380   -8.4050 ca        1 F78     -0.112300
     27 C41        -2.9150   -2.0310   -8.5520 ca        1 F78     -0.127500
     28 C42        -2.4370   -2.8650   -9.5620 ca        1 F78     -0.119500
     29 C43        -1.4430   -2.4150  -10.4310 ca        1 F78     -0.110000
     30 C44        -0.9290   -1.1250  -10.2890 ca        1 F78     -0.119500
     31 C45        -1.4070   -0.2890   -9.2820 ca        1 F78     -0.127500
     32 S8         -0.3250    3.9140   -5.4320 s4        1 F78      1.691300
     33 O9          0.1860    3.1010   -6.3920 o         1 F78     -0.443900
     34 O10         0.3230    4.1180   -4.2520 o         1 F78     -0.443900
     35 C5         -1.5090    4.8210   -5.7850 ca        1 F78     -0.692500
     36 C4         -1.9920    5.8130   -4.8700 ca        1 F78      0.063000
     37 C6         -2.1510    4.7660   -7.0600 ca        1 F78      0.063000
     38 C3         -3.0030    6.6740   -5.1920 ca        1 F78     -0.214500
     39 C7         -3.1650    5.6200   -7.4100 ca        1 F78     -0.214500
     40 C2         -3.6100    6.5980   -6.4820 ca        1 F78      0.305100
     41 O1         -4.5850    7.4920   -6.7120 os        1 F78     -0.263900
     42 C1         -5.2240    7.4960   -8.0020 c3        1 F78      0.096700
     43 H27        -0.7130    0.2810    3.0150 ha        1 F78      0.185000
     44 H25        -1.2280   -3.5670    4.9650 ha        1 F78      0.173000
     45 H24        -1.3100   -4.6870    2.7380 ha        1 F78      0.170000
     46 H23        -1.1000   -3.3820    0.6610 ha        1 F78      0.129000
     47 HO27       -1.0210   -1.4980    6.0270 ho        1 F78      0.449000
     48 H12        -3.1650    2.1160   -5.6110 h1        1 F78      0.069700
     49 H12A       -3.1080    0.6110   -4.5890 h1        1 F78      0.069700
     50 H13        -1.0620    1.1510   -6.8710 hc        1 F78      0.056200
     51 H13A       -1.3600   -0.3820   -5.9640 hc        1 F78      0.056200
     52 H14        -3.3500    1.0900   -7.8240 hc        1 F78      0.051200
     53 H14A       -3.7800   -0.3390   -6.8030 hc        1 F78      0.051200
     54 H16         0.2650    1.8700   -3.2570 h1        1 F78      0.094700
     55 H16A       -0.0100    0.5810   -4.5320 h1        1 F78      0.094700
     56 H17        -1.6580    0.7890   -1.8790 h1        1 F78      0.110700
     57 HO18       -1.4560   -1.1420   -3.9260 ho        1 F78      0.430000
     58 H19         0.7420    0.4840   -1.3070 hx        1 F78      0.124700
     59 HN20       -1.0870   -1.8290   -1.1350 hn        1 F78      0.474300
     60 H32         1.6580   -0.2970   -3.4200 hc        1 F78      0.080200
     61 H32A        0.6440   -1.8020   -3.4200 hc        1 F78      0.080200
     62 H33         1.4130   -3.7590   -2.3110 ha        1 F78      0.135000
     63 H34         3.2360   -4.9360   -1.0980 ha        1 F78      0.160000
     64 H35         5.1510   -3.6420   -0.1490 ha        1 F78      0.164000
     65 H36         5.2280   -1.1580   -0.4080 ha        1 F78      0.160000
     66 H37         3.3990    0.0290   -1.6100 ha        1 F78      0.135000
     67 H41        -3.7080   -2.3900   -7.8780 ha        1 F78      0.126000
     68 H42        -2.8510   -3.8790   -9.6770 ha        1 F78      0.145500
     69 H43        -1.0690   -3.0730  -11.2300 ha        1 F78      0.150000
     70 H44        -0.1490   -0.7660  -10.9770 ha        1 F78      0.145500
     71 H45        -1.0040    0.7290   -9.1800 ha        1 F78      0.126000
     72 H4         -1.5110    5.8860   -3.8740 ha        1 F78      0.172500
     73 H6         -1.8020    4.0090   -7.7910 ha        1 F78      0.172500
     74 H3         -3.3610    7.4410   -4.4820 ha        1 F78      0.193000
     75 H7         -3.6290    5.5550   -8.4080 ha        1 F78      0.193000
     76 H1         -4.4740    7.7110   -8.8000 h1        1 F78      0.083700
     77 H1A        -5.7440    6.5240   -8.1730 h1        1 F78      0.083700
     78 H1B        -5.9600    8.3380   -7.9020 h1        1 F78      0.083700
     79 H111       -2.0520    2.4780   -3.5910 hn        1 F78      0.388800
     80 H202        0.4660   -1.9630   -0.5210 hn        1 F78      0.474300
@<TRIPOS>BOND
     1    1    2 2   
     2    1    3 1   
     3    1   18 1   
     4    3    4 ar  
     5    3    8 ar  
     6    4    5 ar  
     7    4   43 1   
     8    5    6 ar  
     9    5    9 1   
    10    6    7 ar  
    11    6   44 1   
    12    7    8 ar  
    13    7   45 1   
    14    8   46 1   
    15    9   47 1   
    16   10   11 1   
    17   10   14 1   
    18   10   79 1   
    19   11   12 1   
    20   11   48 1   
    21   11   49 1   
    22   12   13 1   
    23   12   50 1   
    24   12   51 1   
    25   13   26 1   
    26   13   52 1   
    27   13   53 1   
    28   14   15 1   
    29   14   54 1   
    30   14   55 1   
    31   15   16 1   
    32   15   17 1   
    33   15   56 1   
    34   16   57 1   
    35   17   18 1   
    36   17   19 1   
    37   17   58 1   
    38   18   59 1   
    39   18   80 1   
    40   19   25 1   
    41   19   60 1   
    42   19   61 1   
    43   20   21 ar  
    44   20   25 ar  
    45   20   62 1   
    46   21   22 ar  
    47   21   63 1   
    48   22   23 ar  
    49   22   64 1   
    50   23   24 ar  
    51   23   65 1   
    52   24   25 ar  
    53   24   66 1   
    54   26   27 ar  
    55   26   31 ar  
    56   27   28 ar  
    57   27   67 1   
    58   28   29 ar  
    59   28   68 1   
    60   29   30 ar  
    61   29   69 1   
    62   30   31 ar  
    63   30   70 1   
    64   31   71 1   
    65   32   33 1   
    66   32   34 1   
    67   32   35 1   
    68   35   36 ar  
    69   35   37 ar  
    70   36   38 ar  
    71   36   72 1   
    72   37   39 ar  
    73   37   73 1   
    74   38   40 ar  
    75   38   74 1   
    76   39   40 ar  
    77   39   75 1   
    78   40   41 1   
    79   41   42 1   
    80   42   76 1   
    81   42   77 1   
    82   42   78 1   
@<TRIPOS>SUBSTRUCTURE
     1 F78         1 TEMP              0 ****  ****    0 ROOT
