@<TRIPOS>MOLECULE
F78
   80    82     1     0     0
SMALL
bcc


@<TRIPOS>ATOM
      1 C21        -0.7280   -0.6350    0.5150 c         1 F78      0.584700
      2 O22        -0.9300    0.5710    0.4370 o         1 F78     -0.448100
      3 C22        -0.8480   -1.4990    1.6900 ca        1 F78     -0.172600
      4 C27        -0.8140   -0.8590    2.9360 ca        1 F78     -0.079000
      5 C26        -0.9330   -1.6360    4.1040 ca        1 F78      0.144100
      6 C25        -1.0940   -3.0270    4.0250 ca        1 F78     -0.140000
      7 C24        -1.1360   -3.6410    2.7730 ca        1 F78     -0.075000
      8 C23        -1.0130   -2.8920    1.6060 ca        1 F78     -0.139000
      9 O27        -0.8820   -0.9440    5.2820 oh        1 F78     -0.468100
     10 N11        -1.5340    2.0290   -4.3060 n3        1 F78     -0.894200
     11 C12        -2.4840    1.3310   -5.1780 c3        1 F78      0.111800
     12 C13        -1.8610    0.5650   -6.3420 c3        1 F78     -0.094400
     13 C14        -2.9420    0.1830   -7.3380 c3        1 F78     -0.026100
     14 C16        -0.5120    1.1840   -3.7040 c3        1 F78      0.095800
     15 C17        -0.9980    0.2220   -2.6080 c3        1 F78      0.098100
     16 O18        -1.8190   -0.8170   -3.0960 oh        1 F78     -0.598800
     17 C19         0.2100   -0.3720   -1.8320 c3        1 F78      0.099500
     18 N20        -0.2780   -1.3160   -0.7650 n4        1 F78     -0.678800
     19 C32         1.2030   -1.0770   -2.7680 c3        1 F78     -0.052100
     20 C33         2.2510   -3.1740   -1.8880 ca        1 F78     -0.131000
     21 C34         3.2840   -3.8360   -1.2270 ca        1 F78     -0.111500
     22 C35         4.3530   -3.1120   -0.6960 ca        1 F78     -0.091000
     23 C36         4.3880   -1.7230   -0.8300 ca        1 F78     -0.111500
     24 C37         3.3570   -1.0580   -1.4920 ca        1 F78     -0.131000
     25 C38         2.2810   -1.7800   -2.0220 ca        1 F78     -0.169300
     26 C40        -2.4090   -0.7060   -8.4060 ca        1 F78     -0.112300
     27 C41        -2.9180   -1.9990   -8.5640 ca        1 F78     -0.127500
     28 C42        -2.4390   -2.8230   -9.5820 ca        1 F78     -0.119500
     29 C43        -1.4470   -2.3610  -10.4480 ca        1 F78     -0.110000
     30 C44        -0.9370   -1.0710  -10.2960 ca        1 F78     -0.119500
     31 C45        -1.4160   -0.2460   -9.2800 ca        1 F78     -0.127500
     32 S8         -0.3440    3.9280   -5.4020 s4        1 F78      1.691300
     33 O9          0.1760    3.1220   -6.3630 o         1 F78     -0.443900
     34 O10         0.2970    4.1330   -4.2200 o         1 F78     -0.443900
     35 C5         -1.5330    4.8290   -5.7570 ca        1 F78     -0.692500
     36 C4         -2.0250    5.8160   -4.8420 ca        1 F78      0.063000
     37 C6         -2.1690    4.7740   -7.0350 ca        1 F78      0.063000
     38 C3         -3.0400    6.6720   -5.1650 ca        1 F78     -0.214500
     39 C7         -3.1870    5.6230   -7.3860 ca        1 F78     -0.214500
     40 C2         -3.6420    6.5960   -6.4580 ca        1 F78      0.305100
     41 O1         -4.6210    7.4850   -6.6890 os        1 F78     -0.263900
     42 C1         -5.2550    7.4890   -7.9810 c3        1 F78      0.096700
     43 H27        -0.7000    0.2350    3.0190 ha        1 F78      0.185000
     44 H25        -1.1900   -3.6300    4.9430 ha        1 F78      0.173000
     45 H24        -1.2740   -4.7340    2.7090 ha        1 F78      0.170000
     46 H23        -1.0760   -3.4140    0.6410 ha        1 F78      0.129000
     47 HO27       -0.9900   -1.5680    6.0190 ho        1 F78      0.449000
     48 H12        -3.1130    0.6080   -4.5770 h1        1 F78      0.069700
     49 H12A       -3.1790    2.1210   -5.5870 h1        1 F78      0.069700
     50 H13        -1.0730    1.1750   -6.8590 hc        1 F78      0.056200
     51 H13A       -1.3650   -0.3670   -5.9630 hc        1 F78      0.056200
     52 H14        -3.3630    1.1130   -7.8080 hc        1 F78      0.051200
     53 H14A       -3.7860   -0.3260   -6.7990 hc        1 F78      0.051200
     54 H16        -0.0140    0.5920   -4.5260 h1        1 F78      0.094700
     55 H16A        0.2570    1.8730   -3.2430 h1        1 F78      0.094700
     56 H17        -1.6590    0.7730   -1.8700 h1        1 F78      0.110700
     57 HO18       -1.4510   -1.1430   -3.9310 ho        1 F78      0.430000
     58 H19         0.7430    0.4760   -1.3040 hx        1 F78      0.124700
     59 HN20       -1.0750   -1.8480   -1.1450 hn        1 F78      0.474300
     60 H32         0.6530   -1.7960   -3.4330 hc        1 F78      0.080200
     61 H32A        1.6600   -0.2860   -3.4240 hc        1 F78      0.080200
     62 H33         1.4340   -3.7570   -2.3400 ha        1 F78      0.135000
     63 H34         3.2650   -4.9340   -1.1390 ha        1 F78      0.160000
     64 H35         5.1750   -3.6380   -0.1830 ha        1 F78      0.164000
     65 H36         5.2380   -1.1510   -0.4230 ha        1 F78      0.160000
     66 H37         3.4010    0.0350   -1.6130 ha        1 F78      0.135000
     67 H41        -3.7090   -2.3670   -7.8930 ha        1 F78      0.126000
     68 H42        -2.8490   -3.8370   -9.7060 ha        1 F78      0.145500
     69 H43        -1.0730   -3.0110  -11.2540 ha        1 F78      0.150000
     70 H44        -0.1590   -0.7030  -10.9820 ha        1 F78      0.145500
     71 H45        -1.0170    0.7720   -9.1710 ha        1 F78      0.126000
     72 H4         -1.5480    5.8890   -3.8440 ha        1 F78      0.172500
     73 H6         -1.8130    4.0210   -7.7670 ha        1 F78      0.172500
     74 H3         -3.4050    7.4350   -4.4550 ha        1 F78      0.193000
     75 H7         -3.6470    5.5580   -8.3870 ha        1 F78      0.193000
     76 H1         -5.7680    6.5130   -8.1570 h1        1 F78      0.083700
     77 H1A        -4.5030    7.7090   -8.7760 h1        1 F78      0.083700
     78 H1B        -5.9960    8.3250   -7.8810 h1        1 F78      0.083700
     79 H111       -2.0620    2.4730   -3.5670 hn        1 F78      0.388800
     80 H202        0.4800   -1.9790   -0.5350 hn        1 F78      0.474300
@<TRIPOS>BOND
     1    1    2 2   
     2    1    3 1   
     3    1   18 1   
     4    3    4 ar  
     5    3    8 ar  
     6    4    5 ar  
     7    4   43 1   
     8    5    6 ar  
     9    5    9 1   
    10    6    7 ar  
    11    6   44 1   
    12    7    8 ar  
    13    7   45 1   
    14    8   46 1   
    15    9   47 1   
    16   10   11 1   
    17   10   14 1   
    18   10   79 1   
    19   11   12 1   
    20   11   48 1   
    21   11   49 1   
    22   12   13 1   
    23   12   50 1   
    24   12   51 1   
    25   13   26 1   
    26   13   52 1   
    27   13   53 1   
    28   14   15 1   
    29   14   54 1   
    30   14   55 1   
    31   15   16 1   
    32   15   17 1   
    33   15   56 1   
    34   16   57 1   
    35   17   18 1   
    36   17   19 1   
    37   17   58 1   
    38   18   59 1   
    39   18   80 1   
    40   19   25 1   
    41   19   60 1   
    42   19   61 1   
    43   20   21 ar  
    44   20   25 ar  
    45   20   62 1   
    46   21   22 ar  
    47   21   63 1   
    48   22   23 ar  
    49   22   64 1   
    50   23   24 ar  
    51   23   65 1   
    52   24   25 ar  
    53   24   66 1   
    54   26   27 ar  
    55   26   31 ar  
    56   27   28 ar  
    57   27   67 1   
    58   28   29 ar  
    59   28   68 1   
    60   29   30 ar  
    61   29   69 1   
    62   30   31 ar  
    63   30   70 1   
    64   31   71 1   
    65   32   33 1   
    66   32   34 1   
    67   32   35 1   
    68   35   36 ar  
    69   35   37 ar  
    70   36   38 ar  
    71   36   72 1   
    72   37   39 ar  
    73   37   73 1   
    74   38   40 ar  
    75   38   74 1   
    76   39   40 ar  
    77   39   75 1   
    78   40   41 1   
    79   41   42 1   
    80   42   76 1   
    81   42   77 1   
    82   42   78 1   
@<TRIPOS>SUBSTRUCTURE
     1 F78         1 TEMP              0 ****  ****    0 ROOT
