@<TRIPOS>MOLECULE
F78
   80    82     1     0     0
SMALL
bcc


@<TRIPOS>ATOM
      1 C21        -0.7170   -0.6640    0.5090 c         1 F78      0.584700
      2 O22        -0.9210    0.5410    0.4340 o         1 F78     -0.448100
      3 C22        -0.8310   -1.5310    1.6830 ca        1 F78     -0.172600
      4 C27        -0.7950   -0.8930    2.9300 ca        1 F78     -0.079000
      5 C26        -0.9090   -1.6730    4.0970 ca        1 F78      0.144100
      6 C25        -1.0670   -3.0640    4.0150 ca        1 F78     -0.140000
      7 C24        -1.1120   -3.6760    2.7620 ca        1 F78     -0.075000
      8 C23        -0.9940   -2.9230    1.5960 ca        1 F78     -0.139000
      9 O27        -0.8550   -0.9830    5.2760 oh        1 F78     -0.468100
     10 N11        -1.5410    2.0090   -4.3050 n3        1 F78     -0.894200
     11 C12        -2.4910    1.3100   -5.1750 c3        1 F78      0.111800
     12 C13        -1.8690    0.5480   -6.3430 c3        1 F78     -0.094400
     13 C14        -2.9510    0.1650   -7.3370 c3        1 F78     -0.026100
     14 C16        -0.5150    1.1650   -3.7070 c3        1 F78      0.095800
     15 C17        -0.9960    0.1990   -2.6110 c3        1 F78      0.098100
     16 O18        -1.8160   -0.8410   -3.1000 oh        1 F78     -0.598800
     17 C19         0.2150   -0.3940   -1.8390 c3        1 F78      0.099500
     18 N20        -0.2690   -1.3410   -0.7740 n4        1 F78     -0.678800
     19 C32         1.2070   -1.0950   -2.7790 c3        1 F78     -0.052100
     20 C33         2.2610   -3.1920   -1.9060 ca        1 F78     -0.131000
     21 C34         3.2970   -3.8530   -1.2490 ca        1 F78     -0.111500
     22 C35         4.3660   -3.1280   -0.7200 ca        1 F78     -0.091000
     23 C36         4.3990   -1.7390   -0.8510 ca        1 F78     -0.111500
     24 C37         3.3650   -1.0740   -1.5090 ca        1 F78     -0.131000
     25 C38         2.2880   -1.7970   -2.0380 ca        1 F78     -0.169300
     26 C40        -2.4180   -0.7220   -8.4070 ca        1 F78     -0.112300
     27 C41        -2.9250   -2.0170   -8.5650 ca        1 F78     -0.127500
     28 C42        -2.4460   -2.8380   -9.5850 ca        1 F78     -0.119500
     29 C43        -1.4580   -2.3730  -10.4530 ca        1 F78     -0.110000
     30 C44        -0.9500   -1.0820  -10.3000 ca        1 F78     -0.119500
     31 C45        -1.4290   -0.2590   -9.2830 ca        1 F78     -0.127500
     32 S8         -0.3590    3.9130   -5.3990 s4        1 F78      1.691300
     33 O9          0.1570    3.1120   -6.3660 o         1 F78     -0.443900
     34 O10         0.2900    4.1140   -4.2190 o         1 F78     -0.443900
     35 C5         -1.5510    4.8140   -5.7410 ca        1 F78     -0.692500
     36 C4         -2.0390    5.7950   -4.8180 ca        1 F78      0.063000
     37 C6         -2.1950    4.7640   -7.0160 ca        1 F78      0.063000
     38 C3         -3.0580    6.6520   -5.1310 ca        1 F78     -0.214500
     39 C7         -3.2160    5.6140   -7.3570 ca        1 F78     -0.214500
     40 C2         -3.6670    6.5810   -6.4210 ca        1 F78      0.305100
     41 O1         -4.6490    7.4690   -6.6410 os        1 F78     -0.263900
     42 C1         -5.2910    7.4780   -7.9300 c3        1 F78      0.096700
     43 H27        -0.6820    0.2010    3.0150 ha        1 F78      0.185000
     44 H25        -1.1600   -3.6700    4.9320 ha        1 F78      0.173000
     45 H24        -1.2480   -4.7690    2.6960 ha        1 F78      0.170000
     46 H23        -1.0580   -3.4440    0.6300 ha        1 F78      0.129000
     47 HO27       -0.9600   -1.6090    6.0130 ho        1 F78      0.449000
     48 H12        -3.1880    2.0990   -5.5820 h1        1 F78      0.069700
     49 H12A       -3.1160    0.5850   -4.5750 h1        1 F78      0.069700
     50 H13        -1.0830    1.1610   -6.8600 hc        1 F78      0.056200
     51 H13A       -1.3690   -0.3840   -5.9670 hc        1 F78      0.056200
     52 H14        -3.3750    1.0940   -7.8040 hc        1 F78      0.051200
     53 H14A       -3.7930   -0.3470   -6.7960 hc        1 F78      0.051200
     54 H16        -0.0180    0.5750   -4.5310 h1        1 F78      0.094700
     55 H16A        0.2540    1.8540   -3.2450 h1        1 F78      0.094700
     56 H17        -1.6560    0.7470   -1.8700 h1        1 F78      0.110700
     57 HO18       -1.4500   -1.1640   -3.9360 ho        1 F78      0.430000
     58 H19         0.7480    0.4540   -1.3110 hx        1 F78      0.124700
     59 HN20       -1.0650   -1.8740   -1.1530 hn        1 F78      0.474300
     60 H32         0.6570   -1.8140   -3.4440 hc        1 F78      0.080200
     61 H32A        1.6610   -0.3010   -3.4350 hc        1 F78      0.080200
     62 H33         1.4440   -3.7750   -2.3570 ha        1 F78      0.135000
     63 H34         3.2800   -4.9520   -1.1620 ha        1 F78      0.160000
     64 H35         5.1900   -3.6540   -0.2100 ha        1 F78      0.164000
     65 H36         5.2490   -1.1670   -0.4450 ha        1 F78      0.160000
     66 H37         3.4070    0.0190   -1.6290 ha        1 F78      0.135000
     67 H41        -3.7130   -2.3870   -7.8920 ha        1 F78      0.126000
     68 H42        -2.8550   -3.8530   -9.7090 ha        1 F78      0.145500
     69 H43        -1.0830   -3.0210  -11.2610 ha        1 F78      0.150000
     70 H44        -0.1750   -0.7120  -10.9880 ha        1 F78      0.145500
     71 H45        -1.0320    0.7600   -9.1730 ha        1 F78      0.126000
     72 H4         -1.5570    5.8640   -3.8230 ha        1 F78      0.173000
     73 H6         -1.8410    4.0160   -7.7540 ha        1 F78      0.173000
     74 H3         -3.4200    7.4100   -4.4150 ha        1 F78      0.193000
     75 H7         -3.6820    5.5530   -8.3550 ha        1 F78      0.193000
     76 H1         -4.5440    7.7050   -8.7280 h1        1 F78      0.083700
     77 H1A        -5.8030    6.5030   -8.1070 h1        1 F78      0.083700
     78 H1B        -6.0340    8.3130   -7.8210 h1        1 F78      0.083700
     79 H111       -2.0680    2.4490   -3.5630 hn        1 F78      0.388800
     80 H202        0.4920   -2.0030   -0.5470 hn        1 F78      0.474300
@<TRIPOS>BOND
     1    1    2 2   
     2    1    3 1   
     3    1   18 1   
     4    3    4 ar  
     5    3    8 ar  
     6    4    5 ar  
     7    4   43 1   
     8    5    6 ar  
     9    5    9 1   
    10    6    7 ar  
    11    6   44 1   
    12    7    8 ar  
    13    7   45 1   
    14    8   46 1   
    15    9   47 1   
    16   10   11 1   
    17   10   14 1   
    18   10   79 1   
    19   11   12 1   
    20   11   48 1   
    21   11   49 1   
    22   12   13 1   
    23   12   50 1   
    24   12   51 1   
    25   13   26 1   
    26   13   52 1   
    27   13   53 1   
    28   14   15 1   
    29   14   54 1   
    30   14   55 1   
    31   15   16 1   
    32   15   17 1   
    33   15   56 1   
    34   16   57 1   
    35   17   18 1   
    36   17   19 1   
    37   17   58 1   
    38   18   59 1   
    39   18   80 1   
    40   19   25 1   
    41   19   60 1   
    42   19   61 1   
    43   20   21 ar  
    44   20   25 ar  
    45   20   62 1   
    46   21   22 ar  
    47   21   63 1   
    48   22   23 ar  
    49   22   64 1   
    50   23   24 ar  
    51   23   65 1   
    52   24   25 ar  
    53   24   66 1   
    54   26   27 ar  
    55   26   31 ar  
    56   27   28 ar  
    57   27   67 1   
    58   28   29 ar  
    59   28   68 1   
    60   29   30 ar  
    61   29   69 1   
    62   30   31 ar  
    63   30   70 1   
    64   31   71 1   
    65   32   33 1   
    66   32   34 1   
    67   32   35 1   
    68   35   36 ar  
    69   35   37 ar  
    70   36   38 ar  
    71   36   72 1   
    72   37   39 ar  
    73   37   73 1   
    74   38   40 ar  
    75   38   74 1   
    76   39   40 ar  
    77   39   75 1   
    78   40   41 1   
    79   41   42 1   
    80   42   76 1   
    81   42   77 1   
    82   42   78 1   
@<TRIPOS>SUBSTRUCTURE
     1 F78         1 TEMP              0 ****  ****    0 ROOT
