@<TRIPOS>MOLECULE
F79
   45    46     1     0     0
SMALL
bcc


@<TRIPOS>ATOM
      1 C1          0.6570    0.2700    0.0980 ca        1 F79      0.187600
      2 C2          2.0300    0.3220    0.4210 ca        1 F79     -0.160600
      3 C3          2.4350    0.1700    1.7540 ca        1 F79      0.106100
      4 C4          1.5050   -0.0060    2.7910 ca        1 F79     -0.091300
      5 C5          0.1470   -0.0400    2.4510 ca        1 F79     -0.105000
      6 C6         -0.2830    0.0890    1.1370 ca        1 F79     -0.155000
      7 C7          1.9270   -0.1550    4.2100 c3        1 F79     -0.030100
      8 C8          1.7370   -1.5660    4.7140 c3        1 F79     -0.088100
      9 O9          3.7970    0.0870    2.0630 os        1 F79     -0.356900
     10 C10         4.5080    1.3210    1.9430 c3        1 F79      0.100400
     11 C11         5.8960    0.9850    1.3760 c3        1 F79      0.102800
     12 N12         5.8480    0.5220   -0.0290 n4        1 F79     -0.866600
     13 C13         3.0600    0.5350   -0.6470 c         1 F79      0.894200
     14 O14         3.5740   -0.4570   -1.2440 o         1 F79     -0.841800
     15 O15         3.4920    1.7150   -0.8700 o         1 F79     -0.841800
     16 N16         0.2660    0.3860   -1.2440 nh        1 F79     -0.777500
     17 S17        -0.9780    1.2440   -1.8380 sy        1 F79      1.516200
     18 C18        -0.5630    2.8550   -1.5370 ca        1 F79     -0.399500
     19 O19        -1.0210    1.0240   -3.2300 o         1 F79     -0.653300
     20 O20        -2.1730    0.9700   -1.1380 o         1 F79     -0.653300
     21 C21         0.7430    3.3510   -1.6390 ca        1 F79      0.011500
     22 C22         1.0180    4.7010   -1.4440 ca        1 F79     -0.196500
     23 C23        -0.0310    5.5830   -1.1320 ca        1 F79      0.181900
     24 C24        -1.3490    5.1000   -1.0110 ca        1 F79     -0.196500
     25 C25        -1.5940    3.7500   -1.2120 ca        1 F79      0.011500
     26 F26         0.2240    6.8980   -0.9420 f         1 F79     -0.136900
     27 H5         -0.5980   -0.1800    3.2500 ha        1 F79      0.140000
     28 H6         -1.3630    0.0520    0.9080 ha        1 F79      0.171000
     29 H71         1.3260    0.5520    4.8450 hc        1 F79      0.046200
     30 H72         3.0070    0.1360    4.3150 hc        1 F79      0.046200
     31 H81         0.6670   -1.8740    4.6230 hc        1 F79      0.037367
     32 H82         2.3600   -2.2810    4.1250 hc        1 F79      0.037367
     33 H83         2.0380   -1.6320    5.7870 hc        1 F79      0.037367
     34 H101        4.6460    1.7350    2.9770 h1        1 F79      0.090700
     35 H102        3.9630    2.0570    1.2910 h1        1 F79      0.090700
     36 H111        6.3620    0.1690    1.9980 hx        1 F79      0.088200
     37 H112        6.5360    1.9090    1.4270 hx        1 F79      0.088200
     38 H121        6.7800    0.3250   -0.3810 hn        1 F79      0.477800
     39 H122        5.3740    1.2370   -0.6340 hn        1 F79      0.477800
     40 HN16        0.9300   -0.0280   -1.8700 hn        1 F79      0.478800
     41 H21         1.5950    2.6750   -1.8540 ha        1 F79      0.171500
     42 H22         2.0480    5.0780   -1.5270 ha        1 F79      0.155500
     43 H24        -2.1650    5.7930   -0.7600 ha        1 F79      0.155500
     44 H25        -2.6260    3.3660   -1.1060 ha        1 F79      0.171500
     45 H123        5.2510   -0.3290   -0.1070 hn        1 F79      0.477800
@<TRIPOS>BOND
     1    1    2 ar  
     2    1    6 ar  
     3    1   16 1   
     4    2    3 ar  
     5    2   13 1   
     6    3    4 ar  
     7    3    9 1   
     8    4    5 ar  
     9    4    7 1   
    10    5    6 ar  
    11    5   27 1   
    12    6   28 1   
    13    7    8 1   
    14    7   29 1   
    15    7   30 1   
    16    8   31 1   
    17    8   32 1   
    18    8   33 1   
    19    9   10 1   
    20   10   11 1   
    21   10   34 1   
    22   10   35 1   
    23   11   12 1   
    24   11   36 1   
    25   11   37 1   
    26   12   38 1   
    27   12   39 1   
    28   12   45 1   
    29   13   14 1   
    30   13   15 1   
    31   16   17 1   
    32   16   40 1   
    33   17   18 1   
    34   17   19 2   
    35   17   20 2   
    36   18   21 ar  
    37   18   25 ar  
    38   21   22 ar  
    39   21   41 1   
    40   22   23 ar  
    41   22   42 1   
    42   23   24 ar  
    43   23   26 1   
    44   24   25 ar  
    45   24   43 1   
    46   25   44 1   
@<TRIPOS>SUBSTRUCTURE
     1 F79         1 TEMP              0 ****  ****    0 ROOT
