@<TRIPOS>MOLECULE
F79
   44    45     1     0     0
SMALL
bcc


@<TRIPOS>ATOM
      1 C1          2.9390   -1.3340    1.2570 ca        1 F79      0.160600
      2 C2          2.6680   -1.1720    2.6370 ca        1 F79     -0.159600
      3 C3          1.4070   -0.7140    3.0340 ca        1 F79      0.138100
      4 C4          0.4250   -0.3620    2.0840 ca        1 F79     -0.115300
      5 C5          0.7290   -0.4990    0.7280 ca        1 F79     -0.121000
      6 C6          1.9610   -0.9840    0.3040 ca        1 F79     -0.177000
      7 C7         -0.9100    0.1440    2.5010 c3        1 F79     -0.024100
      8 C8         -1.9940   -0.8890    2.3090 c3        1 F79     -0.085100
      9 O9          1.0230   -0.6930    4.3670 os        1 F79     -0.352900
     10 C10         1.7520    0.2150    5.2060 c3        1 F79      0.072400
     11 C11         2.0150   -0.5090    6.5350 c3        1 F79      0.161800
     12 N12         3.0120   -1.5460    6.5300 n3        1 F79     -0.917800
     13 C13         3.7790   -1.5200    3.6140 c         1 F79      0.901200
     14 O14         4.4660   -0.5710    4.1000 o         1 F79     -0.823800
     15 O15         4.0120   -2.7360    3.8460 o         1 F79     -0.823800
     16 N16         4.1800   -1.8770    0.8650 nh        1 F79     -0.781500
     17 S17         5.1370   -1.3600   -0.3150 sy        1 F79      1.506200
     18 C18         5.6870    0.1700    0.1760 ca        1 F79     -0.383500
     19 O19         6.2510   -2.2300   -0.4140 o         1 F79     -0.668800
     20 O20         4.4400   -1.1810   -1.5380 o         1 F79     -0.668800
     21 C21         5.9000    0.5340    1.5090 ca        1 F79      0.006500
     22 C22         6.4100    1.7900    1.8390 ca        1 F79     -0.198000
     23 C23         6.7100    2.7050    0.8180 ca        1 F79      0.163900
     24 C24         6.4880    2.3600   -0.5310 ca        1 F79     -0.198000
     25 C25         5.9790    1.1050   -0.8290 ca        1 F79      0.006500
     26 F26         7.2110    3.9260    1.1220 f         1 F79     -0.150900
     27 H5         -0.0280   -0.2240   -0.0220 ha        1 F79      0.119000
     28 H6          2.1660   -1.0890   -0.7740 ha        1 F79      0.152000
     29 H71        -0.8750    0.4480    3.5820 hc        1 F79      0.042700
     30 H72        -1.1590    1.0610    1.9010 hc        1 F79      0.042700
     31 H81        -2.0500   -1.2060    1.2390 hc        1 F79      0.029700
     32 H82        -2.9850   -0.4690    2.6090 hc        1 F79      0.029700
     33 H83        -1.7860   -1.7920    2.9330 hc        1 F79      0.029700
     34 H101        2.7090    0.5480    4.7250 h1        1 F79      0.055700
     35 H102        1.0770    1.0970    5.3730 h1        1 F79      0.055700
     36 H111        2.3280    0.2780    7.2770 h1        1 F79      0.033200
     37 H112        1.0440   -0.9590    6.8860 h1        1 F79      0.033200
     38 H121        3.8960   -1.1840    6.2120 hn        1 F79      0.374800
     39 H122        2.7510   -2.2800    5.8940 hn        1 F79      0.374800
     40 HN16        4.5140   -2.5470    1.5390 hn        1 F79      0.496800
     41 H21         5.6420   -0.1520    2.3490 ha        1 F79      0.181500
     42 H22         6.5640    2.0620    2.8930 ha        1 F79      0.150500
     43 H24         6.7150    3.0840   -1.3250 ha        1 F79      0.150500
     44 H25         5.7870    0.8360   -1.8840 ha        1 F79      0.181500
@<TRIPOS>BOND
     1    1    2 ar  
     2    1    6 ar  
     3    1   16 1   
     4    2    3 ar  
     5    2   13 1   
     6    3    4 ar  
     7    3    9 1   
     8    4    5 ar  
     9    4    7 1   
    10    5    6 ar  
    11    5   27 1   
    12    6   28 1   
    13    7    8 1   
    14    7   29 1   
    15    7   30 1   
    16    8   31 1   
    17    8   32 1   
    18    8   33 1   
    19    9   10 1   
    20   10   11 1   
    21   10   34 1   
    22   10   35 1   
    23   11   12 1   
    24   11   36 1   
    25   11   37 1   
    26   12   38 1   
    27   12   39 1   
    28   13   14 1   
    29   13   15 1   
    30   16   17 1   
    31   16   40 1   
    32   17   18 1   
    33   17   19 2   
    34   17   20 2   
    35   18   21 ar  
    36   18   25 ar  
    37   21   22 ar  
    38   21   41 1   
    39   22   23 ar  
    40   22   42 1   
    41   23   24 ar  
    42   23   26 1   
    43   24   25 ar  
    44   24   43 1   
    45   25   44 1   
@<TRIPOS>SUBSTRUCTURE
     1 F79         1 TEMP              0 ****  ****    0 ROOT
