@<TRIPOS>MOLECULE
F79
   44    39     1     0     0
SMALL
bcc


@<TRIPOS>ATOM
      1 C1         -1.0050    0.6180    0.3600 c1        1 F79      0.080000
      2 C2          0.4070    0.6250    0.3810 c1        1 F79     -0.139000
      3 C3          1.0900    0.6390    1.6070 c1        1 F79      0.093000
      4 C4          0.3650    0.6470    2.8170 c1        1 F79     -0.108000
      5 C5         -1.0360    0.6400    2.7960 c1        1 F79     -0.121000
      6 C6         -1.7230    0.6260    1.5650 c1        1 F79     -0.178000
      7 C7          1.1200    0.7650    4.1720 c3        1 F79     -0.111000
      8 C8          0.5910   -0.3000    5.1500 c3        1 F79     -0.203000
      9 O9          2.5100    0.7600    1.6290 os        1 F79     -0.237000
     10 C10         3.2020   -0.4850    1.4900 c3        1 F79     -0.077000
     11 C11         4.6760   -0.2290    1.3850 c3        1 F79     -0.075000
     12 N12         5.3930   -1.3860    1.8280 n3        1 F79     -0.350000
     13 C13         1.1870    0.7010   -0.9230 c2        1 F79      0.350000
     14 O14         1.4880    1.8260   -1.4140 o         1 F79     -0.558500
     15 O15         1.4860   -0.3560   -1.5400 o         1 F79     -0.558500
     16 N16        -1.7060    0.7210   -0.8970 n3        1 F79     -0.831000
     17 S17        -2.2160   -0.6410   -1.6660 s4        1 F79      2.061800
     18 C18        -2.7900   -0.2370   -3.3310 c1        1 F79     -0.828000
     19 O19        -1.1760   -1.6540   -1.6990 o         1 F79     -0.556400
     20 O20        -3.2390   -1.3210   -0.9070 o         1 F79     -0.556400
     21 C21        -4.1310   -0.2930   -3.6620 c2        1 F79     -0.007000
     22 C22        -4.5340   -0.1220   -4.9950 c1        1 F79     -0.209000
     23 C23        -3.5850    0.1040   -5.9850 c1        1 F79      0.129000
     24 C24        -2.2280    0.1610   -5.6510 c1        1 F79     -0.187000
     25 C25        -1.8300   -0.0090   -4.3300 c1        1 F79      0.020000
     26 F26        -3.9680    0.2250   -7.2660 f         1 F79     -0.116000
     27 H5         -1.5390    0.6450    3.6400 ha        1 F79      0.119000
     28 H6         -2.6950    0.6220    1.5510 ha        1 F79      0.152000
     29 H71         2.0810    0.6240    4.0230 hc        1 F79      0.084000
     30 H72         0.9700    1.6820    4.5600 hc        1 F79      0.084000
     31 H81        -0.2980   -0.0220    5.4930 hc        1 F79      0.068000
     32 H82         0.5060   -1.1780    4.6750 hc        1 F79      0.068000
     33 H83         1.2210   -0.3940    5.9050 hc        1 F79      0.068000
     34 H101        2.8870   -0.9510    0.6650 h1        1 F79      0.095000
     35 H102        3.0240   -1.0460    2.2700 h1        1 F79      0.095000
     36 H111        4.9080   -0.0380    0.4570 h1        1 F79      0.072500
     37 H112        4.9180    0.5460    1.9510 h1        1 F79      0.072500
     38 H121        5.3760   -2.0340    1.1610 hn        1 F79      0.170000
     39 H122        4.9930   -1.7230    2.5990 hn        1 F79      0.170000
     40 HN16       -1.9700    1.5510   -1.2100 hn        1 F79      0.292000
     41 H21        -4.8000   -0.4520   -2.9660 ha        1 F79      0.152000
     42 H22        -5.4850   -0.1480   -5.2260 ha        1 F79      0.140000
     43 H24        -1.5540    0.3220   -6.3540 ha        1 F79      0.161000
     44 H25        -0.8930   -0.0320   -4.1090 ha        1 F79      0.211000
@<TRIPOS>BOND
     1    1    6 1   
     2    1   16 1   
     3    2    3 1   
     4    2   13 1   
     5    3    9 1   
     6    4    5 1   
     7    4    7 1   
     8    5   27 1   
     9    6   28 1   
    10    7    8 1   
    11    7   29 1   
    12    7   30 1   
    13    8   31 1   
    14    8   32 1   
    15    8   33 1   
    16    9   10 1   
    17   10   11 1   
    18   10   34 1   
    19   10   35 1   
    20   11   12 1   
    21   11   36 1   
    22   11   37 1   
    23   12   38 1   
    24   12   39 1   
    25   13   14 1   
    26   13   15 1   
    27   16   17 1   
    28   16   40 1   
    29   17   19 1   
    30   17   20 1   
    31   18   21 1   
    32   18   25 1   
    33   21   22 1   
    34   21   41 1   
    35   22   42 1   
    36   23   24 1   
    37   23   26 1   
    38   24   43 1   
    39   25   44 1   
@<TRIPOS>SUBSTRUCTURE
     1 F79         1 TEMP              0 ****  ****    0 ROOT
