@<TRIPOS>MOLECULE
F79
   46    47     1     0     0
SMALL
bcc


@<TRIPOS>ATOM
      1 C1          0.5570    0.2040    0.3880 ca        1 F79     -0.017400
      2 C2          1.8040    0.5730    0.9210 ca        1 F79     -0.109600
      3 C3          2.2070    0.0290    2.1490 ca        1 F79      0.112100
      4 C4          1.3730   -0.8460    2.8700 ca        1 F79     -0.018300
      5 C5          0.1310   -1.1860    2.3140 ca        1 F79     -0.105000
      6 C6         -0.2800   -0.6870    1.0850 ca        1 F79     -0.103000
      7 C7          1.7810   -1.4110    4.1850 c3        1 F79     -0.048100
      8 C8          2.0370   -2.8980    4.1100 c3        1 F79     -0.092100
      9 O9          3.5070    0.2280    2.6040 os        1 F79     -0.350900
     10 C10         3.8100    1.5560    3.0490 c3        1 F79      0.096400
     11 C11         5.2430    1.8540    2.5900 c3        1 F79      0.098800
     12 N12         5.3690    1.9780    1.1160 n4        1 F79     -0.854600
     13 C13         2.7010    1.5140    0.1650 c         1 F79      0.860200
     14 O14         3.4280    1.0610   -0.7630 o         1 F79     -0.818300
     15 O15         2.7420    2.7400    0.4990 o         1 F79     -0.818300
     16 N16         0.1600    0.7390   -0.9050 n4        1 F79     -0.568300
     17 S17        -1.0530    2.2090   -0.7760 sy        1 F79      1.481200
     18 C18        -0.3540    3.1540   -1.8690 ca        1 F79     -0.562500
     19 O19        -2.2050    1.5850   -1.2320 o         1 F79     -0.572800
     20 O20        -0.9760    2.6470    0.5250 o         1 F79     -0.572800
     21 C21         0.7480    3.9740   -1.5380 ca        1 F79      0.040000
     22 C22        -0.3450    4.1120   -4.1150 ca        1 F79     -0.196000
     23 C23         0.7550    4.9290   -3.7570 ca        1 F79      0.260900
     24 C24         1.2990    4.8510   -2.4570 ca        1 F79     -0.196000
     25 C25        -0.8780    3.2470   -3.1810 ca        1 F79      0.040000
     26 F26         1.2800    5.7750   -4.6570 f         1 F79     -0.092900
     27 H5         -0.5310   -1.8740    2.8680 ha        1 F79      0.166000
     28 H6         -1.2550   -0.9950    0.6740 ha        1 F79      0.157000
     29 H71         2.7090   -0.8910    4.5490 hc        1 F79      0.064700
     30 H72         0.9660   -1.2080    4.9320 hc        1 F79      0.064700
     31 H81         1.1260   -3.4400    3.7590 hc        1 F79      0.047033
     32 H82         2.8750   -3.1210    3.4060 hc        1 F79      0.047033
     33 H83         2.3120   -3.2840    5.1210 hc        1 F79      0.047033
     34 H101        3.7970    1.5420    4.1720 h1        1 F79      0.101200
     35 H102        3.0750    2.3100    2.6560 h1        1 F79      0.101200
     36 H111        5.9230    1.0190    2.9270 hx        1 F79      0.105200
     37 H112        5.5750    2.8220    3.0600 hx        1 F79      0.105200
     38 H121        6.3340    2.1680    0.8520 hn        1 F79      0.476467
     39 H122        4.7470    2.7360    0.7640 hn        1 F79      0.476467
     40 HN16        1.0110    1.0030   -1.4170 hn        1 F79      0.462800
     41 H21         1.1960    3.9080   -0.5200 ha        1 F79      0.189500
     42 H22        -0.7650    4.1810   -5.1320 ha        1 F79      0.182500
     43 H24         2.1580    5.4850   -2.1840 ha        1 F79      0.182500
     44 H25        -1.7480    2.6200   -3.4580 ha        1 F79      0.189500
     45 H123        5.0470    1.1080    0.6540 hn        1 F79      0.476467
     46 H162       -0.2900   -0.0110   -1.4330 hn        1 F79      0.462800
@<TRIPOS>BOND
     1    1    2 ar  
     2    1    6 ar  
     3    1   16 1   
     4    2    3 ar  
     5    2   13 1   
     6    3    4 ar  
     7    3    9 1   
     8    4    5 ar  
     9    4    7 1   
    10    5    6 ar  
    11    5   27 1   
    12    6   28 1   
    13    7    8 1   
    14    7   29 1   
    15    7   30 1   
    16    8   31 1   
    17    8   32 1   
    18    8   33 1   
    19    9   10 1   
    20   10   11 1   
    21   10   34 1   
    22   10   35 1   
    23   11   12 1   
    24   11   36 1   
    25   11   37 1   
    26   12   38 1   
    27   12   39 1   
    28   12   45 1   
    29   13   14 1   
    30   13   15 1   
    31   16   17 1   
    32   16   40 1   
    33   16   46 1   
    34   17   18 1   
    35   17   19 2   
    36   17   20 2   
    37   18   21 ar  
    38   18   25 ar  
    39   21   24 ar  
    40   21   41 1   
    41   22   23 ar  
    42   22   25 ar  
    43   22   42 1   
    44   23   24 ar  
    45   23   26 1   
    46   24   43 1   
    47   25   44 1   
@<TRIPOS>SUBSTRUCTURE
     1 F79         1 TEMP              0 ****  ****    0 ROOT
