@<TRIPOS>MOLECULE
F79
   45    46     1     0     0
SMALL
bcc


@<TRIPOS>ATOM
      1 C1          0.7200    0.2520    0.0190 ca        1 F79      0.187600
      2 C2          2.0770    0.3420    0.3940 ca        1 F79     -0.160600
      3 C3          2.4400    0.1540    1.7340 ca        1 F79      0.106100
      4 C4          1.4820   -0.0950    2.7290 ca        1 F79     -0.091300
      5 C5          0.1390   -0.1670    2.3390 ca        1 F79     -0.105000
      6 C6         -0.2490   -0.0040    1.0150 ca        1 F79     -0.155000
      7 C7          1.8580   -0.2820    4.1560 c3        1 F79     -0.030100
      8 C8          1.7050   -1.7170    4.6010 c3        1 F79     -0.088100
      9 O9          3.7920    0.1100    2.0890 os        1 F79     -0.356900
     10 C10         4.4600    1.3730    2.0410 c3        1 F79      0.100400
     11 C11         5.8780    1.1100    1.5140 c3        1 F79      0.102800
     12 N12         5.8980    0.7000    0.0920 nz        1 F79     -0.866600
     13 C13         3.1350    0.6330   -0.6270 c         1 F79      0.894200
     14 O14         3.7070   -0.3150   -1.2420 o         1 F79     -0.841800
     15 O15         3.5290    1.8360   -0.7900 o         1 F79     -0.841800
     16 N16         0.3710    0.4050   -1.3320 nu        1 F79     -0.777500
     17 S17        -0.8830    1.2380   -1.9390 sy        1 F79      1.516200
     18 C18        -0.5410    2.8500   -1.5630 ca        1 F79     -0.399500
     19 O19        -0.8680    1.0700   -3.3380 o         1 F79     -0.653300
     20 O20        -2.0910    0.8940   -1.2940 o         1 F79     -0.653300
     21 C21         0.7470    3.3980   -1.5990 ca        1 F79      0.011500
     22 C22         0.9640    4.7490   -1.3440 ca        1 F79     -0.196500
     23 C23        -0.1290    5.5800   -1.0380 ca        1 F79      0.181900
     24 C24        -1.4310    5.0430   -0.9840 ca        1 F79     -0.196500
     25 C25        -1.6160    3.6930   -1.2430 ca        1 F79      0.011500
     26 F26         0.0690    6.8940   -0.7900 f         1 F79     -0.136900
     27 H5         -0.6280   -0.3640    3.1040 ha        1 F79      0.140000
     28 H6         -1.3180   -0.0720    0.7460 ha        1 F79      0.171000
     29 H71         1.2090    0.3770    4.7940 hc        1 F79      0.046200
     30 H72         2.9220    0.0440    4.3120 hc        1 F79      0.046200
     31 H81         0.6520   -2.0620    4.4600 hc        1 F79      0.037367
     32 H82         2.3750   -2.3860    4.0090 hc        1 F79      0.037367
     33 H83         1.9700   -1.8130    5.6810 hc        1 F79      0.037367
     34 H101        4.5450    1.7520    3.0940 h1        1 F79      0.090700
     35 H102        3.9100    2.1130    1.3970 h1        1 F79      0.090700
     36 H111        6.4810    2.0550    1.6230 hx        1 F79      0.088200
     37 H112        6.3530    0.2880    2.1220 hx        1 F79      0.088200
     38 H121        5.4180    1.4190   -0.5030 hn        1 F79      0.477800
     39 H122        6.8480    0.5510   -0.2320 hn        1 F79      0.477800
     40 HN16        1.0730    0.0400   -1.9480 hn        1 F79      0.478800
     41 H21         1.6330    2.7630   -1.8070 ha        1 F79      0.171500
     42 H22         1.9800    5.1670   -1.3750 ha        1 F79      0.155500
     43 H24        -2.2810    5.6960   -0.7380 ha        1 F79      0.155500
     44 H25        -2.6360    3.2680   -1.1900 ha        1 F79      0.171500
     45 H123        5.3370   -0.1690   -0.0400 hn        1 F79      0.477800
@<TRIPOS>BOND
     1    1    2 ar  
     2    1    6 ar  
     3    1   16 1   
     4    2    3 ar  
     5    2   13 1   
     6    3    4 ar  
     7    3    9 1   
     8    4    5 ar  
     9    4    7 1   
    10    5    6 ar  
    11    5   27 1   
    12    6   28 1   
    13    7    8 1   
    14    7   29 1   
    15    7   30 1   
    16    8   31 1   
    17    8   32 1   
    18    8   33 1   
    19    9   10 1   
    20   10   11 1   
    21   10   34 1   
    22   10   35 1   
    23   11   12 1   
    24   11   36 1   
    25   11   37 1   
    26   12   38 1   
    27   12   39 1   
    28   12   45 1   
    29   13   14 1   
    30   13   15 1   
    31   16   17 1   
    32   16   40 1   
    33   17   18 1   
    34   17   19 2   
    35   17   20 2   
    36   18   21 ar  
    37   18   25 ar  
    38   21   22 ar  
    39   21   41 1   
    40   22   23 ar  
    41   22   42 1   
    42   23   24 ar  
    43   23   26 1   
    44   24   25 ar  
    45   24   43 1   
    46   25   44 1   
@<TRIPOS>SUBSTRUCTURE
     1 F79         1 TEMP              0 ****  ****    0 ROOT
