@<TRIPOS>MOLECULE
F7A
   40    42     1     0     0
SMALL
bcc


@<TRIPOS>ATOM
      1 C1         -0.8110    1.6790    0.8860 c3        1 F7A      0.683200
      2 F1          0.3470    2.4110    0.9880 f         1 F7A     -0.232967
      3 N1         -3.6410    0.3790    0.3560 n         1 F7A     -0.464100
      4 O1         -2.7520   -1.6720   -0.2730 o         1 F7A     -0.562100
      5 C2         -0.8800    0.4670    1.8140 ca        1 F7A     -0.143300
      6 F2         -1.8040    2.6070    1.1130 f         1 F7A     -0.232967
      7 O2         -6.5020   -1.4060   -3.0950 os        1 F7A     -0.247200
      8 C3         -1.7770   -0.5880    1.6110 ca        1 F7A     -0.094600
      9 F3         -0.9080    1.4000   -0.4530 f         1 F7A     -0.232967
     10 C4         -1.7730   -1.6760    2.4940 ca        1 F7A     -0.091000
     11 C5         -0.8970   -1.7040    3.5770 ca        1 F7A     -0.104000
     12 C6         -0.0100   -0.6470    3.7820 ca        1 F7A     -0.116000
     13 C7          0.0010    0.4320    2.9010 ca        1 F7A     -0.092000
     14 C8         -2.7470   -0.6730    0.4670 c         1 F7A      0.673700
     15 C9         -4.6580    0.5260   -0.6040 ca        1 F7A      0.088600
     16 C10        -5.0560   -0.5170   -1.4620 ca        1 F7A     -0.167000
     17 C11        -6.1030   -0.2880   -2.3660 ca        1 F7A      0.130100
     18 C12        -6.7550    0.9450   -2.4510 ca        1 F7A     -0.199000
     19 C13        -6.3470    1.9710   -1.6020 ca        1 F7A     -0.082000
     20 C14        -5.3180    1.7790   -0.6900 ca        1 F7A     -0.197000
     21 C15        -6.9580   -1.1780   -4.3900 ca        1 F7A      0.105100
     22 C16        -6.3960   -0.2190   -5.2400 ca        1 F7A     -0.155500
     23 C17        -6.8490   -0.1350   -6.5560 ca        1 F7A     -0.109000
     24 C18        -7.8460   -0.9970   -7.0150 ca        1 F7A     -0.150000
     25 C19        -8.3970   -1.9500   -6.1580 ca        1 F7A     -0.109000
     26 C20        -7.9640   -2.0490   -4.8380 ca        1 F7A     -0.155500
     27 HN1        -3.5030    1.1640    0.9560 hn        1 F7A      0.327500
     28 H4         -2.4630   -2.5160    2.3120 ha        1 F7A      0.162000
     29 H5         -0.9030   -2.5630    4.2650 ha        1 F7A      0.148000
     30 H6          0.6850   -0.6640    4.6350 ha        1 F7A      0.148000
     31 H7          0.7110    1.2620    3.0550 ha        1 F7A      0.158000
     32 H10        -4.5740   -1.5080   -1.4420 ha        1 F7A      0.188000
     33 H12        -7.5700    1.0950   -3.1740 ha        1 F7A      0.150000
     34 H13        -6.8480    2.9500   -1.6540 ha        1 F7A      0.136000
     35 H14        -5.0190    2.6120   -0.0360 ha        1 F7A      0.136000
     36 H16        -5.6090    0.4530   -4.8690 ha        1 F7A      0.149500
     37 H17        -6.4120    0.6130   -7.2340 ha        1 F7A      0.135000
     38 H18        -8.1960   -0.9250   -8.0550 ha        1 F7A      0.133000
     39 H19        -9.1810   -2.6300   -6.5240 ha        1 F7A      0.135000
     40 H20        -8.3840   -2.7970   -4.1520 ha        1 F7A      0.149500
@<TRIPOS>BOND
     1    1    2 1   
     2    1    5 1   
     3    1    6 1   
     4    1    9 1   
     5    3   14 1   
     6    3   15 1   
     7    3   27 1   
     8    4   14 2   
     9    5    8 ar  
    10    5   13 ar  
    11    7   17 1   
    12    7   21 1   
    13    8   10 ar  
    14    8   14 1   
    15   10   11 ar  
    16   10   28 1   
    17   11   12 ar  
    18   11   29 1   
    19   12   13 ar  
    20   12   30 1   
    21   13   31 1   
    22   15   16 ar  
    23   15   20 ar  
    24   16   17 ar  
    25   16   32 1   
    26   17   18 ar  
    27   18   19 ar  
    28   18   33 1   
    29   19   20 ar  
    30   19   34 1   
    31   20   35 1   
    32   21   22 ar  
    33   21   26 ar  
    34   22   23 ar  
    35   22   36 1   
    36   23   24 ar  
    37   23   37 1   
    38   24   25 ar  
    39   24   38 1   
    40   25   26 ar  
    41   25   39 1   
    42   26   40 1   
@<TRIPOS>SUBSTRUCTURE
     1 F7A         1 TEMP              0 ****  ****    0 ROOT
