@<TRIPOS>MOLECULE
F7A
   40    42     1     0     0
SMALL
bcc


@<TRIPOS>ATOM
      1 C1          3.5150    0.3580    1.7090 c3        1 F7A      0.683200
      2 F1          4.4410    1.0170    2.4800 f         1 F7A     -0.232967
      3 N1          1.0790   -1.1140    0.3390 n         1 F7A     -0.464100
      4 O1          1.1670    0.1930   -1.5770 o         1 F7A     -0.562100
      5 C2          4.0640   -0.1970    0.3950 ca        1 F7A     -0.143300
      6 F2          3.0180   -0.6100    2.5540 f         1 F7A     -0.232967
      7 O2         -3.4620   -0.5170   -1.1770 os        1 F7A     -0.247200
      8 C3          3.2370   -0.5640   -0.6730 ca        1 F7A     -0.094600
      9 F3          2.4890    1.2580    1.5830 f         1 F7A     -0.232967
     10 C4          3.8110   -1.0500   -1.8550 ca        1 F7A     -0.091000
     11 C5          5.1930   -1.1870   -1.9640 ca        1 F7A     -0.104000
     12 C6          6.0150   -0.8290   -0.8960 ca        1 F7A     -0.116000
     13 C7          5.4520   -0.3320    0.2780 ca        1 F7A     -0.092000
     14 C8          1.7400   -0.4380   -0.6730 c         1 F7A      0.673700
     15 C9         -0.3110   -1.1770    0.5460 ca        1 F7A      0.088600
     16 C10        -1.2460   -0.7390   -0.4110 ca        1 F7A     -0.167000
     17 C11        -2.6140   -0.8720   -0.1310 ca        1 F7A      0.130100
     18 C12        -3.0780   -1.4150    1.0710 ca        1 F7A     -0.199000
     19 C13        -2.1420   -1.8370    2.0120 ca        1 F7A     -0.082000
     20 C14        -0.7790   -1.7260    1.7670 ca        1 F7A     -0.197000
     21 C15        -4.6900    0.0380   -0.8250 ca        1 F7A      0.105100
     22 C16        -4.8490    0.9210    0.2500 ca        1 F7A     -0.155500
     23 C17        -6.0950    1.5080    0.4610 ca        1 F7A     -0.109000
     24 C18        -7.1630    1.2220   -0.3890 ca        1 F7A     -0.150000
     25 C19        -6.9910    0.3430   -1.4590 ca        1 F7A     -0.109000
     26 C20        -5.7570   -0.2620   -1.6860 ca        1 F7A     -0.155500
     27 HN1         1.6370   -1.5280    1.0560 hn        1 F7A      0.327500
     28 H4          3.1550   -1.3110   -2.7010 ha        1 F7A      0.162000
     29 H5          5.6340   -1.5720   -2.8970 ha        1 F7A      0.148000
     30 H6          7.1070   -0.9330   -0.9770 ha        1 F7A      0.148000
     31 H7          6.1030   -0.0370    1.1180 ha        1 F7A      0.158000
     32 H10        -0.9380   -0.3000   -1.3730 ha        1 F7A      0.188000
     33 H12        -4.1560   -1.5010    1.2630 ha        1 F7A      0.150000
     34 H13        -2.4870   -2.2660    2.9650 ha        1 F7A      0.136000
     35 H14        -0.0670   -2.0680    2.5340 ha        1 F7A      0.136000
     36 H16        -4.0000    1.1420    0.9120 ha        1 F7A      0.149500
     37 H17        -6.2310    2.2050    1.3010 ha        1 F7A      0.135000
     38 H18        -8.1430    1.6920   -0.2170 ha        1 F7A      0.133000
     39 H19        -7.8350    0.1200   -2.1290 ha        1 F7A      0.135000
     40 H20        -5.6040   -0.9520   -2.5270 ha        1 F7A      0.149500
@<TRIPOS>BOND
     1    1    2 1   
     2    1    5 1   
     3    1    6 1   
     4    1    9 1   
     5    3   14 1   
     6    3   15 1   
     7    3   27 1   
     8    4   14 2   
     9    5    8 ar  
    10    5   13 ar  
    11    7   17 1   
    12    7   21 1   
    13    8   10 ar  
    14    8   14 1   
    15   10   11 ar  
    16   10   28 1   
    17   11   12 ar  
    18   11   29 1   
    19   12   13 ar  
    20   12   30 1   
    21   13   31 1   
    22   15   16 ar  
    23   15   20 ar  
    24   16   17 ar  
    25   16   32 1   
    26   17   18 ar  
    27   18   19 ar  
    28   18   33 1   
    29   19   20 ar  
    30   19   34 1   
    31   20   35 1   
    32   21   22 ar  
    33   21   26 ar  
    34   22   23 ar  
    35   22   36 1   
    36   23   24 ar  
    37   23   37 1   
    38   24   25 ar  
    39   24   38 1   
    40   25   26 ar  
    41   25   39 1   
    42   26   40 1   
@<TRIPOS>SUBSTRUCTURE
     1 F7A         1 TEMP              0 ****  ****    0 ROOT
