@<TRIPOS>MOLECULE
F7A
   41    43     1     0     0
SMALL
bcc


@<TRIPOS>ATOM
      1 C1         -0.7760   -1.7800    2.1760 c3        1 F7A      0.676200
      2 F1          0.0080   -2.1410    3.2320 f         1 F7A     -0.225633
      3 N1         -2.4550   -1.5440   -0.5290 n4        1 F7A     -0.550200
      4 O1         -1.0040    0.1020   -1.2960 o         1 F7A     -0.388100
      5 C2         -1.2710   -0.3340    2.1890 ca        1 F7A     -0.139300
      6 F2         -0.0530   -2.1220    1.0560 f         1 F7A     -0.225633
      7 O2         -5.2210    0.0610   -4.1220 os        1 F7A     -0.232200
      8 C3         -1.6860    0.3250    1.0190 ca        1 F7A     -0.146600
      9 F3         -1.8070   -2.6990    2.1630 f         1 F7A     -0.225633
     10 C4         -2.1140    1.6570    1.0840 ca        1 F7A     -0.061000
     11 C5         -2.1450    2.3220    2.3120 ca        1 F7A     -0.092000
     12 C6         -1.7370    1.6680    3.4710 ca        1 F7A     -0.072000
     13 C7         -1.2960    0.3410    3.4090 ca        1 F7A     -0.071000
     14 C8         -1.6240   -0.2860   -0.3200 c         1 F7A      0.576700
     15 C9         -3.7920   -1.2290   -1.0480 ca        1 F7A     -0.022400
     16 C10        -3.9100   -0.7160   -2.3480 ca        1 F7A     -0.150000
     17 C11        -5.1990   -0.4480   -2.8410 ca        1 F7A      0.162100
     18 C12        -6.3380   -0.6880   -2.0550 ca        1 F7A     -0.144000
     19 C13        -6.1860   -1.1950   -0.7690 ca        1 F7A     -0.071000
     20 C14        -4.9210   -1.4710   -0.2480 ca        1 F7A     -0.144000
     21 C15        -6.4890    0.2790   -4.6860 ca        1 F7A      0.041100
     22 C16        -7.0170    1.5750   -4.6600 ca        1 F7A     -0.123500
     23 C17        -8.1990    1.8260   -5.3560 ca        1 F7A     -0.115500
     24 C18        -8.8360    0.8000   -6.0560 ca        1 F7A     -0.108000
     25 C19        -8.2950   -0.4860   -6.0720 ca        1 F7A     -0.115500
     26 C20        -7.1130   -0.7600   -5.3840 ca        1 F7A     -0.123500
     27 HN1        -2.5490   -2.0590    0.3580 hn        1 F7A      0.470300
     28 H4         -2.4170    2.1850    0.1640 ha        1 F7A      0.169000
     29 H5         -2.4840    3.3710    2.3550 ha        1 F7A      0.175000
     30 H6         -1.7520    2.1920    4.4420 ha        1 F7A      0.176000
     31 H7         -0.9560   -0.1710    4.3280 ha        1 F7A      0.182000
     32 H10        -3.0350   -0.5150   -2.9890 ha        1 F7A      0.182000
     33 H12        -7.3410   -0.4750   -2.4620 ha        1 F7A      0.181000
     34 H13        -7.0770   -1.3870   -0.1480 ha        1 F7A      0.170000
     35 H14        -4.8320   -1.8780    0.7710 ha        1 F7A      0.157000
     36 H16        -6.4960    2.3770   -4.1190 ha        1 F7A      0.150500
     37 H17        -8.6260    2.8410   -5.3560 ha        1 F7A      0.151500
     38 H18        -9.7680    1.0090   -6.6050 ha        1 F7A      0.152000
     39 H19        -8.7970   -1.2890   -6.6340 ha        1 F7A      0.151500
     40 H20        -6.6680   -1.7660   -5.4020 ha        1 F7A      0.150500
     41 H121       -1.9740   -2.1450   -1.2150 hn        1 F7A      0.470300
@<TRIPOS>BOND
     1    1    2 1   
     2    1    5 1   
     3    1    6 1   
     4    1    9 1   
     5    3   14 1   
     6    3   15 1   
     7    3   27 1   
     8    3   41 1   
     9    4   14 2   
    10    5    8 ar  
    11    5   13 ar  
    12    7   17 1   
    13    7   21 1   
    14    8   10 ar  
    15    8   14 1   
    16   10   11 ar  
    17   10   28 1   
    18   11   12 ar  
    19   11   29 1   
    20   12   13 ar  
    21   12   30 1   
    22   13   31 1   
    23   15   16 ar  
    24   15   20 ar  
    25   16   17 ar  
    26   16   32 1   
    27   17   18 ar  
    28   18   19 ar  
    29   18   33 1   
    30   19   20 ar  
    31   19   34 1   
    32   20   35 1   
    33   21   22 ar  
    34   21   26 ar  
    35   22   23 ar  
    36   22   36 1   
    37   23   24 ar  
    38   23   37 1   
    39   24   25 ar  
    40   24   38 1   
    41   25   26 ar  
    42   25   39 1   
    43   26   40 1   
@<TRIPOS>SUBSTRUCTURE
     1 F7A         1 TEMP              0 ****  ****    0 ROOT
