@<TRIPOS>MOLECULE
F7A
   40    42     1     0     0
SMALL
bcc


@<TRIPOS>ATOM
      1 C1         -0.8120    1.6810    0.8900 c3        1 F7A      0.683200
      2 F1          0.3450    2.4140    0.9940 f         1 F7A     -0.232967
      3 N1         -3.6400    0.3790    0.3550 ns        1 F7A     -0.464100
      4 O1         -2.7490   -1.6700   -0.2760 o         1 F7A     -0.562100
      5 C2         -0.8800    0.4680    1.8160 ca        1 F7A     -0.143300
      6 F2         -1.8060    2.6080    1.1170 f         1 F7A     -0.232967
      7 O2         -6.5000   -1.4060   -3.0950 os        1 F7A     -0.247200
      8 C3         -1.7760   -0.5880    1.6110 ca        1 F7A     -0.094600
      9 F3         -0.9080    1.4050   -0.4500 f         1 F7A     -0.232967
     10 C4         -1.7720   -1.6770    2.4920 ca        1 F7A     -0.091000
     11 C5         -0.8970   -1.7060    3.5760 ca        1 F7A     -0.104000
     12 C6         -0.0110   -0.6480    3.7830 ca        1 F7A     -0.116000
     13 C7         -0.0000    0.4320    2.9030 ca        1 F7A     -0.092000
     14 C8         -2.7450   -0.6720    0.4660 c         1 F7A      0.673700
     15 C9         -4.6570    0.5260   -0.6050 ca        1 F7A      0.088600
     16 C10        -5.0550   -0.5170   -1.4620 ca        1 F7A     -0.167000
     17 C11        -6.1010   -0.2880   -2.3670 ca        1 F7A      0.130100
     18 C12        -6.7540    0.9450   -2.4530 ca        1 F7A     -0.199000
     19 C13        -6.3450    1.9720   -1.6050 ca        1 F7A     -0.082000
     20 C14        -5.3160    1.7790   -0.6920 ca        1 F7A     -0.197000
     21 C15        -6.9580   -1.1790   -4.3900 ca        1 F7A      0.105100
     22 C16        -6.3960   -0.2210   -5.2420 ca        1 F7A     -0.155500
     23 C17        -6.8510   -0.1370   -6.5570 ca        1 F7A     -0.109000
     24 C18        -7.8480   -0.9980   -7.0140 ca        1 F7A     -0.150000
     25 C19        -8.4000   -1.9500   -6.1560 ca        1 F7A     -0.109000
     26 C20        -7.9660   -2.0480   -4.8370 ca        1 F7A     -0.155500
     27 HN1        -3.5030    1.1640    0.9560 hn        1 F7A      0.327500
     28 H4         -2.4610   -2.5180    2.3080 ha        1 F7A      0.162000
     29 H5         -0.9030   -2.5660    4.2630 ha        1 F7A      0.148000
     30 H6          0.6840   -0.6660    4.6360 ha        1 F7A      0.148000
     31 H7          0.7090    1.2620    3.0600 ha        1 F7A      0.158000
     32 H10        -4.5730   -1.5080   -1.4420 ha        1 F7A      0.188000
     33 H12        -7.5670    1.0950   -3.1750 ha        1 F7A      0.150000
     34 H13        -6.8460    2.9500   -1.6570 ha        1 F7A      0.136000
     35 H14        -5.0160    2.6130   -0.0380 ha        1 F7A      0.136000
     36 H16        -5.6070    0.4510   -4.8720 ha        1 F7A      0.149500
     37 H17        -6.4140    0.6100   -7.2360 ha        1 F7A      0.135000
     38 H18        -8.2000   -0.9260   -8.0530 ha        1 F7A      0.133000
     39 H19        -9.1850   -2.6290   -6.5210 ha        1 F7A      0.135000
     40 H20        -8.3860   -2.7960   -4.1490 ha        1 F7A      0.149500
@<TRIPOS>BOND
     1    1    2 1   
     2    1    5 1   
     3    1    6 1   
     4    1    9 1   
     5    3   14 1   
     6    3   15 1   
     7    3   27 1   
     8    4   14 2   
     9    5    8 ar  
    10    5   13 ar  
    11    7   17 1   
    12    7   21 1   
    13    8   10 ar  
    14    8   14 1   
    15   10   11 ar  
    16   10   28 1   
    17   11   12 ar  
    18   11   29 1   
    19   12   13 ar  
    20   12   30 1   
    21   13   31 1   
    22   15   16 ar  
    23   15   20 ar  
    24   16   17 ar  
    25   16   32 1   
    26   17   18 ar  
    27   18   19 ar  
    28   18   33 1   
    29   19   20 ar  
    30   19   34 1   
    31   20   35 1   
    32   21   22 ar  
    33   21   26 ar  
    34   22   23 ar  
    35   22   36 1   
    36   23   24 ar  
    37   23   37 1   
    38   24   25 ar  
    39   24   38 1   
    40   25   26 ar  
    41   25   39 1   
    42   26   40 1   
@<TRIPOS>SUBSTRUCTURE
     1 F7A         1 TEMP              0 ****  ****    0 ROOT
