@<TRIPOS>MOLECULE
F7A
   40    37     1     0     0
SMALL
bcc


@<TRIPOS>ATOM
      1 C1          2.5600   -1.9420    2.2720 c3        1 F7A      0.462000
      2 F1          2.7900   -1.8660    0.9550 f         1 F7A     -0.161000
      3 N1          0.9710    1.4360    0.7250 n         1 F7A     -0.317000
      4 O1         -0.1870    0.2960    2.3320 o         1 F7A     -0.329000
      5 C2          2.8440   -0.6000    2.9130 c2        1 F7A     -0.136000
      6 F2          1.2810   -2.2760    2.4820 f         1 F7A     -0.161000
      7 O2         -1.1890    0.6230   -3.5400 os        1 F7A     -0.162000
      8 C3          2.1130    0.5740    2.8290 c2        1 F7A     -0.075000
      9 F3          3.3590   -2.8730    2.8110 f         1 F7A     -0.161000
     10 C4          2.4030    1.6330    3.6760 c1        1 F7A     -0.091000
     11 C5          3.4240    1.5170    4.6060 c1        1 F7A     -0.119000
     12 C6          4.1560    0.3410    4.6890 c1        1 F7A     -0.119000
     13 C7          3.8660   -0.7170    3.8430 c1        1 F7A     -0.091000
     14 C8          0.8730    0.7730    1.9800 c2        1 F7A      0.349000
     15 C9         -0.1730    1.5390   -0.1160 c2        1 F7A      0.098000
     16 C10        -0.1590    0.9630   -1.3780 c2        1 F7A     -0.196000
     17 C11        -1.2430    1.1280   -2.2280 c2        1 F7A      0.086000
     18 C12        -2.3410    1.8690   -1.8170 c2        1 F7A     -0.196000
     19 C13        -2.3550    2.4440   -0.5560 c1        1 F7A     -0.084000
     20 C14        -1.2710    2.2800    0.2950 c1        1 F7A     -0.173000
     21 C15        -1.9870   -0.5320   -3.6310 c2        1 F7A      0.060000
     22 C16        -3.2310   -0.4680   -4.2420 c2        1 F7A     -0.142000
     23 C17        -3.9790   -1.6210   -4.4140 c1        1 F7A     -0.110000
     24 C18        -3.4840   -2.8410   -3.9770 c1        1 F7A     -0.119000
     25 C19        -2.2410   -2.9050   -3.3670 c1        1 F7A     -0.119000
     26 C20        -1.4930   -1.7520   -3.1940 c1        1 F7A     -0.171000
     27 HN1         1.7550    1.8300    0.4780 hn        1 F7A      0.243000
     28 H4          1.8890    2.4600    3.6170 ha        1 F7A      0.162000
     29 H5          3.6290    2.2620    5.2030 ha        1 F7A      0.141250
     30 H6          4.8750    0.2590    5.3450 ha        1 F7A      0.141250
     31 H7          4.3810   -1.5440    3.9020 ha        1 F7A      0.158000
     32 H10         0.6280    0.4720   -1.6810 ha        1 F7A      0.152000
     33 H12        -3.1030    1.9850   -2.4150 ha        1 F7A      0.150000
     34 H13        -3.1280    2.9660   -0.2660 ha        1 F7A      0.139000
     35 H14        -1.2810    2.6850    1.1830 ha        1 F7A      0.174000
     36 H16        -3.5790    0.3900   -4.5500 ha        1 F7A      0.150000
     37 H17        -4.8540   -1.5760   -4.8440 ha        1 F7A      0.135000
     38 H18        -4.0110   -3.6540   -4.0990 ha        1 F7A      0.141250
     39 H19        -1.8930   -3.7640   -3.0590 ha        1 F7A      0.141250
     40 H20        -0.6170   -1.7970   -2.7640 ha        1 F7A      0.150000
@<TRIPOS>BOND
     1    1    2 1   
     2    1    5 1   
     3    1    6 1   
     4    1    9 1   
     5    3   14 1   
     6    3   15 1   
     7    3   27 1   
     8    4   14 1   
     9    5    8 1   
    10    5   13 1   
    11    7   17 1   
    12    7   21 1   
    13    8   10 1   
    14    8   14 1   
    15   10   28 1   
    16   11   12 1   
    17   11   29 1   
    18   12   30 1   
    19   13   31 1   
    20   15   16 1   
    21   15   20 1   
    22   16   17 1   
    23   16   32 1   
    24   17   18 1   
    25   18   19 1   
    26   18   33 1   
    27   19   34 1   
    28   20   35 1   
    29   21   22 1   
    30   21   26 1   
    31   22   23 1   
    32   22   36 1   
    33   23   37 1   
    34   24   25 1   
    35   24   38 1   
    36   25   39 1   
    37   26   40 1   
@<TRIPOS>SUBSTRUCTURE
     1 F7A         1 TEMP              0 ****  ****    0 ROOT
