@<TRIPOS>MOLECULE
F7L
   38    39     1     0     0
SMALL
bcc


@<TRIPOS>ATOM
      1 O1         -0.1300    0.2930    0.4080 oh        1 F7L     -0.607800
      2 C2          1.2350    0.0770    0.0770 c3        1 F7L      0.142100
      3 C3          2.0750   -0.0690    1.3510 c3        1 F7L      0.091400
      4 O4          1.5580   -1.2160    2.0240 os        1 F7L     -0.435600
      5 C5          2.1880   -1.4210    3.2900 c3        1 F7L      0.180700
      6 C6          1.6180   -2.6490    3.9150 ca        1 F7L     -0.122300
      7 C7          1.0170   -3.6520    3.1510 ca        1 F7L     -0.083000
      8 C8          0.5100   -4.8000    3.7560 ca        1 F7L     -0.146000
      9 C9          0.6000   -4.9620    5.1390 ca        1 F7L     -0.104000
     10 C10         1.1940   -3.9790    5.9240 ca        1 F7L     -0.165000
     11 C11         1.7040   -2.8180    5.3150 ca        1 F7L      0.123900
     12 F12         2.2780   -1.8610    6.0850 f         1 F7L     -0.143900
     13 C13         1.7030    1.3210   -0.7020 c3        1 F7L      0.167800
     14 N14         1.5460    1.1890   -2.1410 n3        1 F7L     -0.720600
     15 C15         2.1380    2.3050   -2.8850 c3        1 F7L      0.151800
     16 C16         1.0590    2.9920   -3.7380 c3        1 F7L     -0.096400
     17 C17        -0.2180    2.1920   -3.5240 c3        1 F7L     -0.096400
     18 C18         0.1600    1.0300   -2.5910 c3        1 F7L      0.151800
     19 HO1        -0.3960   -0.4370    0.9820 ho        1 F7L      0.417000
     20 H2          1.3260   -0.8620   -0.5350 h1        1 F7L      0.064700
     21 H3          1.9690    0.8370    2.0040 h1        1 F7L      0.041700
     22 H3A         3.1550   -0.2340    1.1000 h1        1 F7L      0.041700
     23 H5          2.0090   -0.5250    3.9460 h1        1 F7L      0.046700
     24 H5A         3.2960   -1.5480    3.1370 h1        1 F7L      0.046700
     25 H7          0.9440   -3.5190    2.0600 ha        1 F7L      0.154000
     26 H8          0.0370   -5.5800    3.1410 ha        1 F7L      0.138000
     27 H9          0.2000   -5.8700    5.6150 ha        1 F7L      0.138000
     28 H10         1.2700   -4.0950    7.0150 ha        1 F7L      0.149000
     29 H13         1.1520    2.2140   -0.2840 h1        1 F7L      0.042700
     30 H13A        2.8030    1.4640   -0.5030 h1        1 F7L      0.042700
     31 H15         2.9340    1.8660   -3.5460 h1        1 F7L      0.050950
     32 H15A        2.6320    3.0550   -2.2080 h1        1 F7L      0.050950
     33 H16         1.3590    2.9930   -4.8140 hc        1 F7L      0.045700
     34 H16A        0.9260    4.0550   -3.4210 hc        1 F7L      0.045700
     35 H17        -0.6180    1.8010   -4.4910 hc        1 F7L      0.045700
     36 H17A       -1.0130    2.8240   -3.0580 hc        1 F7L      0.045700
     37 H18         0.1150    0.0570   -3.1540 h1        1 F7L      0.050950
     38 H18A       -0.5570    0.9640   -1.7280 h1        1 F7L      0.050950
@<TRIPOS>BOND
     1    1    2 1   
     2    1   19 1   
     3    2    3 1   
     4    2   13 1   
     5    2   20 1   
     6    3    4 1   
     7    3   21 1   
     8    3   22 1   
     9    4    5 1   
    10    5    6 1   
    11    5   23 1   
    12    5   24 1   
    13    6    7 ar  
    14    6   11 ar  
    15    7    8 ar  
    16    7   25 1   
    17    8    9 ar  
    18    8   26 1   
    19    9   10 ar  
    20    9   27 1   
    21   10   11 ar  
    22   10   28 1   
    23   11   12 1   
    24   13   14 1   
    25   13   29 1   
    26   13   30 1   
    27   14   15 1   
    28   14   18 1   
    29   15   16 1   
    30   15   31 1   
    31   15   32 1   
    32   16   17 1   
    33   16   33 1   
    34   16   34 1   
    35   17   18 1   
    36   17   35 1   
    37   17   36 1   
    38   18   37 1   
    39   18   38 1   
@<TRIPOS>SUBSTRUCTURE
     1 F7L         1 TEMP              0 ****  ****    0 ROOT
