@<TRIPOS>MOLECULE
F7L
   38    39     1     0     0
SMALL
bcc


@<TRIPOS>ATOM
      1 O1         -0.1280    0.2980    0.4110 oh        1 F7L     -0.607800
      2 C2          1.2350    0.0780    0.0780 c3        1 F7L      0.142100
      3 C3          2.0780   -0.0720    1.3500 c3        1 F7L      0.091400
      4 O4          1.5570   -1.2180    2.0230 os        1 F7L     -0.435600
      5 C5          2.1900   -1.4270    3.2870 c3        1 F7L      0.180700
      6 C6          1.6160   -2.6530    3.9120 ca        1 F7L     -0.122300
      7 C7          1.0090   -3.6530    3.1490 ca        1 F7L     -0.083000
      8 C8          0.4990   -4.8000    3.7550 ca        1 F7L     -0.146000
      9 C9          0.5920   -4.9630    5.1370 ca        1 F7L     -0.104000
     10 C10         1.1920   -3.9830    5.9210 ca        1 F7L     -0.165000
     11 C11         1.7050   -2.8230    5.3120 ca        1 F7L      0.123900
     12 F12         2.2860   -1.8690    6.0810 f         1 F7L     -0.143900
     13 C13         1.7060    1.3210   -0.7020 c3        1 F7L      0.167800
     14 N14         1.5470    1.1900   -2.1400 n3        1 F7L     -0.720600
     15 C15         2.1410    2.3060   -2.8840 c3        1 F7L      0.151800
     16 C16         1.0630    2.9960   -3.7350 c3        1 F7L     -0.096400
     17 C17        -0.2170    2.1990   -3.5200 c3        1 F7L     -0.096400
     18 C18         0.1600    1.0360   -2.5880 c3        1 F7L      0.151800
     19 HO1        -0.3950   -0.4320    0.9850 ho        1 F7L      0.417000
     20 H2          1.3230   -0.8610   -0.5360 h1        1 F7L      0.064700
     21 H3          1.9750    0.8330    2.0030 h1        1 F7L      0.041700
     22 H3A         3.1560   -0.2400    1.0960 h1        1 F7L      0.041700
     23 H5          3.2970   -1.5580    3.1310 h1        1 F7L      0.046700
     24 H5A         2.0170   -0.5310    3.9440 h1        1 F7L      0.046700
     25 H7          0.9340   -3.5190    2.0580 ha        1 F7L      0.154000
     26 H8          0.0220   -5.5770    3.1400 ha        1 F7L      0.138000
     27 H9          0.1900   -5.8700    5.6140 ha        1 F7L      0.138000
     28 H10         1.2700   -4.1000    7.0120 ha        1 F7L      0.149000
     29 H13         2.8070    1.4600   -0.5040 h1        1 F7L      0.042700
     30 H13A        1.1590    2.2150   -0.2820 h1        1 F7L      0.042700
     31 H15         2.6380    3.0530   -2.2070 h1        1 F7L      0.050950
     32 H15A        2.9340    1.8640   -3.5470 h1        1 F7L      0.050950
     33 H16         1.3610    2.9970   -4.8110 hc        1 F7L      0.045700
     34 H16A        0.9330    4.0590   -3.4170 hc        1 F7L      0.045700
     35 H17        -0.6180    1.8100   -4.4870 hc        1 F7L      0.045700
     36 H17A       -1.0090    2.8330   -3.0530 hc        1 F7L      0.045700
     37 H18         0.1110    0.0640   -3.1520 h1        1 F7L      0.050950
     38 H18A       -0.5560    0.9710   -1.7240 h1        1 F7L      0.050950
@<TRIPOS>BOND
     1    1    2 1   
     2    1   19 1   
     3    2    3 1   
     4    2   13 1   
     5    2   20 1   
     6    3    4 1   
     7    3   21 1   
     8    3   22 1   
     9    4    5 1   
    10    5    6 1   
    11    5   23 1   
    12    5   24 1   
    13    6    7 ar  
    14    6   11 ar  
    15    7    8 ar  
    16    7   25 1   
    17    8    9 ar  
    18    8   26 1   
    19    9   10 ar  
    20    9   27 1   
    21   10   11 ar  
    22   10   28 1   
    23   11   12 1   
    24   13   14 1   
    25   13   29 1   
    26   13   30 1   
    27   14   15 1   
    28   14   18 1   
    29   15   16 1   
    30   15   31 1   
    31   15   32 1   
    32   16   17 1   
    33   16   33 1   
    34   16   34 1   
    35   17   18 1   
    36   17   35 1   
    37   17   36 1   
    38   18   37 1   
    39   18   38 1   
@<TRIPOS>SUBSTRUCTURE
     1 F7L         1 TEMP              0 ****  ****    0 ROOT
