@<TRIPOS>MOLECULE
F7L
   38    39     1     0     0
SMALL
bcc


@<TRIPOS>ATOM
      1 O1         -1.4270   -0.9850    0.6890 oh        1 F7L     -0.590800
      2 C2         -1.6090    0.0130   -0.2980 c3        1 F7L      0.139100
      3 C3         -0.4300    0.9900   -0.3590 c3        1 F7L      0.093400
      4 O4          0.7500    0.2100   -0.1930 os        1 F7L     -0.417600
      5 C5          1.9340    0.9930   -0.3590 c3        1 F7L      0.177700
      6 C6          3.1210    0.1250   -0.1140 ca        1 F7L     -0.122300
      7 C7          3.0290   -1.2680   -0.0850 ca        1 F7L     -0.080000
      8 C8          4.1630   -2.0500    0.1320 ca        1 F7L     -0.146000
      9 C9          5.4060   -1.4470    0.3210 ca        1 F7L     -0.105000
     10 C10         5.5260   -0.0610    0.2970 ca        1 F7L     -0.166000
     11 C11         4.3830    0.7300    0.0810 ca        1 F7L      0.120900
     12 F12         4.5010    2.0810    0.0620 f         1 F7L     -0.144900
     13 C13        -2.8940    0.8200   -0.0140 c3        1 F7L      0.140800
     14 N14        -4.0830    0.2430   -0.6160 n3        1 F7L     -0.718600
     15 C15        -5.2760    1.0790   -0.4400 c3        1 F7L      0.151800
     16 C16        -6.3640    0.2810    0.2960 c3        1 F7L     -0.097400
     17 C17        -5.7950   -1.1160    0.5030 c3        1 F7L     -0.097400
     18 C18        -4.4080   -1.1110   -0.1610 c3        1 F7L      0.151800
     19 HO1        -0.9500   -0.5890    1.4280 ho        1 F7L      0.405000
     20 H2         -1.6830   -0.5610   -1.2650 h1        1 F7L      0.097700
     21 H3         -0.4160    1.5200   -1.3460 h1        1 F7L      0.037200
     22 H3A        -0.4890    1.7470    0.4690 h1        1 F7L      0.037200
     23 H5          1.9660    1.4000   -1.4080 h1        1 F7L      0.045200
     24 H5A         1.9230    1.8530    0.3650 h1        1 F7L      0.045200
     25 H7          2.0440   -1.7420   -0.2310 ha        1 F7L      0.162000
     26 H8          4.0740   -3.1460    0.1530 ha        1 F7L      0.139000
     27 H9          6.2990   -2.0670    0.4900 ha        1 F7L      0.137000
     28 H10         6.5000    0.4260    0.4450 ha        1 F7L      0.148000
     29 H13        -2.9850    0.9330    1.1060 h1        1 F7L      0.033700
     30 H13A       -2.7740    1.8490   -0.4570 h1        1 F7L      0.033700
     31 H15        -5.0510    2.0310    0.1130 h1        1 F7L      0.051450
     32 H15A       -5.6290    1.3560   -1.4710 h1        1 F7L      0.051450
     33 H16        -6.6110    0.7630    1.2730 hc        1 F7L      0.045950
     34 H16A       -7.3000    0.2490   -0.3130 hc        1 F7L      0.045950
     35 H17        -5.7070   -1.3560    1.5910 hc        1 F7L      0.045950
     36 H17A       -6.4470   -1.8930    0.0360 hc        1 F7L      0.045950
     37 H18        -4.4200   -1.7630   -1.0770 h1        1 F7L      0.051450
     38 H18A       -3.6290   -1.5180    0.5410 h1        1 F7L      0.051450
@<TRIPOS>BOND
     1    1    2 1   
     2    1   19 1   
     3    2    3 1   
     4    2   13 1   
     5    2   20 1   
     6    3    4 1   
     7    3   21 1   
     8    3   22 1   
     9    4    5 1   
    10    5    6 1   
    11    5   23 1   
    12    5   24 1   
    13    6    7 ar  
    14    6   11 ar  
    15    7    8 ar  
    16    7   25 1   
    17    8    9 ar  
    18    8   26 1   
    19    9   10 ar  
    20    9   27 1   
    21   10   11 ar  
    22   10   28 1   
    23   11   12 1   
    24   13   14 1   
    25   13   29 1   
    26   13   30 1   
    27   14   15 1   
    28   14   18 1   
    29   15   16 1   
    30   15   31 1   
    31   15   32 1   
    32   16   17 1   
    33   16   33 1   
    34   16   34 1   
    35   17   18 1   
    36   17   35 1   
    37   17   36 1   
    38   18   37 1   
    39   18   38 1   
@<TRIPOS>SUBSTRUCTURE
     1 F7L         1 TEMP              0 ****  ****    0 ROOT
