@<TRIPOS>MOLECULE
F7L
   38    39     1     0     0
SMALL
bcc


@<TRIPOS>ATOM
      1 O1         -0.1270    0.2990    0.4120 oh        1 F7L     -0.607800
      2 C2          1.2360    0.0770    0.0770 c3        1 F7L      0.142100
      3 C3          2.0780   -0.0730    1.3490 c3        1 F7L      0.091400
      4 O4          1.5570   -1.2190    2.0230 os        1 F7L     -0.435600
      5 C5          2.1890   -1.4270    3.2870 c3        1 F7L      0.179700
      6 C6          1.6150   -2.6530    3.9130 ca        1 F7L     -0.122300
      7 C7          1.0120   -3.6540    3.1490 ca        1 F7L     -0.083000
      8 C8          0.5010   -4.8010    3.7550 ca        1 F7L     -0.146000
      9 C9          0.5910   -4.9620    5.1370 ca        1 F7L     -0.104000
     10 C10         1.1870   -3.9810    5.9220 ca        1 F7L     -0.165000
     11 C11         1.7000   -2.8210    5.3130 ca        1 F7L      0.123900
     12 F12         2.2770   -1.8650    6.0820 f         1 F7L     -0.142900
     13 C13         1.7080    1.3190   -0.7030 c3        1 F7L      0.167800
     14 N14         1.5460    1.1890   -2.1410 n3        1 F7L     -0.720600
     15 C15         2.1430    2.3030   -2.8850 c3        1 F7L      0.151800
     16 C16         1.0650    2.9960   -3.7360 c3        1 F7L     -0.096400
     17 C17        -0.2160    2.2020   -3.5190 c3        1 F7L     -0.096400
     18 C18         0.1590    1.0380   -2.5880 c3        1 F7L      0.151800
     19 HO1        -0.3950   -0.4310    0.9850 ho        1 F7L      0.417000
     20 H2          1.3210   -0.8620   -0.5360 h1        1 F7L      0.064700
     21 H3          1.9770    0.8330    2.0020 h1        1 F7L      0.041700
     22 H3A         3.1570   -0.2430    1.0950 h1        1 F7L      0.041700
     23 H5          3.2960   -1.5570    3.1330 h1        1 F7L      0.046700
     24 H5A         2.0150   -0.5300    3.9440 h1        1 F7L      0.046700
     25 H7          0.9400   -3.5220    2.0580 ha        1 F7L      0.154000
     26 H8          0.0270   -5.5800    3.1390 ha        1 F7L      0.138000
     27 H9          0.1880   -5.8690    5.6140 ha        1 F7L      0.138000
     28 H10         1.2620   -4.0960    7.0130 ha        1 F7L      0.149000
     29 H13         2.8090    1.4560   -0.5060 h1        1 F7L      0.042700
     30 H13A        1.1620    2.2140   -0.2830 h1        1 F7L      0.042700
     31 H15         2.6420    3.0490   -2.2100 h1        1 F7L      0.050950
     32 H15A        2.9340    1.8590   -3.5500 h1        1 F7L      0.050950
     33 H16         0.9380    4.0590   -3.4170 hc        1 F7L      0.045700
     34 H16A        1.3620    2.9960   -4.8120 hc        1 F7L      0.045700
     35 H17        -0.6210    1.8140   -4.4850 hc        1 F7L      0.045700
     36 H17A       -1.0070    2.8380   -3.0500 hc        1 F7L      0.045700
     37 H18        -0.5570    0.9750   -1.7220 h1        1 F7L      0.050950
     38 H18A        0.1060    0.0660   -3.1510 h1        1 F7L      0.050950
@<TRIPOS>BOND
     1    1    2 1   
     2    1   19 1   
     3    2    3 1   
     4    2   13 1   
     5    2   20 1   
     6    3    4 1   
     7    3   21 1   
     8    3   22 1   
     9    4    5 1   
    10    5    6 1   
    11    5   23 1   
    12    5   24 1   
    13    6    7 ar  
    14    6   11 ar  
    15    7    8 ar  
    16    7   25 1   
    17    8    9 ar  
    18    8   26 1   
    19    9   10 ar  
    20    9   27 1   
    21   10   11 ar  
    22   10   28 1   
    23   11   12 1   
    24   13   14 1   
    25   13   29 1   
    26   13   30 1   
    27   14   15 1   
    28   14   18 1   
    29   15   16 1   
    30   15   31 1   
    31   15   32 1   
    32   16   17 1   
    33   16   33 1   
    34   16   34 1   
    35   17   18 1   
    36   17   35 1   
    37   17   36 1   
    38   18   37 1   
    39   18   38 1   
@<TRIPOS>SUBSTRUCTURE
     1 F7L         1 TEMP              0 ****  ****    0 ROOT
