@<TRIPOS>MOLECULE
F83
   40    42     1     0     0
SMALL
bcc


@<TRIPOS>ATOM
      1 O1         -0.0240   -0.3500   -0.0300 oh        1 F83     -0.607800
      2 C1          1.3900   -0.2390   -0.0250 c3        1 F83      0.129400
      3 C2          1.8260   -0.1760    1.4510 c3        1 F83      0.172500
      4 N1          1.3980    1.0690    2.0800 n7        1 F83     -0.815200
      5 C3          1.7400    1.1390    3.4870 c3        1 F83      0.209100
      6 C4          3.1250    0.6610    3.8090 ca        1 F83     -0.103300
      7 C5          3.6560    0.9310    5.0700 ca        1 F83     -0.010000
      8 C6          4.9340    0.4870    5.4290 ca        1 F83     -0.398500
      9 C7          5.6740   -0.2460    4.4920 ca        1 F83     -0.010000
     10 C8          5.1590   -0.5190    3.2310 ca        1 F83     -0.157000
     11 C9          3.8830   -0.0650    2.8760 ca        1 F83      0.006700
     12 C10         3.3520   -0.3380    1.5150 c3        1 F83     -0.047100
     13 S1          5.5450    0.7920    6.9630 sy        1 F83      1.519200
     14 O2          6.4310   -0.2430    7.3150 o         1 F83     -0.649300
     15 O3          4.4710    1.0470    7.8450 o         1 F83     -0.649300
     16 N2          6.3370    2.2120    6.7780 nu        1 F83     -0.771500
     17 C11         7.5720    2.4600    6.1610 ca        1 F83      0.175600
     18 C12         7.8500    3.7430    5.6350 ca        1 F83     -0.170500
     19 C13         9.0690    4.0090    5.0230 ca        1 F83     -0.094500
     20 C14        10.0340    3.0030    4.9190 ca        1 F83     -0.010600
     21 C15         9.7780    1.7320    5.4390 ca        1 F83     -0.094500
     22 C16         8.5640    1.4580    6.0580 ca        1 F83     -0.170500
     23 Cl1        11.5210    3.3290    4.1640 cl        1 F83     -0.092400
     24 HO1        -0.3060   -0.2660   -0.9480 ho        1 F83      0.406000
     25 H11         1.8430   -1.1490   -0.5030 h1        1 F83      0.034200
     26 H12A        1.7170    0.6760   -0.5850 h1        1 F83      0.034200
     27 H2          1.3610   -1.0710    1.9720 h1        1 F83      0.040700
     28 HN1         0.4080    1.1840    1.9530 hn        1 F83      0.383800
     29 H31         1.0220    0.5470    4.1330 h1        1 F83      0.047200
     30 H32         1.6460    2.2240    3.7860 h1        1 F83      0.047200
     31 H5          3.0520    1.4900    5.8070 ha        1 F83      0.154000
     32 H7          6.6760   -0.6190    4.7700 ha        1 F83      0.152000
     33 H8          5.7540   -1.0950    2.5060 ha        1 F83      0.142000
     34 H101        3.6150   -1.3820    1.1980 hc        1 F83      0.066200
     35 H102        3.8390    0.3720    0.7920 hc        1 F83      0.066200
     36 HN2         5.8880    3.0480    7.0860 hn        1 F83      0.454800
     37 H12         7.1030    4.5480    5.7080 ha        1 F83      0.156000
     38 H13         9.2690    5.0140    4.6200 ha        1 F83      0.150000
     39 H15        10.5400    0.9390    5.3680 ha        1 F83      0.150000
     40 H16         8.3960    0.4510    6.4790 ha        1 F83      0.156000
@<TRIPOS>BOND
     1    1    2 1   
     2    1   24 1   
     3    2    3 1   
     4    2   25 1   
     5    2   26 1   
     6    3    4 1   
     7    3   12 1   
     8    3   27 1   
     9    4    5 1   
    10    4   28 1   
    11    5    6 1   
    12    5   29 1   
    13    5   30 1   
    14    6    7 ar  
    15    6   11 ar  
    16    7    8 ar  
    17    7   31 1   
    18    8    9 ar  
    19    8   13 1   
    20    9   10 ar  
    21    9   32 1   
    22   10   11 ar  
    23   10   33 1   
    24   11   12 1   
    25   12   34 1   
    26   12   35 1   
    27   13   14 2   
    28   13   15 2   
    29   13   16 1   
    30   16   17 1   
    31   16   36 1   
    32   17   18 ar  
    33   17   22 ar  
    34   18   19 ar  
    35   18   37 1   
    36   19   20 ar  
    37   19   38 1   
    38   20   21 ar  
    39   20   23 1   
    40   21   22 ar  
    41   21   39 1   
    42   22   40 1   
@<TRIPOS>SUBSTRUCTURE
     1 F83         1 TEMP              0 ****  ****    0 ROOT
