@<TRIPOS>MOLECULE
F83
   40    42     1     0     0
SMALL
bcc


@<TRIPOS>ATOM
      1 O1          7.2030    1.4500    0.0790 oh        1 F83     -0.607800
      2 C1          5.9480    2.0180    0.4190 c3        1 F83      0.129400
      3 C2          4.9130    0.8790    0.3560 c3        1 F83      0.172500
      4 N1          4.7050    0.4230   -1.0140 n3        1 F83     -0.815200
      5 C3          3.7790   -0.6890   -1.1060 c3        1 F83      0.209100
      6 C4          2.5560   -0.5450   -0.2490 ca        1 F83     -0.103300
      7 C5          1.4810   -1.4090   -0.4560 ca        1 F83     -0.010000
      8 C6          0.3270   -1.3320    0.3310 ca        1 F83     -0.398500
      9 C7          0.2720   -0.3670    1.3450 ca        1 F83     -0.010000
     10 C8          1.3340    0.5030    1.5610 ca        1 F83     -0.157000
     11 C9          2.4830    0.4250    0.7640 ca        1 F83      0.006700
     12 C10         3.6030    1.3780    0.9840 c3        1 F83     -0.047100
     13 S1         -0.9450   -2.4020    0.0890 sy        1 F83      1.519200
     14 O2         -1.6120   -2.6010    1.3120 o         1 F83     -0.649300
     15 O3         -0.4620   -3.5510   -0.5740 o         1 F83     -0.649300
     16 N2         -1.8990   -1.6170   -0.9840 nh        1 F83     -0.771500
     17 C11        -2.7610   -0.5320   -0.7700 ca        1 F83      0.175600
     18 C12        -3.0880    0.3290   -1.8440 ca        1 F83     -0.170500
     19 C13        -3.9440    1.4080   -1.6530 ca        1 F83     -0.094500
     20 C14        -4.4870    1.6530   -0.3890 ca        1 F83     -0.010600
     21 C15        -4.1800    0.8100    0.6810 ca        1 F83     -0.094500
     22 C16        -3.3310   -0.2760    0.4980 ca        1 F83     -0.170500
     23 CL1        -5.5270    2.9770   -0.1560 cl        1 F83     -0.092400
     24 HO1         7.8250    2.1820   -0.0020 ho        1 F83      0.406000
     25 H11         5.9870    2.4220    1.4670 h1        1 F83      0.034200
     26 H12A        5.6840    2.8470   -0.2890 h1        1 F83      0.034200
     27 H2          5.3080    0.0360    1.0060 h1        1 F83      0.040700
     28 HN1         5.5890    0.1790   -1.4230 hn        1 F83      0.383800
     29 H31         4.2650   -1.6750   -0.8340 h1        1 F83      0.047200
     30 H32         3.4650   -0.7540   -2.1890 h1        1 F83      0.047200
     31 H5          1.5460   -2.1800   -1.2450 ha        1 F83      0.154000
     32 H7         -0.6260   -0.3090    1.9860 ha        1 F83      0.152000
     33 H8          1.2760    1.2560    2.3610 ha        1 F83      0.142000
     34 H101        3.7680    1.5340    2.0830 hc        1 F83      0.066200
     35 H102        3.3210    2.3700    0.5360 hc        1 F83      0.066200
     36 HN2        -1.8490   -1.8830   -1.9450 hn        1 F83      0.454800
     37 H12        -2.6700    0.1510   -2.8470 ha        1 F83      0.156000
     38 H13        -4.1880    2.0670   -2.5010 ha        1 F83      0.150000
     39 H15        -4.6150    0.9940    1.6760 ha        1 F83      0.150000
     40 H16        -3.1220   -0.9390    1.3560 ha        1 F83      0.156000
@<TRIPOS>BOND
     1    1    2 1   
     2    1   24 1   
     3    2    3 1   
     4    2   25 1   
     5    2   26 1   
     6    3    4 1   
     7    3   12 1   
     8    3   27 1   
     9    4    5 1   
    10    4   28 1   
    11    5    6 1   
    12    5   29 1   
    13    5   30 1   
    14    6    7 ar  
    15    6   11 ar  
    16    7    8 ar  
    17    7   31 1   
    18    8    9 ar  
    19    8   13 1   
    20    9   10 ar  
    21    9   32 1   
    22   10   11 ar  
    23   10   33 1   
    24   11   12 1   
    25   12   34 1   
    26   12   35 1   
    27   13   14 2   
    28   13   15 2   
    29   13   16 1   
    30   16   17 1   
    31   16   36 1   
    32   17   18 ar  
    33   17   22 ar  
    34   18   19 ar  
    35   18   37 1   
    36   19   20 ar  
    37   19   38 1   
    38   20   21 ar  
    39   20   23 1   
    40   21   22 ar  
    41   21   39 1   
    42   22   40 1   
@<TRIPOS>SUBSTRUCTURE
     1 F83         1 TEMP              0 ****  ****    0 ROOT
