@<TRIPOS>MOLECULE
F83
   40    42     1     0     0
SMALL
bcc


@<TRIPOS>ATOM
      1 O1         -0.0240   -0.3240   -0.0390 oh        1 F83     -0.607800
      2 C1          1.3890   -0.2020   -0.0360 c3        1 F83      0.129400
      3 C2          1.8290   -0.1610    1.4400 c3        1 F83      0.172500
      4 N1          1.3930    1.0700    2.0910 n3        1 F83     -0.815200
      5 C3          1.7380    1.1190    3.4990 c3        1 F83      0.209100
      6 C4          3.1280    0.6460    3.8080 ca        1 F83     -0.103300
      7 C5          3.6610    0.8990    5.0730 ca        1 F83     -0.010000
      8 C6          4.9430    0.4590    5.4200 ca        1 F83     -0.398500
      9 C7          5.6870   -0.2520    4.4690 ca        1 F83     -0.010000
     10 C8          5.1700   -0.5070    3.2050 ca        1 F83     -0.157000
     11 C9          3.8890   -0.0580    2.8610 ca        1 F83      0.006700
     12 C10         3.3560   -0.3120    1.4970 c3        1 F83     -0.047100
     13 S1          5.5570    0.7440    6.9570 sy        1 F83      1.519200
     14 O2          6.4530   -0.2890    7.2890 o         1 F83     -0.649300
     15 O3          4.4840    0.9750    7.8460 o         1 F83     -0.649300
     16 N2          6.3360    2.1740    6.7930 nh        1 F83     -0.771500
     17 C11         7.5660    2.4430    6.1760 ca        1 F83      0.175600
     18 C12         7.8310    3.7380    5.6710 ca        1 F83     -0.170500
     19 C13         9.0460    4.0250    5.0600 ca        1 F83     -0.094500
     20 C14        10.0180    3.0300    4.9360 ca        1 F83     -0.010600
     21 C15         9.7760    1.7470    5.4350 ca        1 F83     -0.094500
     22 C16         8.5670    1.4520    6.0540 ca        1 F83     -0.170500
     23 CL1        11.5000    3.3810    4.1810 cl        1 F83     -0.092400
     24 HO1        -0.3080   -0.2250   -0.9550 ho        1 F83      0.406000
     25 H11         1.7080    0.7250   -0.5800 h1        1 F83      0.034200
     26 H12A        1.8480   -1.1000   -0.5300 h1        1 F83      0.034200
     27 H2          1.3730   -1.0680    1.9470 h1        1 F83      0.040700
     28 HN1         0.4020    1.1800    1.9690 hn        1 F83      0.383800
     29 H31         1.0270    0.5090    4.1370 h1        1 F83      0.047200
     30 H32         1.6360    2.1970    3.8160 h1        1 F83      0.047200
     31 H5          3.0550    1.4410    5.8210 ha        1 F83      0.154000
     32 H7          6.6930   -0.6210    4.7380 ha        1 F83      0.152000
     33 H8          5.7670   -1.0670    2.4680 ha        1 F83      0.142000
     34 H101        3.8360    0.4140    0.7850 hc        1 F83      0.066200
     35 H102        3.6270   -1.3490    1.1630 hc        1 F83      0.066200
     36 HN2         5.8800    3.0010    7.1180 hn        1 F83      0.454800
     37 H12         7.0770    4.5350    5.7610 ha        1 F83      0.156000
     38 H13         9.2350    5.0390    4.6730 ha        1 F83      0.150000
     39 H15        10.5450    0.9630    5.3480 ha        1 F83      0.150000
     40 H16         8.4090    0.4360    6.4580 ha        1 F83      0.156000
@<TRIPOS>BOND
     1    1    2 1   
     2    1   24 1   
     3    2    3 1   
     4    2   25 1   
     5    2   26 1   
     6    3    4 1   
     7    3   12 1   
     8    3   27 1   
     9    4    5 1   
    10    4   28 1   
    11    5    6 1   
    12    5   29 1   
    13    5   30 1   
    14    6    7 ar  
    15    6   11 ar  
    16    7    8 ar  
    17    7   31 1   
    18    8    9 ar  
    19    8   13 1   
    20    9   10 ar  
    21    9   32 1   
    22   10   11 ar  
    23   10   33 1   
    24   11   12 1   
    25   12   34 1   
    26   12   35 1   
    27   13   14 2   
    28   13   15 2   
    29   13   16 1   
    30   16   17 1   
    31   16   36 1   
    32   17   18 ar  
    33   17   22 ar  
    34   18   19 ar  
    35   18   37 1   
    36   19   20 ar  
    37   19   38 1   
    38   20   21 ar  
    39   20   23 1   
    40   21   22 ar  
    41   21   39 1   
    42   22   40 1   
@<TRIPOS>SUBSTRUCTURE
     1 F83         1 TEMP              0 ****  ****    0 ROOT
