@<TRIPOS>MOLECULE
F83
   40    37     1     0     0
SMALL
bcc


@<TRIPOS>ATOM
      1 O1         -4.4680   -1.4640   -5.3480 oh        1 F83     -0.334000
      2 C1         -3.0870   -1.0970   -5.1940 c3        1 F83     -0.021000
      3 C2         -2.6880   -1.1710   -3.6420 c3        1 F83     -0.025000
      4 N1         -3.1560    0.0260   -3.0170 n3        1 F83     -0.295000
      5 C3         -2.8210    0.2360   -1.7030 c3        1 F83     -0.036000
      6 C4         -1.3560   -0.2360   -1.2580 c2        1 F83     -0.096000
      7 C5         -0.8480    0.0080    0.0110 c2        1 F83     -0.007000
      8 C6          0.4050   -0.4840    0.3640 c1        1 F83     -0.844000
      9 C7          1.1640   -1.2360   -0.5730 c1        1 F83     -0.088000
     10 C8          0.6460   -1.4840   -1.8660 c1        1 F83     -0.088000
     11 C9         -0.5800   -1.0020   -2.2130 c1        1 F83      0.015000
     12 C10        -1.2990   -1.4370   -3.5600 c3        1 F83     -0.133000
     13 S1          0.9760   -0.3180    2.0160 s4        1 F83      2.085800
     14 O2          1.6850   -1.4610    2.4270 o         1 F83     -0.539900
     15 O3         -0.1260   -0.3160    2.9610 o         1 F83     -0.539900
     16 N2          1.8900    1.0450    2.1610 n2        1 F83     -0.825000
     17 C11         2.5090    1.3690    3.4190 c2        1 F83      0.095000
     18 C12         1.7740    1.3130    4.5930 c2        1 F83     -0.176000
     19 C13         2.3710    1.6630    5.8090 c1        1 F83     -0.087000
     20 C14         3.6960    2.0660    5.8390 c1        1 F83     -0.091000
     21 C15         4.4250    2.1200    4.6680 c1        1 F83     -0.095000
     22 C16         3.8230    1.7680    3.4500 c1        1 F83     -0.168000
     23 CL1         4.4040    2.6190    7.3350 cl        1 F83     -0.016000
     24 HO1        -4.6200   -1.7000   -6.1950 ho        1 F83      0.206000
     25 H11        -2.5180   -1.7210   -5.7120 h1        1 F83      0.073500
     26 H12A       -2.9590   -0.2210   -5.5090 h1        1 F83      0.073500
     27 H2         -3.1590   -1.9210   -3.2430 h1        1 F83      0.080000
     28 HN1        -4.0500    0.0810   -3.1120 hn        1 F83      0.180000
     29 H31        -2.8860    1.2010   -1.5330 h1        1 F83      0.087500
     30 H32        -3.4650   -0.2530   -1.1580 h1        1 F83      0.087500
     31 H5         -1.3650    0.5210    0.6490 ha        1 F83      0.156000
     32 H7          2.0220   -1.5740   -0.3320 ha        1 F83      0.151000
     33 H8          1.1620   -1.9960   -2.5040 ha        1 F83      0.151000
     34 H101       -0.8530   -0.9480   -4.3120 hc        1 F83      0.106000
     35 H102       -1.1760   -2.4450   -3.6610 hc        1 F83      0.106000
     36 HN2         2.0660    1.5630    1.4130 hn        1 F83      0.245000
     37 H12         0.8760    1.0400    4.5710 ha        1 F83      0.171000
     38 H13         1.8460    1.6240    6.6480 ha        1 F83      0.152000
     39 H15         5.4010    2.4170    4.6870 ha        1 F83      0.148000
     40 H16         4.3380    1.8070    2.6210 ha        1 F83      0.136000
@<TRIPOS>BOND
     1    1    2 1   
     2    1   24 1   
     3    2    3 1   
     4    2   25 1   
     5    2   26 1   
     6    3    4 1   
     7    3   12 1   
     8    3   27 1   
     9    4    5 1   
    10    4   28 1   
    11    5    6 1   
    12    5   29 1   
    13    5   30 1   
    14    6    7 1   
    15    6   11 1   
    16    7    8 1   
    17    7   31 1   
    18    8   13 1   
    19    9   10 1   
    20    9   32 1   
    21   10   33 1   
    22   11   12 1   
    23   12   34 1   
    24   12   35 1   
    25   13   14 1   
    26   13   15 1   
    27   16   17 1   
    28   16   36 1   
    29   17   18 1   
    30   17   22 1   
    31   18   19 1   
    32   18   37 1   
    33   19   38 1   
    34   20   21 1   
    35   20   23 1   
    36   21   39 1   
    37   22   40 1   
@<TRIPOS>SUBSTRUCTURE
     1 F83         1 TEMP              0 ****  ****    0 ROOT
