@<TRIPOS>MOLECULE
F83
   41    43     1     0     0
SMALL
bcc


@<TRIPOS>ATOM
      1 O1          0.0740    0.0560   -0.0530 oh        1 F83     -0.605800
      2 C1          1.4880    0.1380   -0.0300 c3        1 F83      0.132400
      3 C2          1.9030    0.0050    1.4490 c3        1 F83      0.168500
      4 N1          1.4700    1.1550    2.2350 n3        1 F83     -0.819200
      5 C3          1.7470    0.9930    3.6470 c3        1 F83      0.204100
      6 C4          3.1620    0.5630    3.9200 ca        1 F83     -0.093300
      7 C5          3.6860    0.7180    5.1940 ca        1 F83      0.003000
      8 C6          5.0030    0.3100    5.5110 ca        1 F83     -0.554500
      9 C7          5.7730   -0.2720    4.4770 ca        1 F83      0.026000
     10 C8          5.2590   -0.4290    3.2010 ca        1 F83     -0.163000
     11 C9          3.9520   -0.0120    2.9010 ca        1 F83      0.084700
     12 C10         3.4280   -0.1650    1.5200 c3        1 F83     -0.069100
     13 S1          5.5610    0.4300    6.9940 sy        1 F83      1.494200
     14 O2          6.7020   -0.2830    7.2820 o         1 F83     -0.573800
     15 O3          4.6040    0.6430    7.9660 o         1 F83     -0.573800
     16 N2          6.2500    2.2760    6.9170 n4        1 F83     -0.553300
     17 C11         7.4810    2.4500    6.1700 ca        1 F83     -0.054400
     18 C12         7.4990    3.2480    5.0100 ca        1 F83     -0.096000
     19 C13         8.6840    3.4120    4.3010 ca        1 F83     -0.109500
     20 C14         9.8610    2.7950    4.7450 ca        1 F83      0.050400
     21 C15         9.8470    2.0090    5.9050 ca        1 F83     -0.109500
     22 C16         8.6660    1.8370    6.6210 ca        1 F83     -0.096000
     23 CL1        11.2960    3.0010    3.8840 cl        1 F83     -0.018400
     24 HO1        -0.2000    0.1860   -0.9690 ho        1 F83      0.420000
     25 H11         1.8340    1.1130   -0.4640 h1        1 F83      0.040700
     26 H12A        1.9350   -0.7120   -0.6120 h1        1 F83      0.040700
     27 H2          1.4300   -0.9510    1.8390 h1        1 F83      0.049700
     28 HN1         0.4950    1.3350    2.0760 hn        1 F83      0.406800
     29 H31         1.0670    0.2340    4.1440 h1        1 F83      0.059200
     30 H32         1.5580    1.9920    4.1370 h1        1 F83      0.059200
     31 H5          3.0530    1.1520    5.9910 ha        1 F83      0.164000
     32 H7          6.8000   -0.6180    4.7000 ha        1 F83      0.167000
     33 H8          5.8770   -0.8900    2.4120 ha        1 F83      0.171000
     34 H101        3.7000   -1.1760    1.1130 hc        1 F83      0.088700
     35 H102        3.9260    0.6080    0.8690 hc        1 F83      0.088700
     36 HN2         5.5350    2.8810    6.5210 hn        1 F83      0.442800
     37 H12         6.5880    3.7540    4.6510 ha        1 F83      0.163500
     38 H13         8.6940    4.0390    3.3930 ha        1 F83      0.178500
     39 H15        10.7720    1.5240    6.2610 ha        1 F83      0.178500
     40 H16         8.6740    1.2060    7.5270 ha        1 F83      0.163500
     41 H22         6.4100    2.5890    7.8750 hn        1 F83      0.442800
@<TRIPOS>BOND
     1    1    2 1   
     2    1   24 1   
     3    2    3 1   
     4    2   25 1   
     5    2   26 1   
     6    3    4 1   
     7    3   12 1   
     8    3   27 1   
     9    4    5 1   
    10    4   28 1   
    11    5    6 1   
    12    5   29 1   
    13    5   30 1   
    14    6    7 ar  
    15    6   11 ar  
    16    7    8 ar  
    17    7   31 1   
    18    8    9 ar  
    19    8   13 1   
    20    9   10 ar  
    21    9   32 1   
    22   10   11 ar  
    23   10   33 1   
    24   11   12 1   
    25   12   34 1   
    26   12   35 1   
    27   13   14 2   
    28   13   15 2   
    29   13   16 1   
    30   16   17 1   
    31   16   36 1   
    32   16   41 1   
    33   17   18 ar  
    34   17   22 ar  
    35   18   19 ar  
    36   18   37 1   
    37   19   20 ar  
    38   19   38 1   
    39   20   21 ar  
    40   20   23 1   
    41   21   22 ar  
    42   21   39 1   
    43   22   40 1   
@<TRIPOS>SUBSTRUCTURE
     1 F83         1 TEMP              0 ****  ****    0 ROOT
