@<TRIPOS>MOLECULE
F85
   53    52     1     0     0
SMALL
bcc


@<TRIPOS>ATOM
      1 C1          0.7450   -4.0530   -1.5960 c3        1 F85      0.107000
      2 N1          0.4830   -2.7120   -1.2810 n         1 F85     -0.366000
      3 C2          1.7420   -4.1000   -2.7130 c3        1 F85     -0.012000
      4 N2         -1.0800   -0.8080   -1.1670 n         1 F85     -0.382000
      5 O2          1.8390   -5.4260   -3.1860 oh        1 F85     -0.308000
      6 C3          3.1080   -3.6290   -2.2800 c3        1 F85     -0.007000
      7 O3          3.0570   -2.2130   -2.0260 oh        1 F85     -0.325000
      8 C4          3.5800   -4.3270   -1.0500 c3        1 F85      0.003000
      9 O4          3.8410   -5.6810   -1.3700 oh        1 F85     -0.333000
     10 C5          2.5680   -4.2830    0.0590 c3        1 F85     -0.007000
     11 O5          1.2310   -4.7450   -0.3700 os        1 F85     -0.275000
     12 C6          2.4510   -2.8880    0.5510 c3        1 F85     -0.053000
     13 O6          2.5880   -2.8780    1.9320 oh        1 F85     -0.339000
     14 C7         -0.8380   -2.2020   -1.3790 c2        1 F85      0.404000
     15 O7         -1.6970   -2.8890   -1.7150 o         1 F85     -0.377000
     16 C8         -0.5820   -0.1630    0.0350 c2        1 F85      0.367000
     17 O8          0.3810   -0.6570    0.6530 o         1 F85     -0.368000
     18 C9         -1.2210    1.1740    0.5320 c2        1 F85     -0.140000
     19 C10        -2.0670    1.9180   -0.3270 c2        1 F85     -0.096000
     20 C11        -2.5250    3.1650    0.0610 c1        1 F85     -0.137000
     21 C12        -2.1530    3.6900    1.2980 c1        1 F85     -0.024000
     22 C13        -1.3070    2.9440    2.1550 c1        1 F85     -0.139000
     23 C14        -0.8510    1.6950    1.7620 c1        1 F85     -0.073000
     24 C15        -2.6150    5.0760    1.7000 c3        1 F85     -0.023000
     25 C16        -1.4220    5.8630    2.3160 c3        1 F85     -0.205000
     26 C17        -3.1300    5.8240    0.4580 c3        1 F85     -0.205000
     27 C18        -3.7640    4.9540    2.7570 c3        1 F85     -0.205000
     28 H1         -0.1060   -4.4910   -1.9030 h2        1 F85      0.175000
     29 HN1         1.1960   -2.1260   -1.1330 hn        1 F85      0.255000
     30 H2          1.4150   -3.5090   -3.4690 h1        1 F85      0.130000
     31 HN2        -1.6230   -0.3450   -1.7460 hn        1 F85      0.255000
     32 HO2         1.4560   -5.4820   -3.9980 ho        1 F85      0.228000
     33 H3          3.7410   -3.7970   -2.9990 h1        1 F85      0.114000
     34 HO3         3.6160   -1.7740   -2.6180 ho        1 F85      0.212000
     35 H4          4.4430   -3.8850   -0.7270 h1        1 F85      0.117000
     36 HO4         4.6550   -5.8790   -1.1420 ho        1 F85      0.215000
     37 H5          2.8670   -4.8280    0.7650 h1        1 F85      0.132000
     38 H6          1.6190   -2.5470    0.3200 h1        1 F85      0.093500
     39 H6A         3.1460   -2.3430    0.1500 h1        1 F85      0.093500
     40 HO6         3.0870   -2.1430    2.1870 ho        1 F85      0.209000
     41 H10        -2.3320    1.5410   -1.2110 ha        1 F85      0.139000
     42 H11        -3.1090    3.6790   -0.5340 ha        1 F85      0.143000
     43 H13        -1.0380    3.3170    3.0440 ha        1 F85      0.142000
     44 H14        -0.2710    1.1830    2.3500 ha        1 F85      0.152000
     45 H16        -1.2660    5.5570    3.2470 hc        1 F85      0.079111
     46 H16A       -1.6240    6.7910    2.3170 hc        1 F85      0.079111
     47 H16B       -0.6040    5.7000    1.7760 hc        1 F85      0.079111
     48 H17        -3.1740    6.7390    0.6430 hc        1 F85      0.079111
     49 H17A       -2.5120    5.6720   -0.2970 hc        1 F85      0.079111
     50 H17B       -3.9710    5.5130    0.2370 hc        1 F85      0.079111
     51 H18        -4.0750    5.8350    2.9950 hc        1 F85      0.079111
     52 H18A       -3.4320    4.5090    3.5400 hc        1 F85      0.079111
     53 H18B       -4.4670    4.4630    2.3970 hc        1 F85      0.079111
@<TRIPOS>BOND
     1    1    2 1   
     2    1    3 1   
     3    1   11 1   
     4    1   28 1   
     5    2   14 1   
     6    2   29 1   
     7    3    5 1   
     8    3    6 1   
     9    3   30 1   
    10    4   14 1   
    11    4   16 1   
    12    4   31 1   
    13    5   32 1   
    14    6    7 1   
    15    6    8 1   
    16    6   33 1   
    17    7   34 1   
    18    8    9 1   
    19    8   10 1   
    20    8   35 1   
    21    9   36 1   
    22   10   11 1   
    23   10   12 1   
    24   10   37 1   
    25   12   13 1   
    26   12   38 1   
    27   12   39 1   
    28   13   40 1   
    29   14   15 1   
    30   16   17 1   
    31   16   18 1   
    32   18   19 1   
    33   18   23 1   
    34   19   20 1   
    35   19   41 1   
    36   20   42 1   
    37   21   22 1   
    38   21   24 1   
    39   22   43 1   
    40   23   44 1   
    41   24   25 1   
    42   24   26 1   
    43   24   27 1   
    44   25   45 1   
    45   25   46 1   
    46   25   47 1   
    47   26   48 1   
    48   26   49 1   
    49   26   50 1   
    50   27   51 1   
    51   27   52 1   
    52   27   53 1   
@<TRIPOS>SUBSTRUCTURE
     1 F85         1 TEMP              0 ****  ****    0 ROOT
