@<TRIPOS>MOLECULE
F85
   55    56     1     0     0
SMALL
bcc


@<TRIPOS>ATOM
      1 C1         -0.4760   -0.9950    0.5430 c3        1 F85      0.346300
      2 N1         -0.9140   -2.2750   -0.1580 n4        1 F85     -0.651800
      3 C2          1.0560   -0.9680    0.7720 c3        1 F85      0.118100
      4 N2         -2.7070   -1.3810   -1.7680 n4        1 F85     -0.583600
      5 O2          1.3240   -2.0390    1.6450 oh        1 F85     -0.617800
      6 C3          1.3880    0.4130    1.3730 c3        1 F85      0.082100
      7 O3          2.7960    0.4300    1.4830 oh        1 F85     -0.582800
      8 C4          0.9170    1.5340    0.4180 c3        1 F85      0.091100
      9 O4          1.0330    2.7780    1.0790 oh        1 F85     -0.577800
     10 C5         -0.5770    1.3700    0.1020 c3        1 F85      0.135100
     11 O5         -0.8460    0.0260   -0.3570 os        1 F85     -0.494600
     12 C6         -1.0540    2.2140   -1.0890 c3        1 F85      0.135400
     13 O6         -2.3250    1.7240   -1.4910 oh        1 F85     -0.659800
     14 C7         -2.3410   -2.2140   -0.5980 c         1 F85      0.524100
     15 O7         -3.1840   -2.8570    0.0090 o         1 F85     -0.324100
     16 C8         -2.0730   -1.8620   -3.1180 c         1 F85      0.635700
     17 O8         -1.1240   -2.6150   -2.9460 o         1 F85     -0.490100
     18 C9         -2.7220   -1.3620   -4.2960 ca        1 F85     -0.251600
     19 C10        -2.5460   -2.1090   -5.4840 ca        1 F85     -0.039500
     20 C11        -3.1440   -1.6890   -6.6650 ca        1 F85     -0.137000
     21 C12        -3.9200   -0.5190   -6.7080 ca        1 F85      0.083700
     22 C13        -4.0670    0.2330   -5.5190 ca        1 F85     -0.137000
     23 C14        -3.4840   -0.1730   -4.3340 ca        1 F85     -0.039500
     24 C15        -4.5860   -0.0400   -7.9690 c3        1 F85     -0.037700
     25 C16        -6.0930    0.0450   -7.7350 c3        1 F85     -0.096100
     26 C17        -4.0470    1.3460   -8.3210 c3        1 F85     -0.096100
     27 C18        -4.3330   -0.9700   -9.1490 c3        1 F85     -0.096100
     28 H1         -1.0460   -0.9280    1.5200 hx        1 F85      0.135700
     29 HN1        -0.8030   -3.0520    0.5250 hn        1 F85      0.516300
     30 H2          1.6210   -1.1030   -0.1940 h1        1 F85      0.096700
     31 HN2        -2.4270   -0.3830   -1.6130 hn        1 F85      0.516300
     32 HO2         2.2050   -1.8950    2.0330 ho        1 F85      0.484000
     33 H3          0.9020    0.5340    2.3800 h1        1 F85      0.087700
     34 HO3         3.0310    1.0910    2.1510 ho        1 F85      0.450000
     35 H4          1.5300    1.5070   -0.5250 h1        1 F85      0.086700
     36 HO4         1.9370    3.0980    0.9420 ho        1 F85      0.446000
     37 H5         -1.1980    1.5680    1.0190 h1        1 F85      0.095700
     38 H6         -0.3740    2.0750   -1.9720 h1        1 F85      0.098700
     39 H6A        -1.0770    3.2920   -0.7820 h1        1 F85      0.098700
     40 HO6        -2.9930    2.3600   -1.2050 ho        1 F85      0.444000
     41 H10        -1.9350   -3.0290   -5.4700 ha        1 F85      0.154000
     42 H11        -2.9950   -2.2960   -7.5760 ha        1 F85      0.185000
     43 H13        -4.6550    1.1680   -5.5440 ha        1 F85      0.185000
     44 H14        -3.5880    0.4710   -3.4450 ha        1 F85      0.154000
     45 H16        -6.3310    0.7620   -6.9130 hc        1 F85      0.055033
     46 H16A       -6.5070   -0.9580   -7.4750 hc        1 F85      0.055033
     47 H16B       -6.5930    0.4030   -8.6690 hc        1 F85      0.055033
     48 H17        -2.9440    1.3060   -8.4910 hc        1 F85      0.055033
     49 H17A       -4.2650    2.0790   -7.5090 hc        1 F85      0.055033
     50 H17B       -4.5370    1.7050   -9.2600 hc        1 F85      0.055033
     51 H18        -4.8570   -0.5700  -10.0530 hc        1 F85      0.055033
     52 H18A       -4.7310   -1.9920   -8.9430 hc        1 F85      0.055033
     53 H18B       -3.2430   -1.0330   -9.3810 hc        1 F85      0.055033
     54 H12        -0.2960   -2.4580   -0.9720 hn        1 F85      0.516300
     55 H22        -3.7360   -1.4150   -1.8650 hn        1 F85      0.516300
@<TRIPOS>BOND
     1    1    2 1   
     2    1    3 1   
     3    1   11 1   
     4    1   28 1   
     5    2   14 1   
     6    2   29 1   
     7    2   54 1   
     8    3    5 1   
     9    3    6 1   
    10    3   30 1   
    11    4   14 1   
    12    4   16 1   
    13    4   31 1   
    14    4   55 1   
    15    5   32 1   
    16    6    7 1   
    17    6    8 1   
    18    6   33 1   
    19    7   34 1   
    20    8    9 1   
    21    8   10 1   
    22    8   35 1   
    23    9   36 1   
    24   10   11 1   
    25   10   12 1   
    26   10   37 1   
    27   12   13 1   
    28   12   38 1   
    29   12   39 1   
    30   13   40 1   
    31   14   15 2   
    32   16   17 2   
    33   16   18 1   
    34   18   19 ar  
    35   18   23 ar  
    36   19   20 ar  
    37   19   41 1   
    38   20   21 ar  
    39   20   42 1   
    40   21   22 ar  
    41   21   24 1   
    42   22   23 ar  
    43   22   43 1   
    44   23   44 1   
    45   24   25 1   
    46   24   26 1   
    47   24   27 1   
    48   25   45 1   
    49   25   46 1   
    50   25   47 1   
    51   26   48 1   
    52   26   49 1   
    53   26   50 1   
    54   27   51 1   
    55   27   52 1   
    56   27   53 1   
@<TRIPOS>SUBSTRUCTURE
     1 F85         1 TEMP              0 ****  ****    0 ROOT
