@<TRIPOS>MOLECULE
F85
   55    56     1     0     0
SMALL
bcc


@<TRIPOS>ATOM
      1 C1         -0.5800   -0.9360    0.5900 c3        1 F85      0.346300
      2 N1         -1.1270   -2.2070   -0.0490 n4        1 F85     -0.651800
      3 C2          0.9470   -1.0360    0.8350 c3        1 F85      0.118100
      4 N2         -2.8210   -1.2400   -1.7220 n4        1 F85     -0.583600
      5 O2          1.1100   -2.0800    1.7650 oh        1 F85     -0.617800
      6 C3          1.4000    0.3390    1.3670 c3        1 F85      0.082100
      7 O3          2.8030    0.2340    1.4930 oh        1 F85     -0.582800
      8 C4          1.0380    1.4460    0.3510 c3        1 F85      0.091100
      9 O4          1.2620    2.7080    0.9480 oh        1 F85     -0.577800
     10 C5         -0.4620    1.4020    0.0270 c3        1 F85      0.135100
     11 O5         -0.8480    0.0650   -0.3660 os        1 F85     -0.494600
     12 C6         -0.8520    2.2220   -1.2110 c3        1 F85      0.135400
     13 O6         -2.1590    1.8280   -1.6020 oh        1 F85     -0.659800
     14 C7         -2.5400   -2.0400   -0.5070 c         1 F85      0.524100
     15 O7         -3.4420   -2.5720    0.1230 o         1 F85     -0.324100
     16 C8         -2.2260   -1.8450   -3.0380 c         1 F85      0.635700
     17 O8         -1.3500   -2.6710   -2.8180 o         1 F85     -0.490100
     18 C9         -2.8200   -1.3510   -4.2480 ca        1 F85     -0.251600
     19 C10        -2.7040   -2.1720   -5.3940 ca        1 F85     -0.039500
     20 C11        -3.2550   -1.7620   -6.6010 ca        1 F85     -0.137000
     21 C12        -3.9210   -0.5320   -6.7130 ca        1 F85      0.083700
     22 C13        -4.0070    0.2920   -5.5660 ca        1 F85     -0.137000
     23 C14        -3.4700   -0.1020   -4.3550 ca        1 F85     -0.039500
     24 C15        -4.5340   -0.0600   -8.0040 c3        1 F85     -0.037700
     25 C16        -6.0290    0.1730   -7.7900 c3        1 F85     -0.096100
     26 C17        -3.8690    1.2510   -8.4220 c3        1 F85     -0.096100
     27 C18        -4.3590   -1.0700   -9.1320 c3        1 F85     -0.096100
     28 H1         -1.1480   -0.7670    1.5560 hx        1 F85      0.135700
     29 HN1        -0.5230   -2.4870   -0.8450 hn        1 F85      0.516300
     30 H2          1.5040   -1.2720   -0.1160 h1        1 F85      0.096700
     31 HN2        -2.4530   -0.2640   -1.6160 hn        1 F85      0.516300
     32 HO2         1.9980   -1.9960    2.1550 ho        1 F85      0.484000
     33 H3          0.9200    0.5560    2.3620 h1        1 F85      0.087700
     34 HO3         3.0920    0.9050    2.1280 ho        1 F85      0.450000
     35 H4          1.6520    1.3150   -0.5820 h1        1 F85      0.086700
     36 HO4         2.1930    2.9370    0.8050 ho        1 F85      0.446000
     37 H5         -1.0680    1.7030    0.9250 h1        1 F85      0.095700
     38 H6         -0.1820    1.9760   -2.0790 h1        1 F85      0.098700
     39 H6A        -0.7790    3.3120   -0.9610 h1        1 F85      0.098700
     40 HO6        -2.7690    2.5370   -1.3570 ho        1 F85      0.444000
     41 H10        -2.1790   -3.1410   -5.3260 ha        1 F85      0.154000
     42 H11        -3.1560   -2.4280   -7.4780 ha        1 F85      0.185000
     43 H13        -4.5080    1.2740   -5.6460 ha        1 F85      0.185000
     44 H14        -3.5210    0.5950   -3.5020 ha        1 F85      0.154000
     45 H16        -6.2050    0.9500   -7.0100 hc        1 F85      0.055033
     46 H16A       -6.4880    0.5250   -8.7470 hc        1 F85      0.055033
     47 H16B       -6.5330   -0.7740   -7.4840 hc        1 F85      0.055033
     48 H17        -2.7730    1.1030   -8.5770 hc        1 F85      0.055033
     49 H17A       -4.0250    2.0420   -7.6500 hc        1 F85      0.055033
     50 H17B       -4.3180    1.6030   -9.3830 hc        1 F85      0.055033
     51 H18        -4.8490   -2.0400   -8.8770 hc        1 F85      0.055033
     52 H18A       -4.8390   -0.6730  -10.0610 hc        1 F85      0.055033
     53 H18B       -3.2780   -1.2430   -9.3480 hc        1 F85      0.055033
     54 H12        -1.0920   -2.9540    0.6750 hn        1 F85      0.516300
     55 H22        -3.8490   -1.1850   -1.8290 hn        1 F85      0.516300
@<TRIPOS>BOND
     1    1    2 1   
     2    1    3 1   
     3    1   11 1   
     4    1   28 1   
     5    2   14 1   
     6    2   29 1   
     7    2   54 1   
     8    3    5 1   
     9    3    6 1   
    10    3   30 1   
    11    4   14 1   
    12    4   16 1   
    13    4   31 1   
    14    4   55 1   
    15    5   32 1   
    16    6    7 1   
    17    6    8 1   
    18    6   33 1   
    19    7   34 1   
    20    8    9 1   
    21    8   10 1   
    22    8   35 1   
    23    9   36 1   
    24   10   11 1   
    25   10   12 1   
    26   10   37 1   
    27   12   13 1   
    28   12   38 1   
    29   12   39 1   
    30   13   40 1   
    31   14   15 2   
    32   16   17 2   
    33   16   18 1   
    34   18   19 ar  
    35   18   23 ar  
    36   19   20 ar  
    37   19   41 1   
    38   20   21 ar  
    39   20   42 1   
    40   21   22 ar  
    41   21   24 1   
    42   22   23 ar  
    43   22   43 1   
    44   23   44 1   
    45   24   25 1   
    46   24   26 1   
    47   24   27 1   
    48   25   45 1   
    49   25   46 1   
    50   25   47 1   
    51   26   48 1   
    52   26   49 1   
    53   26   50 1   
    54   27   51 1   
    55   27   52 1   
    56   27   53 1   
@<TRIPOS>SUBSTRUCTURE
     1 F85         1 TEMP              0 ****  ****    0 ROOT
