@<TRIPOS>MOLECULE
F85
   55    56     1     0     0
SMALL
bcc


@<TRIPOS>ATOM
      1 C1         -0.3960   -0.9800    0.5080 c3        1 F85      0.346300
      2 N1         -0.8010   -2.2670   -0.2000 ny        1 F85     -0.651800
      3 C2          1.1380   -0.9050    0.7160 c3        1 F85      0.118100
      4 N2         -2.6470   -1.4170   -1.7720 ny        1 F85     -0.583600
      5 O2          1.4540   -1.9760    1.5730 oh        1 F85     -0.617800
      6 C3          1.4340    0.4800    1.3260 c3        1 F85      0.082100
      7 O3          2.8420    0.5420    1.4160 oh        1 F85     -0.582800
      8 C4          0.9110    1.5950    0.3910 c3        1 F85      0.091100
      9 O4          0.9960    2.8350    1.0630 oh        1 F85     -0.577800
     10 C5         -0.5810    1.3840    0.0950 c3        1 F85      0.135100
     11 O5         -0.8120    0.0370   -0.3750 os        1 F85     -0.494600
     12 C6         -1.1030    2.2240   -1.0800 c3        1 F85      0.135400
     13 O6         -2.3630    1.6960   -1.4690 oh        1 F85     -0.659800
     14 C7         -2.2360   -2.2490   -0.6180 c         1 F85      0.524100
     15 O7         -3.0480   -2.9260   -0.0050 o         1 F85     -0.324100
     16 C8         -2.0190   -1.8620   -3.1370 c         1 F85      0.635700
     17 O8         -1.0420   -2.5850   -2.9880 o         1 F85     -0.490100
     18 C9         -2.7030   -1.3730   -4.3000 ca        1 F85     -0.251600
     19 C10        -2.5200   -2.1010   -5.4990 ca        1 F85     -0.039500
     20 C11        -3.1510   -1.6900   -6.6650 ca        1 F85     -0.137000
     21 C12        -3.9660   -0.5480   -6.6850 ca        1 F85      0.083700
     22 C13        -4.1190    0.1880   -5.4860 ca        1 F85     -0.137000
     23 C14        -3.5050   -0.2100   -4.3140 ca        1 F85     -0.039500
     24 C15        -4.6680   -0.0780   -7.9300 c3        1 F85     -0.037700
     25 C16        -6.1730   -0.0460   -7.6710 c3        1 F85     -0.096100
     26 C17        -4.1810    1.3280   -8.2760 c3        1 F85     -0.096100
     27 C18        -4.4030   -0.9880   -9.1230 c3        1 F85     -0.096100
     28 H1         -0.9530   -0.9420    1.4940 hx        1 F85      0.135700
     29 HN1        -0.6550   -3.0470    0.4730 hn        1 F85      0.516300
     30 H2          1.6930   -1.0120   -0.2600 h1        1 F85      0.096700
     31 HN2        -3.6760   -1.4830   -1.8550 hn        1 F85      0.516300
     32 HO2         2.3360   -1.8070    1.9500 ho        1 F85      0.484000
     33 H3          0.9590    0.5750    2.3420 h1        1 F85      0.087700
     34 HO3         3.0650    1.2040    2.0880 ho        1 F85      0.450000
     35 H4          1.5100    1.5980   -0.5610 h1        1 F85      0.086700
     36 HO4         1.8870    3.1860    0.9170 ho        1 F85      0.446000
     37 H5         -1.1940    1.5520    1.0220 h1        1 F85      0.095700
     38 H6         -1.1570    3.2980   -0.7610 h1        1 F85      0.098700
     39 H6A        -0.4320    2.1170   -1.9740 h1        1 F85      0.098700
     40 HO6        -3.0480    2.3070   -1.1660 ho        1 F85      0.444000
     41 H10        -1.8780   -3.0000   -5.5030 ha        1 F85      0.154000
     42 H11        -2.9950   -2.2840   -7.5850 ha        1 F85      0.185000
     43 H13        -4.7390    1.1020   -5.4920 ha        1 F85      0.185000
     44 H14        -3.6160    0.4220   -3.4170 ha        1 F85      0.154000
     45 H16        -6.5490   -1.0660   -7.4160 hc        1 F85      0.055033
     46 H16A       -6.4220    0.6540   -6.8390 hc        1 F85      0.055033
     47 H16B       -6.6990    0.3040   -8.5940 hc        1 F85      0.055033
     48 H17        -4.4110    2.0450   -7.4530 hc        1 F85      0.055033
     49 H17A       -4.6970    1.6800   -9.2040 hc        1 F85      0.055033
     50 H17B       -3.0800    1.3270   -8.4630 hc        1 F85      0.055033
     51 H18        -3.3150   -1.0120   -9.3730 hc        1 F85      0.055033
     52 H18A       -4.7620   -2.0250   -8.9220 hc        1 F85      0.055033
     53 H18B       -4.9540   -0.5970  -10.0150 hc        1 F85      0.055033
     54 H12        -0.1900   -2.4210   -1.0250 hn        1 F85      0.516300
     55 H22        -2.3980   -0.4110   -1.6110 hn        1 F85      0.516300
@<TRIPOS>BOND
     1    1    2 1   
     2    1    3 1   
     3    1   11 1   
     4    1   28 1   
     5    2   14 1   
     6    2   29 1   
     7    2   54 1   
     8    3    5 1   
     9    3    6 1   
    10    3   30 1   
    11    4   14 1   
    12    4   16 1   
    13    4   31 1   
    14    4   55 1   
    15    5   32 1   
    16    6    7 1   
    17    6    8 1   
    18    6   33 1   
    19    7   34 1   
    20    8    9 1   
    21    8   10 1   
    22    8   35 1   
    23    9   36 1   
    24   10   11 1   
    25   10   12 1   
    26   10   37 1   
    27   12   13 1   
    28   12   38 1   
    29   12   39 1   
    30   13   40 1   
    31   14   15 2   
    32   16   17 2   
    33   16   18 1   
    34   18   19 ar  
    35   18   23 ar  
    36   19   20 ar  
    37   19   41 1   
    38   20   21 ar  
    39   20   42 1   
    40   21   22 ar  
    41   21   24 1   
    42   22   23 ar  
    43   22   43 1   
    44   23   44 1   
    45   24   25 1   
    46   24   26 1   
    47   24   27 1   
    48   25   45 1   
    49   25   46 1   
    50   25   47 1   
    51   26   48 1   
    52   26   49 1   
    53   26   50 1   
    54   27   51 1   
    55   27   52 1   
    56   27   53 1   
@<TRIPOS>SUBSTRUCTURE
     1 F85         1 TEMP              0 ****  ****    0 ROOT
