@<TRIPOS>MOLECULE
F85
   53    54     1     0     0
SMALL
bcc


@<TRIPOS>ATOM
      1 C1          3.0020    0.5930   -0.2710 c3        1 F85      0.241500
      2 N1          1.6280    0.9930   -0.0440 n         1 F85     -0.528900
      3 C2          4.0020    1.7140    0.1290 c3        1 F85      0.091100
      4 N2         -0.6800    0.5160   -0.6260 n         1 F85     -0.609500
      5 O2          3.9210    2.8250   -0.7440 oh        1 F85     -0.601800
      6 C3          5.4360    1.1790   -0.0200 c3        1 F85      0.108100
      7 O3          6.3730    2.1060    0.5010 oh        1 F85     -0.608800
      8 C4          5.6070   -0.1140    0.7930 c3        1 F85      0.117100
      9 O4          6.8710   -0.6990    0.5390 oh        1 F85     -0.594800
     10 C5          4.5340   -1.1290    0.3610 c3        1 F85      0.151100
     11 O5          3.2420   -0.5560    0.5680 os        1 F85     -0.447600
     12 C6          4.5910   -2.3840    1.2360 c3        1 F85      0.135400
     13 O6          4.0440   -3.4430    0.4690 oh        1 F85     -0.594800
     14 C7          0.6720    0.5950   -1.0260 c         1 F85      0.752100
     15 O7          1.0210    0.4070   -2.2060 o         1 F85     -0.554100
     16 C8         -1.7460    0.2780   -1.5090 c         1 F85      0.685700
     17 O8         -1.5770    0.0960   -2.7200 o         1 F85     -0.514100
     18 C9         -3.0960    0.2320   -0.8760 ca        1 F85     -0.156600
     19 C10        -3.9780   -0.7810   -1.2690 ca        1 F85     -0.090000
     20 C11        -5.2520   -0.8460   -0.7140 ca        1 F85     -0.136000
     21 C12        -5.6770    0.0990    0.2330 ca        1 F85     -0.037300
     22 C13        -4.7900    1.1160    0.6070 ca        1 F85     -0.136000
     23 C14        -3.5090    1.1830    0.0590 ca        1 F85     -0.090000
     24 C15        -7.0660   -0.0090    0.8060 c3        1 F85     -0.014700
     25 C16        -7.2200   -1.3570    1.5060 c3        1 F85     -0.087100
     26 C17        -7.3640    1.0900    1.8190 c3        1 F85     -0.087100
     27 C18        -8.0870    0.0930   -0.3240 c3        1 F85     -0.087100
     28 H1          3.1590    0.3200   -1.3590 h2        1 F85      0.109700
     29 HN1         1.3510    0.8840    0.9110 hn        1 F85      0.292500
     30 H2          3.8250    2.0460    1.1890 h1        1 F85      0.058700
     31 HN2        -0.9090    0.6460    0.3330 hn        1 F85      0.318500
     32 HO2         3.0020    3.1190   -0.7630 ho        1 F85      0.426000
     33 H3          5.6590    0.9890   -1.1070 h1        1 F85      0.069700
     34 HO3         6.2320    2.9370    0.0270 ho        1 F85      0.429000
     35 H4          5.5090    0.1160    1.8900 h1        1 F85      0.058700
     36 HO4         7.5270   -0.0030    0.6840 ho        1 F85      0.426000
     37 H5          4.6660   -1.4060   -0.7210 h1        1 F85      0.085700
     38 H6          5.6650   -2.6020    1.4860 h1        1 F85      0.045700
     39 H6A         3.9970   -2.2330    2.1750 h1        1 F85      0.045700
     40 HO6         4.0570   -4.2240    1.0350 ho        1 F85      0.403000
     41 H10        -3.6590   -1.5160   -2.0250 ha        1 F85      0.144500
     42 H11        -5.9350   -1.6510   -1.0300 ha        1 F85      0.141500
     43 H13        -5.0890    1.8830    1.3370 ha        1 F85      0.141500
     44 H14        -2.8410    2.0050    0.3570 ha        1 F85      0.144500
     45 H16        -6.4770   -1.4520    2.3330 hc        1 F85      0.039256
     46 H16A       -8.2470   -1.4460    1.9350 hc        1 F85      0.039256
     47 H16B       -7.0630   -2.1960    0.7860 hc        1 F85      0.039256
     48 H17        -7.2940    2.0960    1.3410 hc        1 F85      0.039256
     49 H17A       -8.4010    0.9610    2.2160 hc        1 F85      0.039256
     50 H17B       -6.6520    1.0400    2.6770 hc        1 F85      0.039256
     51 H18        -7.9420   -0.7310   -1.0630 hc        1 F85      0.039256
     52 H18A       -9.1200    0.0190    0.0920 hc        1 F85      0.039256
     53 H18B       -7.9820    1.0700   -0.8530 hc        1 F85      0.039256
@<TRIPOS>BOND
     1    1    2 1   
     2    1    3 1   
     3    1   11 1   
     4    1   28 1   
     5    2   14 1   
     6    2   29 1   
     7    3    5 1   
     8    3    6 1   
     9    3   30 1   
    10    4   14 1   
    11    4   16 1   
    12    4   31 1   
    13    5   32 1   
    14    6    7 1   
    15    6    8 1   
    16    6   33 1   
    17    7   34 1   
    18    8    9 1   
    19    8   10 1   
    20    8   35 1   
    21    9   36 1   
    22   10   11 1   
    23   10   12 1   
    24   10   37 1   
    25   12   13 1   
    26   12   38 1   
    27   12   39 1   
    28   13   40 1   
    29   14   15 2   
    30   16   17 2   
    31   16   18 1   
    32   18   19 ar  
    33   18   23 ar  
    34   19   20 ar  
    35   19   41 1   
    36   20   21 ar  
    37   20   42 1   
    38   21   22 ar  
    39   21   24 1   
    40   22   23 ar  
    41   22   43 1   
    42   23   44 1   
    43   24   25 1   
    44   24   26 1   
    45   24   27 1   
    46   25   45 1   
    47   25   46 1   
    48   25   47 1   
    49   26   48 1   
    50   26   49 1   
    51   26   50 1   
    52   27   51 1   
    53   27   52 1   
    54   27   53 1   
@<TRIPOS>SUBSTRUCTURE
     1 F85         1 TEMP              0 ****  ****    0 ROOT
