@<TRIPOS>MOLECULE
F89
   59    54     1     0     0
SMALL
bcc


@<TRIPOS>ATOM
      1 C1          1.2810   -1.6910    5.3440 c1        1 F89      0.344000
      2 O1A         0.5060   -1.6920    4.4060 o         1 F89     -0.346000
      3 N2          0.8110   -1.7570    6.5970 n2        1 F89     -0.336000
      4 C3          1.6860   -1.8200    7.6600 c1        1 F89      0.115000
      5 C3M         1.3210   -1.8500    9.1610 c3        1 F89     -0.184000
      6 N4          3.0300   -1.8160    7.4410 n1        1 F89     -0.205000
      7 C4A         3.5130   -1.7490    6.1660 c1        1 F89     -0.005000
      8 C5          4.9160   -1.7270    5.9310 c1        1 F89     -0.108000
      9 C6          5.3980   -1.6420    4.6360 c1        1 F89     -0.108000
     10 C6A         4.4990   -1.5770    3.5510 c1        1 F89     -0.005000
     11 C7          4.9900   -1.4900    2.2360 c1        1 F89     -0.117500
     12 C8          4.0990   -1.4240    1.1590 c1        1 F89     -0.117500
     13 C9          2.7210   -1.4450    1.3880 c1        1 F89     -0.062000
     14 C10         2.2360   -1.5320    2.6810 c1        1 F89     -0.124000
     15 C1B         3.1410   -1.5990    3.7790 c1        1 F89     -0.064500
     16 C1A         2.6430   -1.6860    5.1140 c1        1 F89     -0.064500
     17 C11         1.8210   -1.5550    0.0850 c3        1 F89     -0.032000
     18 N12         1.5720   -0.2510   -0.4350 n3        1 F89     -0.271000
     19 C13         0.8010   -0.0980   -1.6480 c2        1 F89      0.027000
     20 C14        -0.4100    0.5700   -1.4520 c2        1 F89     -0.176000
     21 C15        -1.2500    0.8360   -2.5450 c1        1 F89     -0.028000
     22 C16        -0.8810    0.4380   -3.8110 c1        1 F89     -0.149000
     23 C17         0.3400   -0.2360   -4.0100 c1        1 F89     -0.052000
     24 C18         1.1740   -0.5000   -2.9270 c1        1 F89     -0.207000
     25 C19        -2.6210    1.5020   -2.6440 c3        1 F89     -0.046000
     26 C          -2.0330    0.7420   -4.7500 c2        1 F89      0.340000
     27 O          -2.1220    0.3880   -5.9060 o         1 F89     -0.340000
     28 N          -3.0490    1.4330   -3.9980 n         1 F89     -0.254000
     29 CA         -4.2960    1.9330   -4.5170 c3        1 F89     -0.046000
     30 CT         -5.0980    0.7940   -5.0800 c2        1 F89      0.312000
     31 O1         -5.9580    0.2330   -4.3740 o         1 F89     -0.580000
     32 O2         -4.8490    0.3560   -6.2270 o         1 F89     -0.580000
     33 CB         -4.0220    2.9320   -5.5880 c3        1 F89     -0.132000
     34 CG         -5.3150    3.7470   -5.8830 c3        1 F89     -0.207000
     35 CD         -5.2910    4.2330   -7.3450 c2        1 F89      0.324000
     36 OE1        -4.8220    5.3770   -7.6250 o         1 F89     -0.609500
     37 OE2        -5.6950    3.4690   -8.2740 o         1 F89     -0.609500
     38 HN2        -0.0840   -1.8400    6.7400 hn        1 F89      0.247000
     39 H3M1        0.7250   -1.0850    9.3720 hc        1 F89      0.104000
     40 H3M2        0.8570   -2.6970    9.3700 hc        1 F89      0.104000
     41 H3M3        2.1420   -1.7840    9.7000 hc        1 F89      0.104000
     42 H5          5.5370   -1.6930    6.6870 ha        1 F89      0.139500
     43 H6          6.3730   -1.5610    4.4750 ha        1 F89      0.139500
     44 H7          5.9520   -1.5600    2.0690 ha        1 F89      0.143500
     45 H8          4.4370   -1.3620    0.2570 ha        1 F89      0.143500
     46 H10         1.2710   -1.5460    2.8410 ha        1 F89      0.177000
     47 H111        0.9610   -1.9870    0.3160 h1        1 F89      0.092000
     48 H112        2.2880   -2.0930   -0.5930 h1        1 F89      0.092000
     49 HN12        1.9550    0.4710   -0.0500 hn        1 F89      0.172000
     50 H14        -0.6710    0.8560   -0.5550 ha        1 F89      0.126000
     51 H17         0.5850   -0.5700   -4.9240 ha        1 F89      0.142000
     52 H18         2.0330   -0.9340   -3.0700 ha        1 F89      0.113000
     53 H191       -2.5540    2.4390   -2.3640 h1        1 F89      0.133000
     54 H192       -3.2610    1.0330   -2.0710 h1        1 F89      0.133000
     55 HA         -4.8070    2.3640   -3.7870 h1        1 F89      0.077000
     56 HB1        -3.7360    2.4690   -6.4020 hc        1 F89      0.107000
     57 HB2        -3.3120    3.5420   -5.2910 hc        1 F89      0.107000
     58 HG1        -5.3580    4.5220   -5.2810 hc        1 F89      0.053500
     59 HG2        -6.1160    3.1650   -5.7360 hc        1 F89      0.053500
@<TRIPOS>BOND
     1    1    2 1   
     2    1    3 1   
     3    3   38 1   
     4    4    5 1   
     5    4    6 1   
     6    5   39 1   
     7    5   40 1   
     8    5   41 1   
     9    7    8 1   
    10    7   16 1   
    11    8   42 1   
    12    9   10 1   
    13    9   43 1   
    14   10   15 1   
    15   11   12 1   
    16   11   44 1   
    17   12   45 1   
    18   13   14 1   
    19   13   17 1   
    20   14   46 1   
    21   15   16 1   
    22   17   18 1   
    23   17   47 1   
    24   17   48 1   
    25   18   19 1   
    26   18   49 1   
    27   19   20 1   
    28   19   24 1   
    29   20   21 1   
    30   20   50 1   
    31   21   25 1   
    32   22   23 1   
    33   22   26 1   
    34   23   51 1   
    35   24   52 1   
    36   25   28 1   
    37   25   53 1   
    38   25   54 1   
    39   26   27 1   
    40   26   28 1   
    41   28   29 1   
    42   29   30 1   
    43   29   33 1   
    44   29   55 1   
    45   30   31 1   
    46   30   32 1   
    47   33   34 1   
    48   33   56 1   
    49   33   57 1   
    50   34   35 1   
    51   34   58 1   
    52   34   59 1   
    53   35   36 1   
    54   35   37 1   
@<TRIPOS>SUBSTRUCTURE
     1 F89         1 TEMP              0 ****  ****    0 ROOT
