@<TRIPOS>MOLECULE
F89
   60    64     1     0     0
SMALL
bcc


@<TRIPOS>ATOM
      1 C1          0.4510   -0.6590    1.0910 c         1 F89      0.710100
      2 O1A         1.0140   -0.5020   -0.0100 o         1 F89     -0.640500
      3 N2          1.2860   -1.0520    2.1550 n         1 F89     -0.496400
      4 C3          0.7760   -1.2640    3.4370 cc        1 F89      0.480900
      5 C3M         1.7670   -1.6840    4.4980 c3        1 F89     -0.140400
      6 N4         -0.5010   -1.1170    3.7450 nd        1 F89     -0.625100
      7 C4A        -1.3870   -0.7260    2.7360 ca        1 F89      0.193400
      8 C5         -2.7670   -0.5720    3.0930 ca        1 F89     -0.136000
      9 C6         -3.6790   -0.1930    2.1520 ca        1 F89     -0.072000
     10 C6A        -3.2920    0.0590    0.8050 ca        1 F89     -0.059000
     11 C7         -4.2630    0.4520   -0.1520 ca        1 F89     -0.110000
     12 C8         -3.9040    0.6980   -1.4550 ca        1 F89     -0.114000
     13 C9         -2.5520    0.5660   -1.8520 ca        1 F89     -0.111300
     14 C10        -1.5930    0.1870   -0.9340 ca        1 F89     -0.127000
     15 C1B        -1.9320   -0.0820    0.4190 ca        1 F89      0.014000
     16 C1A        -0.9780   -0.4830    1.4070 ca        1 F89     -0.171600
     17 C11        -2.1660    0.8090   -3.2870 c3        1 F89      0.214100
     18 N12        -2.5720    2.0710   -3.8670 nh        1 F89     -0.705600
     19 C13        -3.9150    2.1810   -4.3140 ca        1 F89      0.113600
     20 C14        -4.7160    3.2760   -3.8890 ca        1 F89     -0.180000
     21 C15        -6.0000    3.3850   -4.3760 ca        1 F89     -0.032300
     22 C16        -6.5210    2.4360   -5.2900 ca        1 F89     -0.174600
     23 C17        -5.7480    1.3780   -5.7230 ca        1 F89     -0.047000
     24 C18        -4.4420    1.2520   -5.2350 ca        1 F89     -0.186000
     25 C19        -7.0820    4.3880   -4.0660 c3        1 F89      0.087300
     26 C          -7.9470    2.8010   -5.5840 c         1 F89      0.707100
     27 O          -8.6920    2.1770   -6.3560 o         1 F89     -0.632500
     28 N          -8.2230    4.0270   -4.9320 n         1 F89     -0.406800
     29 CA         -9.5330    4.3720   -4.3990 c3        1 F89     -0.042300
     30 CT         -9.9760    3.5700   -3.1160 c         1 F89      0.905600
     31 O1         -9.0750    3.1740   -2.3270 o         1 F89     -0.826800
     32 O2        -11.2120    3.4420   -2.9120 o         1 F89     -0.826800
     33 CB        -10.6370    4.3560   -5.4570 c3        1 F89     -0.086400
     34 CG        -10.7700    5.6740   -6.1940 c3        1 F89     -0.116400
     35 CD         -9.6210    5.9530   -7.1060 c         1 F89      0.651100
     36 OE1        -8.7190    6.7920   -7.0020 o         1 F89     -0.582000
     37 OE2        -9.6080    5.2070   -8.2500 oh        1 F89     -0.607100
     38 HN2         2.2570   -1.1780    1.9780 hn        1 F89      0.331500
     39 H3M1        2.2520   -2.6460    4.2010 hc        1 F89      0.064700
     40 H3M2        1.2580   -1.8280    5.4820 hc        1 F89      0.064700
     41 H3M3        2.5510   -0.8960    4.6130 hc        1 F89      0.064700
     42 H5         -3.0730   -0.7630    4.1330 ha        1 F89      0.150000
     43 H6         -4.7420   -0.0720    2.4190 ha        1 F89      0.144000
     44 H7         -5.3120    0.5580    0.1660 ha        1 F89      0.151000
     45 H8         -4.6620    1.0030   -2.1970 ha        1 F89      0.166000
     46 H10        -0.5440    0.0910   -1.2600 ha        1 F89      0.168000
     47 H111       -1.0410    0.7720   -3.3770 h1        1 F89      0.063700
     48 H112       -2.5880   -0.0360   -3.9040 h1        1 F89      0.063700
     49 HN12       -2.3320    2.8360   -3.2620 hn        1 F89      0.378800
     50 H14        -4.3250    4.0160   -3.1760 ha        1 F89      0.132000
     51 H17        -6.1520    0.6420   -6.4340 ha        1 F89      0.144000
     52 H18        -3.8260    0.4120   -5.5870 ha        1 F89      0.127000
     53 H191       -6.7600    5.4320   -4.3240 h1        1 F89      0.091200
     54 H192       -7.3710    4.3270   -2.9750 h1        1 F89      0.091200
     55 HA         -9.4220    5.4370   -4.0260 h1        1 F89      0.042700
     56 HB1       -11.6080    4.1620   -4.9180 hc        1 F89      0.092700
     57 HB2       -10.4870    3.5220   -6.1920 hc        1 F89      0.092700
     58 HG1       -11.7070    5.6530   -6.8140 hc        1 F89      0.061200
     59 HG2       -10.8430    6.5230   -5.4640 hc        1 F89      0.061200
     60 H122       -8.7880    5.3780   -8.7380 ho        1 F89      0.429000
@<TRIPOS>BOND
     1    1    2 2   
     2    1    3 1   
     3    1   16 1   
     4    3    4 1   
     5    3   38 1   
     6    4    5 1   
     7    4    6 2   
     8    5   39 1   
     9    5   40 1   
    10    5   41 1   
    11    6    7 1   
    12    7    8 ar  
    13    7   16 ar  
    14    8    9 ar  
    15    8   42 1   
    16    9   10 ar  
    17    9   43 1   
    18   10   11 ar  
    19   10   15 ar  
    20   11   12 ar  
    21   11   44 1   
    22   12   13 ar  
    23   12   45 1   
    24   13   14 ar  
    25   13   17 1   
    26   14   15 ar  
    27   14   46 1   
    28   15   16 ar  
    29   17   18 1   
    30   17   47 1   
    31   17   48 1   
    32   18   19 1   
    33   18   49 1   
    34   19   20 ar  
    35   19   24 ar  
    36   20   21 ar  
    37   20   50 1   
    38   21   22 ar  
    39   21   25 1   
    40   22   23 ar  
    41   22   26 1   
    42   23   24 ar  
    43   23   51 1   
    44   24   52 1   
    45   25   28 1   
    46   25   53 1   
    47   25   54 1   
    48   26   27 2   
    49   26   28 1   
    50   28   29 1   
    51   29   30 1   
    52   29   33 1   
    53   29   55 1   
    54   30   31 1   
    55   30   32 1   
    56   33   34 1   
    57   33   56 1   
    58   33   57 1   
    59   34   35 1   
    60   34   58 1   
    61   34   59 1   
    62   35   36 2   
    63   35   37 1   
    64   37   60 1   
@<TRIPOS>SUBSTRUCTURE
     1 F89         1 TEMP              0 ****  ****    0 ROOT
