@<TRIPOS>MOLECULE
F89
   59    63     1     0     0
SMALL
bcc


@<TRIPOS>ATOM
      1 C1          0.3080   -0.4140    0.4190 c         1 F89      0.707100
      2 O1A        -0.0920   -0.5080   -0.7550 o         1 F89     -0.622500
      3 N2          1.6960   -0.5740    0.6110 ns        1 F89     -0.496400
      4 C3          2.2620   -0.5260    1.8850 cc        1 F89      0.483900
      5 C3M         3.7600   -0.7090    1.9660 c3        1 F89     -0.140400
      6 N4          1.5580   -0.3340    2.9870 nd        1 F89     -0.632100
      7 C4A         0.1760   -0.1540    2.8690 ca        1 F89      0.190400
      8 C5         -0.5680    0.0540    4.0770 ca        1 F89     -0.135000
      9 C6         -1.9180    0.2430    4.0240 ca        1 F89     -0.080000
     10 C6A        -2.6180    0.2490    2.7850 ca        1 F89     -0.061000
     11 C7         -4.0210    0.4590    2.7590 ca        1 F89     -0.130000
     12 C8         -4.7070    0.4790    1.5700 ca        1 F89     -0.104000
     13 C9         -4.0110    0.2960    0.3500 ca        1 F89     -0.070300
     14 C10        -2.6460    0.0880    0.3550 ca        1 F89     -0.125000
     15 C1B        -1.9100    0.0500    1.5700 ca        1 F89      0.017000
     16 C1A        -0.4970   -0.1680    1.6300 ca        1 F89     -0.166600
     17 C11        -4.7710    0.2900   -0.9470 c3        1 F89      0.213100
     18 N12        -5.7120    1.3860   -1.0650 nu        1 F89     -0.714600
     19 C13        -6.2740    1.6030   -2.3490 ca        1 F89      0.109600
     20 C14        -6.7200    2.9120   -2.6830 ca        1 F89     -0.178000
     21 C15        -7.3510    3.1050   -3.8930 ca        1 F89     -0.035300
     22 C16        -7.5450    2.0330   -4.8000 ca        1 F89     -0.168600
     23 C17        -7.1140    0.7620   -4.4860 ca        1 F89     -0.051000
     24 C18        -6.4720    0.5470   -3.2590 ca        1 F89     -0.206000
     25 C19        -7.9310    4.3510   -4.5120 c3        1 F89      0.079300
     26 C          -8.2570    2.5700   -6.0210 c         1 F89      0.704100
     27 O          -8.5770    1.8670   -6.9910 o         1 F89     -0.617500
     28 N          -8.3600    3.9620   -5.8660 n         1 F89     -0.396800
     29 CA         -9.3990    4.8040   -6.4540 c3        1 F89     -0.019300
     30 CT        -10.7640    4.6670   -5.6990 c         1 F89      0.893600
     31 O1        -11.7610    4.1550   -6.2660 o         1 F89     -0.845300
     32 O2        -10.7900    5.1130   -4.5070 o         1 F89     -0.845300
     33 CB         -9.5380    4.6660   -7.9710 c3        1 F89     -0.054400
     34 CG         -8.2950    5.1160   -8.7050 c3        1 F89     -0.178400
     35 CD         -8.5390    5.5330  -10.1600 c         1 F89      0.904600
     36 OE1        -9.4630    6.3560  -10.4340 o         1 F89     -0.874800
     37 OE2        -7.7540    5.0790  -11.0510 o         1 F89     -0.874800
     38 HN2         2.2720   -0.7260   -0.1860 hn        1 F89      0.333500
     39 H3M1        4.2690    0.1000    1.3870 hc        1 F89      0.064367
     40 H3M2        4.1090   -0.6650    3.0270 hc        1 F89      0.064367
     41 H3M3        4.0420   -1.7020    1.5370 hc        1 F89      0.064367
     42 H5         -0.0320    0.0580    5.0390 ha        1 F89      0.146000
     43 H6         -2.4960    0.4010    4.9500 ha        1 F89      0.133000
     44 H7         -4.5490    0.6080    3.7130 ha        1 F89      0.130000
     45 H8         -5.7970    0.6390    1.5490 ha        1 F89      0.160000
     46 H10        -2.1200   -0.0480   -0.6060 ha        1 F89      0.177000
     47 H111       -5.3670   -0.6700   -0.9880 h1        1 F89      0.051700
     48 H112       -4.0400    0.2640   -1.8090 h1        1 F89      0.051700
     49 HN12       -5.3400    2.2350   -0.6810 hn        1 F89      0.376800
     50 H14        -6.5790    3.7500   -1.9870 ha        1 F89      0.126000
     51 H17        -7.2690   -0.0700   -5.1880 ha        1 F89      0.142000
     52 H18        -6.1320   -0.4700   -3.0180 ha        1 F89      0.113000
     53 H191       -8.8120    4.7390   -3.9140 h1        1 F89      0.094200
     54 H192       -7.1540    5.1570   -4.6000 h1        1 F89      0.094200
     55 HA         -9.0490    5.8630   -6.2440 h1        1 F89      0.037700
     56 HB1        -9.7880    3.6070   -8.2360 hc        1 F89      0.067700
     57 HB2       -10.4100    5.3050   -8.2760 hc        1 F89      0.067700
     58 HG1        -7.8500    6.0070   -8.1880 hc        1 F89      0.013700
     59 HG2        -7.5290    4.3000   -8.6880 hc        1 F89      0.013700
@<TRIPOS>BOND
     1    1    2 2   
     2    1    3 1   
     3    1   16 1   
     4    3    4 1   
     5    3   38 1   
     6    4    5 1   
     7    4    6 2   
     8    5   39 1   
     9    5   40 1   
    10    5   41 1   
    11    6    7 1   
    12    7    8 ar  
    13    7   16 ar  
    14    8    9 ar  
    15    8   42 1   
    16    9   10 ar  
    17    9   43 1   
    18   10   11 ar  
    19   10   15 ar  
    20   11   12 ar  
    21   11   44 1   
    22   12   13 ar  
    23   12   45 1   
    24   13   14 ar  
    25   13   17 1   
    26   14   15 ar  
    27   14   46 1   
    28   15   16 ar  
    29   17   18 1   
    30   17   47 1   
    31   17   48 1   
    32   18   19 1   
    33   18   49 1   
    34   19   20 ar  
    35   19   24 ar  
    36   20   21 ar  
    37   20   50 1   
    38   21   22 ar  
    39   21   25 1   
    40   22   23 ar  
    41   22   26 1   
    42   23   24 ar  
    43   23   51 1   
    44   24   52 1   
    45   25   28 1   
    46   25   53 1   
    47   25   54 1   
    48   26   27 2   
    49   26   28 1   
    50   28   29 1   
    51   29   30 1   
    52   29   33 1   
    53   29   55 1   
    54   30   31 1   
    55   30   32 1   
    56   33   34 1   
    57   33   56 1   
    58   33   57 1   
    59   34   35 1   
    60   34   58 1   
    61   34   59 1   
    62   35   36 1   
    63   35   37 1   
@<TRIPOS>SUBSTRUCTURE
     1 F89         1 TEMP              0 ****  ****    0 ROOT
