@<TRIPOS>MOLECULE
F89
   59    63     1     0     0
SMALL
bcc


@<TRIPOS>ATOM
      1 C1          1.6460   -0.6130    6.3520 c         1 F89      0.707100
      2 O1A         2.0870   -1.1570    5.3240 o         1 F89     -0.622500
      3 N2          2.5260   -0.5720    7.4530 n         1 F89     -0.496400
      4 C3          2.1350   -0.0200    8.6730 cc        1 F89      0.483900
      5 C3M         3.1640   -0.0310    9.7790 c3        1 F89     -0.140400
      6 N4          0.9360    0.4930    8.8890 nd        1 F89     -0.632100
      7 C4A         0.0170    0.4980    7.8350 ca        1 F89      0.190400
      8 C5         -1.2780    1.0600    8.0910 ca        1 F89     -0.135000
      9 C6         -2.2140    1.1000    7.0990 ca        1 F89     -0.080000
     10 C6A        -1.9360    0.5990    5.7970 ca        1 F89     -0.061000
     11 C7         -2.9250    0.6630    4.7820 ca        1 F89     -0.130000
     12 C8         -2.6670    0.1940    3.5170 ca        1 F89     -0.104000
     13 C9         -1.3960   -0.3540    3.2140 ca        1 F89     -0.070300
     14 C10        -0.4210   -0.4270    4.1890 ca        1 F89     -0.125000
     15 C1B        -0.6630    0.0380    5.5090 ca        1 F89      0.017000
     16 C1A         0.3110   -0.0190    6.5570 ca        1 F89     -0.166600
     17 C11        -1.1280   -0.8930    1.8370 c3        1 F89      0.213100
     18 N12        -1.5560    0.0010    0.7790 nh        1 F89     -0.714600
     19 C13        -1.1100   -0.3090   -0.5320 ca        1 F89      0.109600
     20 C14        -0.9930    0.7480   -1.4770 ca        1 F89     -0.178000
     21 C15        -0.6510    0.4380   -2.7760 ca        1 F89     -0.035300
     22 C16        -0.4020   -0.9020   -3.1700 ca        1 F89     -0.169600
     23 C17        -0.5090   -1.9310   -2.2600 ca        1 F89     -0.051000
     24 C18        -0.8590   -1.6340   -0.9350 ca        1 F89     -0.206000
     25 C19        -0.4620    1.3210   -3.9810 c3        1 F89      0.079300
     26 C          -0.0510   -0.9040   -4.6400 c         1 F89      0.704100
     27 O           0.2100   -1.9340   -5.2790 o         1 F89     -0.617500
     28 N           0.0210    0.4350   -5.0550 n         1 F89     -0.396800
     29 CA         -0.2250    0.9150   -6.4120 c3        1 F89     -0.019300
     30 CT         -1.7520    0.9380   -6.7610 c         1 F89      0.893600
     31 O1         -2.2200    0.1700   -7.6380 o         1 F89     -0.845300
     32 O2         -2.4590    1.7780   -6.1180 o         1 F89     -0.845300
     33 CB          0.6230    0.2300   -7.4850 c3        1 F89     -0.054400
     34 CG          2.1010    0.4950   -7.3060 c3        1 F89     -0.178400
     35 CD          2.9290    0.3380   -8.5860 c         1 F89      0.904600
     36 OE1         2.5640    0.9210   -9.6500 o         1 F89     -0.874800
     37 OE2         4.0070   -0.3330   -8.5210 o         1 F89     -0.874800
     38 HN2         3.4400   -0.9500    7.3450 hn        1 F89      0.333500
     39 H3M1        2.7500    0.4220   10.7130 hc        1 F89      0.064367
     40 H3M2        3.4720   -1.0830    9.9980 hc        1 F89      0.064367
     41 H3M3        4.0610    0.5570    9.4640 hc        1 F89      0.064367
     42 H5         -1.4970    1.4570    9.0940 ha        1 F89      0.146000
     43 H6         -3.2110    1.5290    7.2910 ha        1 F89      0.133000
     44 H7         -3.9050    1.0980    5.0280 ha        1 F89      0.130000
     45 H8         -3.4350    0.2400    2.7290 ha        1 F89      0.160000
     46 H10         0.5640   -0.8530    3.9320 ha        1 F89      0.177000
     47 H111       -0.0340   -1.1620    1.7460 h1        1 F89      0.051700
     48 H112       -1.7170   -1.8520    1.7240 h1        1 F89      0.051700
     49 HN12       -1.3750    0.9600    1.0090 hn        1 F89      0.376800
     50 H14        -1.1870    1.7890   -1.1850 ha        1 F89      0.126000
     51 H17        -0.3210   -2.9710   -2.5670 ha        1 F89      0.142000
     52 H18        -0.9420   -2.4620   -0.2180 ha        1 F89      0.113000
     53 H191       -1.4340    1.8190   -4.2860 h1        1 F89      0.094200
     54 H192        0.3160    2.1080   -3.7880 h1        1 F89      0.094200
     55 HA          0.0890    2.0060   -6.3830 h1        1 F89      0.037700
     56 HB1         0.4190   -0.8720   -7.4870 hc        1 F89      0.067700
     57 HB2         0.2840    0.6360   -8.4760 hc        1 F89      0.067700
     58 HG1         2.2570    1.5480   -6.9510 hc        1 F89      0.013700
     59 HG2         2.5150   -0.1900   -6.5220 hc        1 F89      0.013700
@<TRIPOS>BOND
     1    1    2 2   
     2    1    3 1   
     3    1   16 1   
     4    3    4 1   
     5    3   38 1   
     6    4    5 1   
     7    4    6 2   
     8    5   39 1   
     9    5   40 1   
    10    5   41 1   
    11    6    7 1   
    12    7    8 ar  
    13    7   16 ar  
    14    8    9 ar  
    15    8   42 1   
    16    9   10 ar  
    17    9   43 1   
    18   10   11 ar  
    19   10   15 ar  
    20   11   12 ar  
    21   11   44 1   
    22   12   13 ar  
    23   12   45 1   
    24   13   14 ar  
    25   13   17 1   
    26   14   15 ar  
    27   14   46 1   
    28   15   16 ar  
    29   17   18 1   
    30   17   47 1   
    31   17   48 1   
    32   18   19 1   
    33   18   49 1   
    34   19   20 ar  
    35   19   24 ar  
    36   20   21 ar  
    37   20   50 1   
    38   21   22 ar  
    39   21   25 1   
    40   22   23 ar  
    41   22   26 1   
    42   23   24 ar  
    43   23   51 1   
    44   24   52 1   
    45   25   28 1   
    46   25   53 1   
    47   25   54 1   
    48   26   27 2   
    49   26   28 1   
    50   28   29 1   
    51   29   30 1   
    52   29   33 1   
    53   29   55 1   
    54   30   31 1   
    55   30   32 1   
    56   33   34 1   
    57   33   56 1   
    58   33   57 1   
    59   34   35 1   
    60   34   58 1   
    61   34   59 1   
    62   35   36 1   
    63   35   37 1   
@<TRIPOS>SUBSTRUCTURE
     1 F89         1 TEMP              0 ****  ****    0 ROOT
