@<TRIPOS>MOLECULE
F8A
   44    47     1     0     0
SMALL
bcc


@<TRIPOS>ATOM
      1 F27         4.5850   -1.6050    1.6190 f         1 F8A     -0.247633
      2 C24         3.2740   -1.2410    1.4000 c3        1 F8A      0.687200
      3 F25         2.5850   -2.0000    2.3140 f         1 F8A     -0.247633
      4 F26         3.2230    0.0310    1.9230 f         1 F8A     -0.247633
      5 C19         2.8040   -1.3710   -0.0440 ca        1 F8A     -0.171300
      6 C20         3.7530   -1.7740   -0.9950 ca        1 F8A     -0.111000
      7 C21         3.3830   -1.9630   -2.3210 ca        1 F8A     -0.150000
      8 C22         2.0530   -1.7760   -2.7020 ca        1 F8A     -0.102000
      9 C23         1.1080   -1.3760   -1.7630 ca        1 F8A     -0.095000
     10 C18         1.4760   -1.1410   -0.4280 ca        1 F8A     -0.033300
     11 C17         0.4030   -0.7140    0.5420 c3        1 F8A      0.047600
     12 N9         -0.3530    0.4390    0.1440 na        1 F8A     -0.052400
     13 C8          0.0190    1.7640    0.4220 cc        1 F8A     -0.063300
     14 C16         1.3040    2.2000    1.0160 c3        1 F8A     -0.017200
     15 C15         1.4780    3.7020    0.8580 c3        1 F8A     -0.066400
     16 C14         0.2100    4.4710    1.1710 c3        1 F8A     -0.074400
     17 C13        -0.9240    4.0980    0.2280 c3        1 F8A      0.007800
     18 C7         -1.0110    2.6410    0.0680 cd        1 F8A     -0.163400
     19 C1         -1.6530    0.4630   -0.4020 ca        1 F8A     -0.018200
     20 C6         -2.0900    1.8440   -0.4580 ca        1 F8A     -0.088800
     21 C5         -3.3530    2.1610   -0.9590 ca        1 F8A     -0.126000
     22 C4         -4.1690    1.1340   -1.4050 ca        1 F8A     -0.161000
     23 C3         -3.7360   -0.2010   -1.3680 ca        1 F8A     -0.118000
     24 C2         -2.4890   -0.5670   -0.8760 ca        1 F8A     -0.109600
     25 C10        -2.0890   -2.0300   -0.9050 c         1 F8A      0.903200
     26 O12        -2.0450   -2.6670    0.1860 o         1 F8A     -0.824800
     27 O11        -1.8090   -2.5370   -2.0280 o         1 F8A     -0.824800
     28 H20         4.7950   -1.9480   -0.6860 ha        1 F8A      0.134000
     29 H21         4.1340   -2.2750   -3.0600 ha        1 F8A      0.123000
     30 H22         1.7430   -1.9600   -3.7410 ha        1 F8A      0.139000
     31 H23         0.0380   -1.2930   -2.0550 ha        1 F8A      0.210000
     32 H17        -0.3140   -1.5930    0.6700 h1        1 F8A      0.106200
     33 H17A        0.8700   -0.4880    1.5450 h1        1 F8A      0.106200
     34 H16         1.3240    1.9210    2.1050 hc        1 F8A      0.053200
     35 H16A        2.1660    1.6700    0.5280 hc        1 F8A      0.053200
     36 H15         2.3020    4.0440    1.5370 hc        1 F8A      0.033700
     37 H15A        1.7920    3.9270   -0.1950 hc        1 F8A      0.033700
     38 H14        -0.1010    4.2550    2.2270 hc        1 F8A      0.031200
     39 H14A        0.4110    5.5710    1.0950 hc        1 F8A      0.031200
     40 H13        -1.8940    4.5030    0.6240 hc        1 F8A      0.034700
     41 H13A       -0.7510    4.5780   -0.7740 hc        1 F8A      0.034700
     42 H5         -3.6820    3.2080   -0.9930 ha        1 F8A      0.109000
     43 H4         -5.1690    1.3620   -1.8010 ha        1 F8A      0.105000
     44 H3         -4.3980   -0.9940   -1.7500 ha        1 F8A      0.132000
@<TRIPOS>BOND
     1    1    2 1   
     2    2    3 1   
     3    2    4 1   
     4    2    5 1   
     5    5    6 ar  
     6    5   10 ar  
     7    6    7 ar  
     8    6   28 1   
     9    7    8 ar  
    10    7   29 1   
    11    8    9 ar  
    12    8   30 1   
    13    9   10 ar  
    14    9   31 1   
    15   10   11 1   
    16   11   12 1   
    17   11   32 1   
    18   11   33 1   
    19   12   13 1   
    20   12   19 1   
    21   13   14 1   
    22   13   18 2   
    23   14   15 1   
    24   14   34 1   
    25   14   35 1   
    26   15   16 1   
    27   15   36 1   
    28   15   37 1   
    29   16   17 1   
    30   16   38 1   
    31   16   39 1   
    32   17   18 1   
    33   17   40 1   
    34   17   41 1   
    35   18   20 1   
    36   19   20 ar  
    37   19   24 ar  
    38   20   21 ar  
    39   21   22 ar  
    40   21   42 1   
    41   22   23 ar  
    42   22   43 1   
    43   23   24 ar  
    44   23   44 1   
    45   24   25 1   
    46   25   26 1   
    47   25   27 1   
@<TRIPOS>SUBSTRUCTURE
     1 F8A         1 TEMP              0 ****  ****    0 ROOT
