@<TRIPOS>MOLECULE
F8A
   44    47     1     0     0
SMALL
bcc


@<TRIPOS>ATOM
      1 F27        -0.5480    2.3010   -0.1120 f         1 F8A     -0.247633
      2 C24         0.4360    1.3470   -0.2620 c3        1 F8A      0.687200
      3 F25         0.2440    0.5320    0.8270 f         1 F8A     -0.247633
      4 F26        -0.0300    0.5980   -1.3190 f         1 F8A     -0.247633
      5 C19         1.8470    1.9000   -0.4250 ca        1 F8A     -0.171300
      6 C20         1.9890    3.2930   -0.4740 ca        1 F8A     -0.111000
      7 C21         3.2500    3.8680   -0.5700 ca        1 F8A     -0.150000
      8 C22         4.3830    3.0520   -0.5910 ca        1 F8A     -0.102000
      9 C23         4.2480    1.6690   -0.5430 ca        1 F8A     -0.095000
     10 C18         2.9770    1.0730   -0.4870 ca        1 F8A     -0.033300
     11 C17         2.8970   -0.4330   -0.4320 c3        1 F8A      0.047600
     12 N9          3.5980   -1.1170   -1.4820 na        1 F8A     -0.052400
     13 C8          3.0420   -1.4230   -2.7340 cc        1 F8A     -0.063300
     14 C16         1.7280   -0.9640   -3.2390 c3        1 F8A     -0.017200
     15 C15         1.6170   -1.2130   -4.7340 c3        1 F8A     -0.066400
     16 C14         2.1370   -2.5790   -5.1360 c3        1 F8A     -0.074400
     17 C13         3.6140   -2.7390   -4.8120 c3        1 F8A      0.007800
     18 C7          3.9070   -2.2510   -3.4590 cd        1 F8A     -0.163400
     19 C1          4.8480   -1.7610   -1.3970 ca        1 F8A     -0.018200
     20 C6          5.0650   -2.4850   -2.6350 ca        1 F8A     -0.088800
     21 C5          6.2350   -3.2210   -2.8220 ca        1 F8A     -0.126000
     22 C4          7.1820   -3.2360   -1.8100 ca        1 F8A     -0.161000
     23 C3          6.9790   -2.5180   -0.6200 ca        1 F8A     -0.118000
     24 C2          5.8290   -1.7740   -0.3860 ca        1 F8A     -0.109600
     25 C10         5.7080   -1.0010    0.9150 c         1 F8A      0.903200
     26 O12         4.9000   -1.4170    1.7930 o         1 F8A     -0.824800
     27 O11         6.4210    0.0340    1.0470 o         1 F8A     -0.824800
     28 H20         1.0960    3.9360   -0.4290 ha        1 F8A      0.134000
     29 H21         3.3530    4.9620   -0.6120 ha        1 F8A      0.123000
     30 H22         5.3880    3.4990   -0.6290 ha        1 F8A      0.139000
     31 H23         5.1520    1.0250   -0.4920 ha        1 F8A      0.210000
     32 H17         3.3320   -0.7630    0.5700 h1        1 F8A      0.106200
     33 H17A        1.8160   -0.7550   -0.4740 h1        1 F8A      0.106200
     34 H16         1.5840    0.1310   -3.0300 hc        1 F8A      0.053200
     35 H16A        0.9080   -1.5090   -2.6950 hc        1 F8A      0.053200
     36 H15         2.1980   -0.4250   -5.2820 hc        1 F8A      0.033700
     37 H15A        0.5420   -1.1150   -5.0390 hc        1 F8A      0.033700
     38 H14         1.9780   -2.7300   -6.2360 hc        1 F8A      0.031200
     39 H14A        1.5520   -3.3690   -4.5980 hc        1 F8A      0.031200
     40 H13         4.2270   -2.1660   -5.5600 hc        1 F8A      0.034700
     41 H13A        3.9060   -3.8200   -4.9050 hc        1 F8A      0.034700
     42 H5          6.3910   -3.7730   -3.7580 ha        1 F8A      0.109000
     43 H4          8.1100   -3.8120   -1.9370 ha        1 F8A      0.105000
     44 H3          7.7580   -2.5310    0.1570 ha        1 F8A      0.132000
@<TRIPOS>BOND
     1    1    2 1   
     2    2    3 1   
     3    2    4 1   
     4    2    5 1   
     5    5    6 ar  
     6    5   10 ar  
     7    6    7 ar  
     8    6   28 1   
     9    7    8 ar  
    10    7   29 1   
    11    8    9 ar  
    12    8   30 1   
    13    9   10 ar  
    14    9   31 1   
    15   10   11 1   
    16   11   12 1   
    17   11   32 1   
    18   11   33 1   
    19   12   13 1   
    20   12   19 1   
    21   13   14 1   
    22   13   18 2   
    23   14   15 1   
    24   14   34 1   
    25   14   35 1   
    26   15   16 1   
    27   15   36 1   
    28   15   37 1   
    29   16   17 1   
    30   16   38 1   
    31   16   39 1   
    32   17   18 1   
    33   17   40 1   
    34   17   41 1   
    35   18   20 1   
    36   19   20 ar  
    37   19   24 ar  
    38   20   21 ar  
    39   21   22 ar  
    40   21   42 1   
    41   22   23 ar  
    42   22   43 1   
    43   23   24 ar  
    44   23   44 1   
    45   24   25 1   
    46   25   26 1   
    47   25   27 1   
@<TRIPOS>SUBSTRUCTURE
     1 F8A         1 TEMP              0 ****  ****    0 ROOT
