@<TRIPOS>MOLECULE
F8A
   44    47     1     0     0
SMALL
bcc


@<TRIPOS>ATOM
      1 F27        -0.6330    2.3130   -0.3520 f         1 F8A     -0.247633
      2 C24         0.3540    1.3560   -0.4460 c3        1 F8A      0.687200
      3 F25         0.0930    0.5380    0.6280 f         1 F8A     -0.247633
      4 F26        -0.0500    0.6120   -1.5310 f         1 F8A     -0.247633
      5 C19         1.7750    1.9030   -0.5200 ca        1 F8A     -0.171300
      6 C20         1.9250    3.2960   -0.5570 ca        1 F8A     -0.111000
      7 C21         3.1930    3.8650   -0.5740 ca        1 F8A     -0.150000
      8 C22         4.3210    3.0440   -0.5290 ca        1 F8A     -0.102000
      9 C23         4.1780    1.6610   -0.4940 ca        1 F8A     -0.095000
     10 C18         2.9030    1.0710   -0.5170 ca        1 F8A     -0.033300
     11 C17         2.8140   -0.4350   -0.4720 c3        1 F8A      0.047600
     12 N9          3.5730   -1.1190   -1.4790 na        1 F8A     -0.052400
     13 C8          3.0930   -1.4190   -2.7640 cc        1 F8A     -0.063300
     14 C16         1.8140   -0.9520   -3.3450 c3        1 F8A     -0.017200
     15 C15         1.7930   -1.1970   -4.8460 c3        1 F8A     -0.066400
     16 C14         2.3300   -2.5640   -5.2200 c3        1 F8A     -0.074400
     17 C13         3.7850   -2.7320   -4.8070 c3        1 F8A      0.007800
     18 C7          3.9970   -2.2480   -3.4370 cd        1 F8A     -0.163400
     19 C1          4.8140   -1.7690   -1.3200 ca        1 F8A     -0.018200
     20 C6          5.1020   -2.4900   -2.5450 ca        1 F8A     -0.088800
     21 C5          6.2780   -3.2310   -2.6630 ca        1 F8A     -0.126000
     22 C4          7.1620   -3.2540   -1.5960 ca        1 F8A     -0.161000
     23 C3          6.8900   -2.5380   -0.4180 ca        1 F8A     -0.118000
     24 C2          5.7310   -1.7890   -0.2520 ca        1 F8A     -0.109600
     25 C10         5.5350   -1.0190    1.0420 c         1 F8A      0.903200
     26 O12         4.6730   -1.4350    1.8680 o         1 F8A     -0.824800
     27 O11         6.2430    0.0120    1.2200 o         1 F8A     -0.824800
     28 H20         1.0340    3.9420   -0.5640 ha        1 F8A      0.134000
     29 H21         3.3030    4.9580   -0.6060 ha        1 F8A      0.123000
     30 H22         5.3290    3.4860   -0.5040 ha        1 F8A      0.139000
     31 H23         5.0750    1.0130   -0.3900 ha        1 F8A      0.210000
     32 H17         3.1850   -0.7690    0.5540 h1        1 F8A      0.106200
     33 H17A        1.7350   -0.7510   -0.5800 h1        1 F8A      0.106200
     34 H16         1.6630    0.1420   -3.1420 hc        1 F8A      0.053200
     35 H16A        0.9610   -1.4960   -2.8540 hc        1 F8A      0.053200
     36 H15         0.7400   -1.0930   -5.2150 hc        1 F8A      0.033700
     37 H15A        2.4090   -0.4100   -5.3550 hc        1 F8A      0.033700
     38 H14         1.7100   -3.3530   -4.7200 hc        1 F8A      0.031200
     39 H14A        2.2380   -2.7110   -6.3270 hc        1 F8A      0.031200
     40 H13         4.0770   -3.8130   -4.8860 hc        1 F8A      0.034700
     41 H13A        4.4440   -2.1590   -5.5150 hc        1 F8A      0.034700
     42 H5          6.4880   -3.7810   -3.5890 ha        1 F8A      0.109000
     43 H4          8.0930   -3.8330   -1.6680 ha        1 F8A      0.105000
     44 H3          7.6210   -2.5570    0.4050 ha        1 F8A      0.132000
@<TRIPOS>BOND
     1    1    2 1   
     2    2    3 1   
     3    2    4 1   
     4    2    5 1   
     5    5    6 ar  
     6    5   10 ar  
     7    6    7 ar  
     8    6   28 1   
     9    7    8 ar  
    10    7   29 1   
    11    8    9 ar  
    12    8   30 1   
    13    9   10 ar  
    14    9   31 1   
    15   10   11 1   
    16   11   12 1   
    17   11   32 1   
    18   11   33 1   
    19   12   13 1   
    20   12   19 1   
    21   13   14 1   
    22   13   18 2   
    23   14   15 1   
    24   14   34 1   
    25   14   35 1   
    26   15   16 1   
    27   15   36 1   
    28   15   37 1   
    29   16   17 1   
    30   16   38 1   
    31   16   39 1   
    32   17   18 1   
    33   17   40 1   
    34   17   41 1   
    35   18   20 1   
    36   19   20 ar  
    37   19   24 ar  
    38   20   21 ar  
    39   21   22 ar  
    40   21   42 1   
    41   22   23 ar  
    42   22   43 1   
    43   23   24 ar  
    44   23   44 1   
    45   24   25 1   
    46   25   26 1   
    47   25   27 1   
@<TRIPOS>SUBSTRUCTURE
     1 F8A         1 TEMP              0 ****  ****    0 ROOT
