@<TRIPOS>MOLECULE
F8A
   44    41     1     0     0
SMALL
bcc


@<TRIPOS>ATOM
      1 F27         1.8530    4.6440    0.4910 f         1 F8A     -0.176667
      2 C24         1.4800    3.3450    0.7470 c3        1 F8A      0.466000
      3 F25         2.1160    2.5350   -0.0750 f         1 F8A     -0.176667
      4 F26         1.7910    3.0350    2.0020 f         1 F8A     -0.176667
      5 C19        -0.0890    3.1900    0.5330 c2        1 F8A     -0.162000
      6 C20        -0.8450    4.2770    0.1070 c1        1 F8A     -0.111000
      7 C21        -2.2390    4.1550   -0.0200 c1        1 F8A     -0.132000
      8 C22        -2.8650    2.9320    0.2860 c1        1 F8A     -0.132000
      9 C23        -2.1020    1.8480    0.7120 c1        1 F8A     -0.095000
     10 C18        -0.7210    1.9710    0.8370 c2        1 F8A     -0.028000
     11 C17         0.1120    0.7920    1.4150 c3        1 F8A     -0.019000
     12 N9          0.1620   -0.2680    0.4550 n3        1 F8A     -0.142000
     13 C8         -0.1340   -0.5570   -0.8430 c1        1 F8A     -0.032000
     14 C16        -0.9580    0.1930   -2.0000 c2        1 F8A     -0.100000
     15 C15        -0.9760   -0.4310   -3.2610 c3        1 F8A     -0.146000
     16 C14        -1.0050   -1.8570   -3.2800 c3        1 F8A     -0.153000
     17 C13         0.0030   -2.5390   -2.5120 c3        1 F8A     -0.075000
     18 C7          0.4030   -1.8790   -1.1400 c2        1 F8A     -0.172000
     19 C1          0.8890   -1.3890    1.0130 c1        1 F8A      0.027000
     20 C6          1.0230   -2.3600    0.0190 c1        1 F8A     -0.078000
     21 C5          1.7110   -3.5450    0.2920 c1        1 F8A     -0.126000
     22 C4          2.2600   -3.7560    1.5550 c1        1 F8A     -0.132000
     23 C3          2.1240   -2.7790    2.5500 c1        1 F8A     -0.132000
     24 C2          1.4400   -1.6010    2.2760 c1        1 F8A     -0.093000
     25 C10         1.1410   -1.5000    3.7510 c2        1 F8A      0.351000
     26 O12         0.0890   -2.0500    4.2280 o         1 F8A     -0.559500
     27 O11         1.9450   -0.9010    4.5150 o         1 F8A     -0.559500
     28 H20        -0.4170    5.1010   -0.1010 ha        1 F8A      0.134000
     29 H21        -2.7700    4.9130   -0.3090 ha        1 F8A      0.125000
     30 H22        -3.8510    2.8170    0.1270 ha        1 F8A      0.125000
     31 H23        -2.5350    0.9870    0.8960 ha        1 F8A      0.207000
     32 H17        -0.2880    0.4860    2.1980 h1        1 F8A      0.146500
     33 H17A        1.0560    1.1090    1.6190 h1        1 F8A      0.146500
     34 H16        -0.5850    1.0520   -2.1090 ha        1 F8A      0.092500
     35 H16A       -1.9110    0.3000   -1.6900 ha        1 F8A      0.092500
     36 H15        -1.7840   -0.1030   -3.7510 hc        1 F8A      0.073000
     37 H15A       -0.1950   -0.1460   -3.7420 hc        1 F8A      0.073000
     38 H14        -0.9150   -2.1550   -4.2470 hc        1 F8A      0.070500
     39 H14A       -1.8900   -2.1500   -2.9500 hc        1 F8A      0.070500
     40 H13         0.8000   -2.6050   -3.0530 hc        1 F8A      0.074000
     41 H13A       -0.2990   -3.3880   -2.3400 hc        1 F8A      0.074000
     42 H5          1.8040   -4.2280   -0.4050 ha        1 F8A      0.109000
     43 H4          2.7020   -4.5480    1.7420 ha        1 F8A      0.125000
     44 H3          2.4710   -2.9490    3.4630 ha        1 F8A      0.125000
@<TRIPOS>BOND
     1    1    2 1   
     2    2    3 1   
     3    2    4 1   
     4    2    5 1   
     5    5    6 1   
     6    5   10 1   
     7    6   28 1   
     8    7    8 1   
     9    7   29 1   
    10    8   30 1   
    11    9   10 1   
    12    9   31 1   
    13   10   11 1   
    14   11   12 1   
    15   11   32 1   
    16   11   33 1   
    17   12   13 1   
    18   12   19 1   
    19   13   18 1   
    20   14   15 1   
    21   14   34 1   
    22   14   35 1   
    23   15   16 1   
    24   15   36 1   
    25   15   37 1   
    26   16   17 1   
    27   16   38 1   
    28   16   39 1   
    29   17   18 1   
    30   17   40 1   
    31   17   41 1   
    32   18   20 1   
    33   19   24 1   
    34   20   21 1   
    35   21   42 1   
    36   22   23 1   
    37   22   43 1   
    38   23   44 1   
    39   24   25 1   
    40   25   26 1   
    41   25   27 1   
@<TRIPOS>SUBSTRUCTURE
     1 F8A         1 TEMP              0 ****  ****    0 ROOT
