@<TRIPOS>MOLECULE
F8E
   32    34     1     0     0
SMALL
bcc


@<TRIPOS>ATOM
      1 BR          4.1650   -0.6680   -0.2540 br        1 F8E     -0.065100
      2 C1          2.9780    3.7090    0.0410 c3        1 F8E      0.123700
      3 O2          2.3590    2.4540   -0.2450 os        1 F8E     -0.419900
      4 C3          2.2060    1.5950    0.8090 c         1 F8E      0.642700
      5 O4          2.5770    1.9640    1.9240 o         1 F8E     -0.519000
      6 C5          1.5590    0.3170    0.4340 ca        1 F8E     -0.062600
      7 C6          0.1760    0.2210    0.5970 ca        1 F8E     -0.086000
      8 C7         -0.4920   -0.9790    0.2760 ca        1 F8E      0.159600
      9 C8          0.2720   -2.0720   -0.1970 ca        1 F8E     -0.162000
     10 C9          1.6490   -1.9610   -0.3430 ca        1 F8E     -0.088000
     11 C10         2.3090   -0.7680   -0.0360 ca        1 F8E     -0.013900
     12 N12        -1.8720   -1.1460    0.4910 nh        1 F8E     -0.728300
     13 C13        -2.8540   -0.2330    0.0910 ca        1 F8E      0.724200
     14 C14        -4.2230   -0.6280    0.2090 ca        1 F8E     -0.367400
     15 C15        -4.9340   -1.8040    0.6310 cc        1 F8E     -0.158200
     16 C16        -6.2930   -1.5250    0.5050 cd        1 F8E     -0.114100
     17 N17        -6.4810   -0.2250    0.0220 na        1 F8E     -0.278100
     18 C19        -5.2260    0.3570   -0.1690 ca        1 F8E      0.465800
     19 N20        -4.9160    1.6130   -0.6280 nb        1 F8E     -0.722000
     20 C21        -3.5890    1.8380   -0.6880 ca        1 F8E      0.676900
     21 N22        -2.5460    1.0140   -0.3700 nb        1 F8E     -0.771000
     22 HN17       -7.3470    0.2160   -0.1490 hn        1 F8E      0.314700
     23 H1          3.0000    4.2220   -0.9520 h1        1 F8E      0.053033
     24 H1A         2.3640    4.2760    0.7820 h1        1 F8E      0.053033
     25 H1B         4.0070    3.5450    0.4410 h1        1 F8E      0.053033
     26 H6         -0.3780    1.0930    0.9820 ha        1 F8E      0.174000
     27 H8         -0.2150   -3.0260   -0.4520 ha        1 F8E      0.139000
     28 H9          2.2200   -2.8290   -0.7120 ha        1 F8E      0.152000
     29 HN12       -2.1880   -2.0930    0.5220 hn        1 F8E      0.438800
     30 H15        -4.4940   -2.7310    0.9880 ha        1 F8E      0.156000
     31 H16        -7.1550   -2.1580    0.7260 h4        1 F8E      0.173000
     32 H21        -3.2860    2.8420   -1.0560 h5        1 F8E      0.056100
@<TRIPOS>BOND
     1    1   11 1   
     2    2    3 1   
     3    2   23 1   
     4    2   24 1   
     5    2   25 1   
     6    3    4 1   
     7    4    5 2   
     8    4    6 1   
     9    6    7 ar  
    10    6   11 ar  
    11    7    8 ar  
    12    7   26 1   
    13    8    9 ar  
    14    8   12 1   
    15    9   10 ar  
    16    9   27 1   
    17   10   11 ar  
    18   10   28 1   
    19   12   13 1   
    20   12   29 1   
    21   13   14 ar  
    22   13   21 ar  
    23   14   15 1   
    24   14   18 ar  
    25   15   16 2   
    26   15   30 1   
    27   16   17 1   
    28   16   31 1   
    29   17   18 1   
    30   17   22 1   
    31   18   19 ar  
    32   19   20 ar  
    33   20   21 ar  
    34   20   32 1   
@<TRIPOS>SUBSTRUCTURE
     1 F8E         1 TEMP              0 ****  ****    0 ROOT
