@<TRIPOS>MOLECULE
F8E
   33    35     1     0     0
SMALL
bcc


@<TRIPOS>ATOM
      1 BR          0.8050    1.1080   -1.0980 br        1 F8E      0.017900
      2 C1          3.5550   -1.2080   -3.6670 c3        1 F8E      0.121700
      3 O2          3.5920   -0.4560   -2.4450 os        1 F8E     -0.415900
      4 C3          3.1180   -1.0840   -1.3340 c         1 F8E      0.627700
      5 O4          2.7640   -2.2600   -1.3980 o         1 F8E     -0.491000
      6 C5          3.1430   -0.2300   -0.1190 ca        1 F8E     -0.063600
      7 C6          4.1500   -0.4820    0.8160 ca        1 F8E     -0.068000
      8 C7          4.1960    0.2760    1.9960 ca        1 F8E     -0.047400
      9 C8          3.2550    1.2940    2.2310 ca        1 F8E     -0.069000
     10 C9          2.2590    1.5260    1.2880 ca        1 F8E     -0.093000
     11 C10         2.1860    0.7690    0.1100 ca        1 F8E      0.047100
     12 N12         5.2320   -0.0060    2.9980 n4        1 F8E     -0.613100
     13 C13         6.3570    0.9620    2.9420 ca        1 F8E      0.530200
     14 C14         7.5980    0.5380    2.4390 ca        1 F8E     -0.291400
     15 C15         8.1930   -0.6530    1.9070 cc        1 F8E     -0.212200
     16 C16         9.5210   -0.3440    1.6020 cd        1 F8E     -0.020100
     17 N17         9.8060    0.9860    1.9120 na        1 F8E     -0.260100
     18 C19         8.6520    1.5750    2.4330 ca        1 F8E      0.469800
     19 N20         8.4490    2.8460    2.8740 nb        1 F8E     -0.629000
     20 C21         7.1960    3.0850    3.3260 ca        1 F8E      0.669900
     21 N22         6.1370    2.2220    3.3870 nb        1 F8E     -0.693000
     22 HN17       10.6760    1.4470    1.7910 hn        1 F8E      0.343700
     23 H1          2.5040   -1.5050   -3.8970 h1        1 F8E      0.065700
     24 H1A         4.2020   -2.1130   -3.5710 h1        1 F8E      0.065700
     25 H1B         3.9580   -0.4870   -4.4210 h1        1 F8E      0.065700
     26 H6          4.8840   -1.2800    0.6080 ha        1 F8E      0.165000
     27 H8          3.2960    1.9150    3.1430 ha        1 F8E      0.178000
     28 H9          1.5180    2.3230    1.4810 ha        1 F8E      0.186000
     29 HN12        5.6190   -0.9460    2.8370 hn        1 F8E      0.471300
     30 H15         7.7160   -1.6180    1.7600 ha        1 F8E      0.170000
     31 H16        10.2980   -0.9910    1.1770 h4        1 F8E      0.206000
     32 H21         6.9930    4.1160    3.6980 h5        1 F8E      0.095100
     33 H122        4.8000    0.0300    3.9340 hn        1 F8E      0.471300
@<TRIPOS>BOND
     1    1   11 1   
     2    2    3 1   
     3    2   23 1   
     4    2   24 1   
     5    2   25 1   
     6    3    4 1   
     7    4    5 2   
     8    4    6 1   
     9    6    7 ar  
    10    6   11 ar  
    11    7    8 ar  
    12    7   26 1   
    13    8    9 ar  
    14    8   12 1   
    15    9   10 ar  
    16    9   27 1   
    17   10   11 ar  
    18   10   28 1   
    19   12   13 1   
    20   12   29 1   
    21   12   33 1   
    22   13   14 ar  
    23   13   21 ar  
    24   14   15 1   
    25   14   18 ar  
    26   15   16 2   
    27   15   30 1   
    28   16   17 1   
    29   16   31 1   
    30   17   18 1   
    31   17   22 1   
    32   18   19 ar  
    33   19   20 ar  
    34   20   21 ar  
    35   20   32 1   
@<TRIPOS>SUBSTRUCTURE
     1 F8E         1 TEMP              0 ****  ****    0 ROOT
