@<TRIPOS>MOLECULE
F8E
   32    34     1     0     0
SMALL
bcc


@<TRIPOS>ATOM
      1 Br          0.0110   -0.1360    0.0910 br        1 F8E     -0.063100
      2 C1          2.7300   -0.6730   -3.7880 c3        1 F8E      0.123700
      3 O2          2.9090   -0.8030   -2.3760 os        1 F8E     -0.427900
      4 C3          2.6480    0.3120   -1.6240 c         1 F8E      0.642700
      5 O4          2.3120    1.3430   -2.2050 o         1 F8E     -0.512000
      6 C5          2.8600    0.0920   -0.1750 ca        1 F8E     -0.063600
      7 C6          4.1740    0.0890    0.2950 ca        1 F8E     -0.084000
      8 C7          4.4330   -0.0730    1.6720 ca        1 F8E      0.158600
      9 C8          3.3380   -0.2540    2.5480 ca        1 F8E     -0.162000
     10 C9          2.0380   -0.2700    2.0600 ca        1 F8E     -0.088000
     11 C10         1.7810   -0.0970    0.6970 ca        1 F8E     -0.013900
     12 N12         5.7430   -0.1470    2.1810 nu        1 F8E     -0.727300
     13 C13         6.7660    0.7550    1.8680 ca        1 F8E      0.723200
     14 C14         7.9840    0.6700    2.6130 ca        1 F8E     -0.367400
     15 C15         8.4850   -0.1240    3.7010 cc        1 F8E     -0.158200
     16 C16         9.7860    0.3060    3.9540 cd        1 F8E     -0.114100
     17 N17        10.1370    1.3390    3.0760 na        1 F8E     -0.278100
     18 C19         9.0490    1.5870    2.2350 ca        1 F8E      0.465800
     19 N20         8.9320    2.5070    1.2240 nb        1 F8E     -0.721000
     20 C21         7.7290    2.4710    0.6180 ca        1 F8E      0.676900
     21 N22         6.6480    1.6740    0.8660 nb        1 F8E     -0.771000
     22 HN17       11.0020    1.8120    3.0450 hn        1 F8E      0.314700
     23 H1          1.6710   -0.4020   -4.0140 h1        1 F8E      0.052700
     24 H1A         3.4200    0.1070   -4.1890 h1        1 F8E      0.052700
     25 H1B         2.9860   -1.6890   -4.1780 h1        1 F8E      0.052700
     26 H6          4.9980    0.2120   -0.4270 ha        1 F8E      0.174000
     27 H8          3.5020   -0.3870    3.6290 ha        1 F8E      0.139000
     28 H9          1.2030   -0.4180    2.7650 ha        1 F8E      0.152000
     29 HN12        5.8230   -0.5490    3.0930 hn        1 F8E      0.437800
     30 H15         7.9540   -0.9150    4.2220 ha        1 F8E      0.156000
     31 H16        10.5020   -0.0460    4.6990 h4        1 F8E      0.173000
     32 H21         7.5820    3.2010   -0.2080 h5        1 F8E      0.057100
@<TRIPOS>BOND
     1    1   11 1   
     2    2    3 1   
     3    2   23 1   
     4    2   24 1   
     5    2   25 1   
     6    3    4 1   
     7    4    5 2   
     8    4    6 1   
     9    6    7 ar  
    10    6   11 ar  
    11    7    8 ar  
    12    7   26 1   
    13    8    9 ar  
    14    8   12 1   
    15    9   10 ar  
    16    9   27 1   
    17   10   11 ar  
    18   10   28 1   
    19   12   13 1   
    20   12   29 1   
    21   13   14 ar  
    22   13   21 ar  
    23   14   15 1   
    24   14   18 ar  
    25   15   16 2   
    26   15   30 1   
    27   16   17 1   
    28   16   31 1   
    29   17   18 1   
    30   17   22 1   
    31   18   19 ar  
    32   19   20 ar  
    33   20   21 ar  
    34   20   32 1   
@<TRIPOS>SUBSTRUCTURE
     1 F8E         1 TEMP              0 ****  ****    0 ROOT
