@<TRIPOS>MOLECULE
F8E
   32    34     1     0     0
SMALL
bcc


@<TRIPOS>ATOM
      1 BR          0.0110   -0.1020    0.0710 br        1 F8E     -0.063100
      2 C1          2.7380   -0.6820   -3.7920 c3        1 F8E      0.123700
      3 O2          2.9110   -0.8040   -2.3790 os        1 F8E     -0.427900
      4 C3          2.6590    0.3170   -1.6350 c         1 F8E      0.642700
      5 O4          2.3340    1.3480   -2.2230 o         1 F8E     -0.512000
      6 C5          2.8630    0.1030   -0.1840 ca        1 F8E     -0.063600
      7 C6          4.1760    0.0940    0.2920 ca        1 F8E     -0.084000
      8 C7          4.4280   -0.0620    1.6710 ca        1 F8E      0.158600
      9 C8          3.3270   -0.2300    2.5430 ca        1 F8E     -0.162000
     10 C9          2.0290   -0.2400    2.0500 ca        1 F8E     -0.088000
     11 C10         1.7790   -0.0720    0.6840 ca        1 F8E     -0.013900
     12 N12         5.7350   -0.1430    2.1850 nh        1 F8E     -0.727300
     13 C13         6.7650    0.7500    1.8720 ca        1 F8E      0.723200
     14 C14         7.9790    0.6610    2.6220 ca        1 F8E     -0.367400
     15 C15         8.4700   -0.1300    3.7170 cc        1 F8E     -0.158200
     16 C16         9.7730    0.2920    3.9730 cd        1 F8E     -0.114100
     17 N17        10.1350    1.3180    3.0910 na        1 F8E     -0.278100
     18 C19         9.0530    1.5690    2.2440 ca        1 F8E      0.465800
     19 N20         8.9460    2.4840    1.2270 nb        1 F8E     -0.721000
     20 C21         7.7450    2.4530    0.6160 ca        1 F8E      0.676900
     21 N22         6.6570    1.6640    0.8640 nb        1 F8E     -0.771000
     22 HN17       11.0030    1.7860    3.0610 hn        1 F8E      0.314700
     23 H1          3.4370    0.0890   -4.1960 h1        1 F8E      0.052700
     24 H1A         1.6830   -0.4020   -4.0240 h1        1 F8E      0.052700
     25 H1B         2.9860   -1.7030   -4.1750 h1        1 F8E      0.052700
     26 H6          5.0030    0.2070   -0.4280 ha        1 F8E      0.174000
     27 H8          3.4860   -0.3590    3.6250 ha        1 F8E      0.139000
     28 H9          1.1900   -0.3770    2.7520 ha        1 F8E      0.152000
     29 HN12        5.8080   -0.5400    3.0990 hn        1 F8E      0.437800
     30 H15         7.9310   -0.9140    4.2390 ha        1 F8E      0.156000
     31 H16        10.4830   -0.0610    4.7230 h4        1 F8E      0.173000
     32 H21         7.6070    3.1790   -0.2150 h5        1 F8E      0.057100
@<TRIPOS>BOND
     1    1   11 1   
     2    2    3 1   
     3    2   23 1   
     4    2   24 1   
     5    2   25 1   
     6    3    4 1   
     7    4    5 2   
     8    4    6 1   
     9    6    7 ar  
    10    6   11 ar  
    11    7    8 ar  
    12    7   26 1   
    13    8    9 ar  
    14    8   12 1   
    15    9   10 ar  
    16    9   27 1   
    17   10   11 ar  
    18   10   28 1   
    19   12   13 1   
    20   12   29 1   
    21   13   14 ar  
    22   13   21 ar  
    23   14   15 1   
    24   14   18 ar  
    25   15   16 2   
    26   15   30 1   
    27   16   17 1   
    28   16   31 1   
    29   17   18 1   
    30   17   22 1   
    31   18   19 ar  
    32   19   20 ar  
    33   20   21 ar  
    34   20   32 1   
@<TRIPOS>SUBSTRUCTURE
     1 F8E         1 TEMP              0 ****  ****    0 ROOT
