@<TRIPOS>MOLECULE
F90
   22    22     1     0     0
SMALL
bcc


@<TRIPOS>ATOM
      1 C1         -0.0140   -0.0990   -0.0350 ca        1 F90     -0.147300
      2 C2         -0.7130   -0.2900   -1.3190 c3        1 F90      0.073000
      3 S3         -1.0540    1.3960   -1.8250 ss        1 F90     -0.200300
      4 C4         -1.8750    1.2450   -3.3300 c2        1 F90      0.519100
      5 N5         -2.2400    0.2610   -4.0600 n2        1 F90     -0.744100
      6 N6         -2.2240    2.6070   -3.8710 n4        1 F90     -0.817600
      7 C7          1.3840    0.0150   -0.0020 ca        1 F90     -0.081000
      8 C8          2.0480    0.1710    1.2100 ca        1 F90     -0.126000
      9 C9          1.3150    0.2120    2.4040 ca        1 F90      0.054400
     10 CL10        2.1190    0.4020    3.8790 cl        1 F90     -0.039400
     11 C11        -0.0810    0.0920    2.3810 ca        1 F90     -0.126000
     12 C12        -0.7400   -0.0640    1.1650 ca        1 F90     -0.081000
     13 H2         -0.0700   -0.8020   -2.0750 h1        1 F90      0.091700
     14 H2A        -1.6650   -0.8620   -1.1980 h1        1 F90      0.091700
     15 HN5        -2.0460   -0.6730   -3.7710 hn        1 F90      0.485400
     16 HN6        -1.3550    3.1390   -3.9970 hn        1 F90      0.474133
     17 HN6A       -2.7180    2.5460   -4.7720 hn        1 F90      0.474133
     18 H7          1.9640   -0.0260   -0.9370 ha        1 F90      0.145000
     19 H8          3.1470    0.2570    1.2300 ha        1 F90      0.168000
     20 H11        -0.6560    0.1150    3.3210 ha        1 F90      0.168000
     21 H12        -1.8360   -0.1670    1.1520 ha        1 F90      0.145000
     22 H63        -2.8230    3.0840   -3.1890 hn        1 F90      0.474133
@<TRIPOS>BOND
     1    1    2 1   
     2    1    7 ar  
     3    1   12 ar  
     4    2    3 1   
     5    2   13 1   
     6    2   14 1   
     7    3    4 1   
     8    4    5 2   
     9    4    6 1   
    10    5   15 1   
    11    6   16 1   
    12    6   17 1   
    13    6   22 1   
    14    7    8 ar  
    15    7   18 1   
    16    8    9 ar  
    17    8   19 1   
    18    9   10 1   
    19    9   11 ar  
    20   11   12 ar  
    21   11   20 1   
    22   12   21 1   
@<TRIPOS>SUBSTRUCTURE
     1 F90         1 TEMP              0 ****  ****    0 ROOT
