@<TRIPOS>MOLECULE
F90
   21    21     1     0     0
SMALL
bcc


@<TRIPOS>ATOM
      1 C1         -0.1400    0.0030    0.6110 ca        1 F90     -0.086300
      2 C2          1.2820    0.0030    1.0140 c3        1 F90      0.051000
      3 S3          2.2240   -0.0110   -0.4970 ss        1 F90     -0.240300
      4 C4          3.9080   -0.0360    0.0180 c2        1 F90      0.642100
      5 N5          4.1890    0.0250    1.2810 n2        1 F90     -0.864100
      6 N6          4.7830   -0.1960   -1.0690 nh        1 F90     -0.938800
      7 C7         -0.8320    1.2120    0.4540 ca        1 F90     -0.102000
      8 C8         -2.1760    1.2160    0.0910 ca        1 F90     -0.127000
      9 C9         -2.8380    0.0020   -0.1170 ca        1 F90      0.024400
     10 CL10       -4.4790    0.0010   -0.5600 cl        1 F90     -0.092400
     11 C11        -2.1600   -1.2120    0.0380 ca        1 F90     -0.127000
     12 C12        -0.8160   -1.2070    0.4010 ca        1 F90     -0.102000
     13 H2          1.5370    0.9090    1.6180 h1        1 F90      0.089700
     14 H2A         1.5330   -0.8960    1.6300 h1        1 F90      0.089700
     15 HN5         5.1520    0.0070    1.5400 hn        1 F90      0.392400
     16 HN6         4.3950   -0.0040   -1.9640 hn        1 F90      0.403300
     17 HN6A        5.7120    0.1370   -0.9470 hn        1 F90      0.403300
     18 H7         -0.3090    2.1660    0.6190 ha        1 F90      0.143500
     19 H8         -2.7110    2.1690   -0.0300 ha        1 F90      0.149000
     20 H11        -2.6830   -2.1660   -0.1260 ha        1 F90      0.149000
     21 H12        -0.2800   -2.1610    0.5230 ha        1 F90      0.143500
@<TRIPOS>BOND
     1    1    2 1   
     2    1    7 ar  
     3    1   12 ar  
     4    2    3 1   
     5    2   13 1   
     6    2   14 1   
     7    3    4 1   
     8    4    5 2   
     9    4    6 1   
    10    5   15 1   
    11    6   16 1   
    12    6   17 1   
    13    7    8 ar  
    14    7   18 1   
    15    8    9 ar  
    16    8   19 1   
    17    9   10 1   
    18    9   11 ar  
    19   11   12 ar  
    20   11   20 1   
    21   12   21 1   
@<TRIPOS>SUBSTRUCTURE
     1 F90         1 TEMP              0 ****  ****    0 ROOT
