@<TRIPOS>MOLECULE
F90
   22    22     1     0     0
SMALL
bcc


@<TRIPOS>ATOM
      1 C1         -0.0230   -0.0980   -0.0290 ca        1 F90     -0.147300
      2 C2         -0.7070   -0.2910   -1.3210 c3        1 F90      0.073000
      3 S3         -1.0420    1.3940   -1.8330 ss        1 F90     -0.200300
      4 C4         -1.8460    1.2420   -3.3470 c2        1 F90      0.519100
      5 N5         -2.2020    0.2570   -4.0800 n2        1 F90     -0.744100
      6 N6         -2.1870    2.6030   -3.8940 nz        1 F90     -0.817600
      7 C7          1.3750    0.0170    0.0200 ca        1 F90     -0.081000
      8 C8          2.0250    0.1740    1.2400 ca        1 F90     -0.126000
      9 C9          1.2780    0.2160    2.4250 ca        1 F90      0.054400
     10 Cl10        2.0640    0.4090    3.9090 cl        1 F90     -0.039400
     11 C11        -0.1180    0.0960    2.3860 ca        1 F90     -0.126000
     12 C12        -0.7620   -0.0610    1.1630 ca        1 F90     -0.081000
     13 H2         -0.0550   -0.8040   -2.0690 h1        1 F90      0.091700
     14 H2A        -1.6600   -0.8630   -1.2100 h1        1 F90      0.091700
     15 HN5        -2.0120   -0.6770   -3.7870 hn        1 F90      0.485400
     16 HN6        -1.3180    3.1360   -4.0060 hn        1 F90      0.474133
     17 HN6A       -2.6670    2.5410   -4.8030 hn        1 F90      0.474133
     18 H7          1.9660   -0.0260   -0.9080 ha        1 F90      0.145000
     19 H8          3.1230    0.2600    1.2730 ha        1 F90      0.168000
     20 H11        -0.7040    0.1210    3.3190 ha        1 F90      0.168000
     21 H12        -1.8590   -0.1650    1.1370 ha        1 F90      0.145000
     22 H63        -2.7990    3.0790   -3.2220 hn        1 F90      0.474133
@<TRIPOS>BOND
     1    1    2 1   
     2    1    7 ar  
     3    1   12 ar  
     4    2    3 1   
     5    2   13 1   
     6    2   14 1   
     7    3    4 1   
     8    4    5 2   
     9    4    6 1   
    10    5   15 1   
    11    6   16 1   
    12    6   17 1   
    13    6   22 1   
    14    7    8 ar  
    15    7   18 1   
    16    8    9 ar  
    17    8   19 1   
    18    9   10 1   
    19    9   11 ar  
    20   11   12 ar  
    21   11   20 1   
    22   12   21 1   
@<TRIPOS>SUBSTRUCTURE
     1 F90         1 TEMP              0 ****  ****    0 ROOT
