@<TRIPOS>MOLECULE
F90
   22    22     1     0     0
SMALL
bcc


@<TRIPOS>ATOM
      1 C1         -0.0170   -0.1010   -0.0350 ca        1 F90     -0.147300
      2 C2         -0.7940   -0.2890   -1.2740 c3        1 F90      0.073000
      3 S3         -1.0540    1.3980   -1.8230 ss        1 F90     -0.200300
      4 C4         -1.9630    1.2510   -3.2770 c2        1 F90      0.519100
      5 N5         -2.4290    0.2690   -3.9510 n2        1 F90     -0.744100
      6 N6         -2.2540    2.6130   -3.8480 n4        1 F90     -0.817600
      7 C7          1.3860   -0.0760   -0.0780 ca        1 F90     -0.081000
      8 C8          2.1220    0.0760    1.0930 ca        1 F90     -0.126000
      9 C9          1.4580    0.2040    2.3200 ca        1 F90      0.054400
     10 CL10        2.3500    0.3910    3.7430 cl        1 F90     -0.039400
     11 C11         0.0580    0.1750    2.3720 ca        1 F90     -0.126000
     12 C12        -0.6730    0.0220    1.1990 ca        1 F90     -0.081000
     13 H2         -1.7720   -0.7930   -1.0830 h1        1 F90      0.091700
     14 H2A        -0.2260   -0.8670   -2.0430 h1        1 F90      0.091700
     15 HN5        -2.2780   -0.6660   -3.6380 hn        1 F90      0.485400
     16 HN6        -2.7790    3.1540   -3.1520 hn        1 F90      0.474133
     17 HN6A       -1.3620    3.0810   -4.0450 hn        1 F90      0.474133
     18 H7          1.9110   -0.1870   -1.0390 ha        1 F90      0.145000
     19 H8          3.2240    0.0910    1.0530 ha        1 F90      0.168000
     20 H11        -0.4630    0.2670    3.3390 ha        1 F90      0.168000
     21 H12        -1.7730   -0.0110    1.2460 ha        1 F90      0.145000
     22 H63        -2.8040    2.5560   -4.7170 hn        1 F90      0.474133
@<TRIPOS>BOND
     1    1    2 1   
     2    1    7 ar  
     3    1   12 ar  
     4    2    3 1   
     5    2   13 1   
     6    2   14 1   
     7    3    4 1   
     8    4    5 2   
     9    4    6 1   
    10    5   15 1   
    11    6   16 1   
    12    6   17 1   
    13    6   22 1   
    14    7    8 ar  
    15    7   18 1   
    16    8    9 ar  
    17    8   19 1   
    18    9   10 1   
    19    9   11 ar  
    20   11   12 ar  
    21   11   20 1   
    22   12   21 1   
@<TRIPOS>SUBSTRUCTURE
     1 F90         1 TEMP              0 ****  ****    0 ROOT
