@<TRIPOS>MOLECULE
F91
   32    34     1     0     0
SMALL
bcc


@<TRIPOS>ATOM
      1 C1          2.6850    0.5780   -0.1940 ca        1 F91      0.093100
      2 O2          3.5450    1.6520   -0.3610 os        1 F91     -0.317900
      3 C3          4.8520    1.4250    0.1790 c3        1 F91      0.091400
      4 C4          5.3590    0.0320   -0.1600 c3        1 F91      0.091400
      5 O5          4.4910   -0.9730    0.3710 os        1 F91     -0.315900
      6 C6          3.1490   -0.7080    0.1330 ca        1 F91      0.016100
      7 C7          2.2410   -1.7620    0.2660 ca        1 F91     -0.086000
      8 C8          0.8850   -1.5330    0.0690 ca        1 F91     -0.184000
      9 C9          0.4050   -0.2480   -0.2770 ca        1 F91      0.139600
     10 N10        -0.9500   -0.0250   -0.5850 nh        1 F91     -0.721600
     11 C11        -1.9280   -0.8840    0.0510 c3        1 F91      0.222100
     12 C12        -3.3110   -0.3040    0.0680 ca        1 F91     -0.066300
     13 C13         1.3250    0.8190   -0.3970 ca        1 F91     -0.183000
     14 C14        -4.0660   -0.3200    1.2470 ca        1 F91     -0.236300
     15 C15        -5.3730    0.1980    1.2140 ca        1 F91      0.392700
     16 N16        -5.9430    0.7150    0.1080 nb        1 F91     -0.660000
     17 C17        -5.2030    0.7250   -1.0180 ca        1 F91      0.392700
     18 C18        -3.8890    0.2280   -1.0900 ca        1 F91     -0.236300
     19 H3          5.4830    2.2190   -0.3000 h1        1 F91      0.069200
     20 H3A         4.8100    1.5720    1.2900 h1        1 F91      0.069200
     21 H4          5.4340   -0.1030   -1.2700 h1        1 F91      0.068700
     22 H4A         6.3450   -0.1740    0.3300 h1        1 F91      0.068700
     23 H7          2.6110   -2.7650    0.5270 ha        1 F91      0.150000
     24 H8          0.1880   -2.3770    0.1700 ha        1 F91      0.137000
     25 HN10       -1.2010    0.9430   -0.5600 hn        1 F91      0.397800
     26 H11        -1.9590   -1.8500   -0.5360 h1        1 F91      0.053700
     27 H11A       -1.6230   -1.1450    1.1090 h1        1 F91      0.053700
     28 H13         0.9990    1.8360   -0.6580 ha        1 F91      0.151000
     29 H14        -3.6540   -0.7260    2.1800 ha        1 F91      0.150500
     30 H15        -6.0010    0.2010    2.1230 h4        1 F91      0.024600
     31 H17        -5.6930    1.1530   -1.9110 h4        1 F91      0.024600
     32 H18        -3.3360    0.2530   -2.0390 ha        1 F91      0.150500
@<TRIPOS>BOND
     1    1    2 1   
     2    1    6 ar  
     3    1   13 ar  
     4    2    3 1   
     5    3    4 1   
     6    3   19 1   
     7    3   20 1   
     8    4    5 1   
     9    4   21 1   
    10    4   22 1   
    11    5    6 1   
    12    6    7 ar  
    13    7    8 ar  
    14    7   23 1   
    15    8    9 ar  
    16    8   24 1   
    17    9   10 1   
    18    9   13 ar  
    19   10   11 1   
    20   10   25 1   
    21   11   12 1   
    22   11   26 1   
    23   11   27 1   
    24   12   14 ar  
    25   12   18 ar  
    26   13   28 1   
    27   14   15 ar  
    28   14   29 1   
    29   15   16 ar  
    30   15   30 1   
    31   16   17 ar  
    32   17   18 ar  
    33   17   31 1   
    34   18   32 1   
@<TRIPOS>SUBSTRUCTURE
     1 F91         1 TEMP              0 ****  ****    0 ROOT
