@<TRIPOS>MOLECULE
F91
   32    30     1     0     0
SMALL
bcc


@<TRIPOS>ATOM
      1 C1          2.4260   -0.1850    1.3790 c1        1 F91      0.049000
      2 O2          3.9060   -0.3420    1.3950 o         1 F91     -0.201000
      3 C3          4.5100   -0.2010    2.5530 c3        1 F91     -0.059000
      4 C4          3.7990   -0.6920    3.7300 c3        1 F91     -0.059000
      5 O5          2.5620   -0.2560    3.8980 os        1 F91     -0.199000
      6 C6          1.7470   -0.0460    2.6740 c2        1 F91     -0.030000
      7 C7          0.3670    0.1270    2.7190 c2        1 F91     -0.086000
      8 C8         -0.3800    0.1690    1.5190 c1        1 F91     -0.184000
      9 C9          0.2840    0.0340    0.2510 c1        1 F91      0.058000
     10 N10        -0.4840   -0.0080   -0.9570 n3        1 F91     -0.276000
     11 C11        -1.6130    0.8600   -1.1210 c3        1 F91     -0.021000
     12 C12        -2.4640    0.3770   -2.3230 c2        1 F91     -0.054000
     13 C13         1.6880   -0.1430    0.2020 c2        1 F91     -0.185000
     14 C14        -3.6800   -0.1210   -1.9500 c2        1 F91     -0.166000
     15 C15        -4.6200   -0.4680   -2.9220 c1        1 F91     -0.069000
     16 N16        -4.3240   -0.3100   -4.2490 n1        1 F91     -0.134000
     17 C17        -3.1090    0.1880   -4.6230 c1        1 F91     -0.068000
     18 C18        -2.1680    0.5360   -3.6530 c1        1 F91     -0.183000
     19 H3          5.3780   -0.6730    2.5020 h1        1 F91      0.108000
     20 H3A         4.6910    0.7580    2.6850 h1        1 F91      0.108000
     21 H4          3.7600   -1.6660    3.6630 h1        1 F91      0.108500
     22 H4A         4.3170   -0.4200    4.5220 h1        1 F91      0.108500
     23 H7         -0.0840    0.2190    3.5760 ha        1 F91      0.150000
     24 H8         -1.3540    0.3140    1.5510 ha        1 F91      0.138000
     25 HN10       -0.2450   -0.5650   -1.6220 hn        1 F91      0.194000
     26 H11        -2.1620    0.8440   -0.3020 h1        1 F91      0.094000
     27 H11A       -1.3020    1.7730   -1.2880 h1        1 F91      0.094000
     28 H13         2.1360   -0.2350   -0.6550 ha        1 F91      0.151000
     29 H14        -3.8920   -0.2350   -1.0030 ha        1 F91      0.148000
     30 H15        -5.4940   -0.8260   -2.6540 ha        1 F91      0.162000
     31 H17        -2.8970    0.3020   -5.5750 ha        1 F91      0.161000
     32 H18        -1.3000    0.8920   -3.9210 ha        1 F91      0.144000
@<TRIPOS>BOND
     1    1    6 1   
     2    1   13 1   
     3    2    3 1   
     4    3    4 1   
     5    3   19 1   
     6    3   20 1   
     7    4    5 1   
     8    4   21 1   
     9    4   22 1   
    10    5    6 1   
    11    6    7 1   
    12    7    8 1   
    13    7   23 1   
    14    8   24 1   
    15    9   10 1   
    16    9   13 1   
    17   10   11 1   
    18   10   25 1   
    19   11   12 1   
    20   11   26 1   
    21   11   27 1   
    22   12   14 1   
    23   12   18 1   
    24   13   28 1   
    25   14   15 1   
    26   14   29 1   
    27   15   30 1   
    28   16   17 1   
    29   17   31 1   
    30   18   32 1   
@<TRIPOS>SUBSTRUCTURE
     1 F91         1 TEMP              0 ****  ****    0 ROOT
