@<TRIPOS>MOLECULE
F91
   32    34     1     0     0
SMALL
bcc


@<TRIPOS>ATOM
      1 C1         -0.0300   -0.1720   -0.0340 ca        1 F91      0.093100
      2 O2          1.3510   -0.2480   -0.1220 os        1 F91     -0.317900
      3 C3          2.0130   -0.0880    1.1380 c3        1 F91      0.091400
      4 C4          1.3140   -0.8720    2.2360 c3        1 F91      0.091400
      5 O5         -0.0380   -0.4350    2.3990 os        1 F91     -0.315900
      6 C6         -0.7090   -0.2940    1.1920 ca        1 F91      0.016100
      7 C7         -2.1040   -0.2350    1.2230 ca        1 F91     -0.086000
      8 C8         -2.8130   -0.0610    0.0400 ca        1 F91     -0.184000
      9 C9         -2.1440    0.0470   -1.2020 ca        1 F91      0.139600
     10 N10        -2.8530    0.1140   -2.4170 nh        1 F91     -0.721600
     11 C11        -4.1710    0.7160   -2.3870 c3        1 F91      0.222100
     12 C12        -4.6420    1.1890   -3.7300 ca        1 F91     -0.066300
     13 C13        -0.7320    0.0000   -1.2270 ca        1 F91     -0.183000
     14 C14        -5.1990    2.4650   -3.8710 ca        1 F91     -0.236300
     15 C15        -5.6650    2.8580   -5.1380 ca        1 F91      0.392700
     16 N16        -5.6000    2.0750   -6.2320 nb        1 F91     -0.660000
     17 C17        -5.0590    0.8510   -6.0810 ca        1 F91      0.392700
     18 C18        -4.5690    0.3620   -4.8570 ca        1 F91     -0.236300
     19 H3          2.0430    1.0050    1.3890 h1        1 F91      0.069200
     20 H3A         3.0470   -0.4770    0.9500 h1        1 F91      0.069200
     21 H4          1.7830   -0.6820    3.2370 h1        1 F91      0.068700
     22 H4A         1.3150   -1.9690    2.0020 h1        1 F91      0.068700
     23 H7         -2.6290   -0.3250    2.1850 ha        1 F91      0.150000
     24 H8         -3.9120   -0.0240    0.0840 ha        1 F91      0.137000
     25 HN10       -2.2900    0.4380   -3.1780 hn        1 F91      0.397800
     26 H11        -4.8910   -0.0750   -2.0210 h1        1 F91      0.053700
     27 H11A       -4.2160    1.5760   -1.6540 h1        1 F91      0.053700
     28 H13        -0.1690    0.0850   -2.1680 ha        1 F91      0.151000
     29 H14        -5.2760    3.1490   -3.0150 ha        1 F91      0.150500
     30 H15        -6.1140    3.8570   -5.2880 h4        1 F91      0.024600
     31 H17        -5.0190    0.2280   -6.9930 h4        1 F91      0.024600
     32 H18        -4.1460   -0.6500   -4.7910 ha        1 F91      0.150500
@<TRIPOS>BOND
     1    1    2 1   
     2    1    6 ar  
     3    1   13 ar  
     4    2    3 1   
     5    3    4 1   
     6    3   19 1   
     7    3   20 1   
     8    4    5 1   
     9    4   21 1   
    10    4   22 1   
    11    5    6 1   
    12    6    7 ar  
    13    7    8 ar  
    14    7   23 1   
    15    8    9 ar  
    16    8   24 1   
    17    9   10 1   
    18    9   13 ar  
    19   10   11 1   
    20   10   25 1   
    21   11   12 1   
    22   11   26 1   
    23   11   27 1   
    24   12   14 ar  
    25   12   18 ar  
    26   13   28 1   
    27   14   15 ar  
    28   14   29 1   
    29   15   16 ar  
    30   15   30 1   
    31   16   17 ar  
    32   17   18 ar  
    33   17   31 1   
    34   18   32 1   
@<TRIPOS>SUBSTRUCTURE
     1 F91         1 TEMP              0 ****  ****    0 ROOT
