@<TRIPOS>MOLECULE
F91
   32    34     1     0     0
SMALL
bcc


@<TRIPOS>ATOM
      1 C1         -0.0250   -0.1740   -0.0410 ca        1 F91      0.093100
      2 O2          1.3560   -0.2490   -0.1320 os        1 F91     -0.317900
      3 C3          2.0210   -0.0920    1.1260 c3        1 F91      0.091400
      4 C4          1.3250   -0.8810    2.2240 c3        1 F91      0.091400
      5 O5         -0.0280   -0.4450    2.3910 os        1 F91     -0.315900
      6 C6         -0.7010   -0.3000    1.1860 ca        1 F91      0.016100
      7 C7         -2.0960   -0.2410    1.2200 ca        1 F91     -0.086000
      8 C8         -2.8080   -0.0640    0.0400 ca        1 F91     -0.184000
      9 C9         -2.1430    0.0480   -1.2030 ca        1 F91      0.139600
     10 N10        -2.8530    0.1180   -2.4160 nu        1 F91     -0.721600
     11 C11        -4.1720    0.7180   -2.3820 c3        1 F91      0.222100
     12 C12        -4.6480    1.1930   -3.7220 ca        1 F91     -0.066300
     13 C13        -0.7300    0.0020   -1.2320 ca        1 F91     -0.183000
     14 C14        -5.2110    2.4670   -3.8580 ca        1 F91     -0.236300
     15 C15        -5.6810    2.8630   -5.1230 ca        1 F91      0.392700
     16 N16        -5.6160    2.0840   -6.2200 nb        1 F91     -0.660000
     17 C17        -5.0700    0.8610   -6.0740 ca        1 F91      0.392700
     18 C18        -4.5750    0.3700   -4.8520 ca        1 F91     -0.236300
     19 H3          2.0510    0.9990    1.3810 h1        1 F91      0.069200
     20 H3A         3.0550   -0.4810    0.9350 h1        1 F91      0.069200
     21 H4          1.3260   -1.9770    1.9860 h1        1 F91      0.068700
     22 H4A         1.7960   -0.6940    3.2230 h1        1 F91      0.068700
     23 H7         -2.6190   -0.3350    2.1830 ha        1 F91      0.150000
     24 H8         -3.9070   -0.0280    0.0870 ha        1 F91      0.137000
     25 HN10       -2.2930    0.4460   -3.1780 hn        1 F91      0.397800
     26 H11        -4.8900   -0.0750   -2.0150 h1        1 F91      0.053700
     27 H11A       -4.2170    1.5760   -1.6470 h1        1 F91      0.053700
     28 H13        -0.1690    0.0900   -2.1740 ha        1 F91      0.151000
     29 H14        -5.2880    3.1490   -3.0000 ha        1 F91      0.150500
     30 H15        -6.1340    3.8600   -5.2680 h4        1 F91      0.024600
     31 H17        -5.0290    0.2410   -6.9870 h4        1 F91      0.024600
     32 H18        -4.1480   -0.6400   -4.7900 ha        1 F91      0.150500
@<TRIPOS>BOND
     1    1    2 1   
     2    1    6 ar  
     3    1   13 ar  
     4    2    3 1   
     5    3    4 1   
     6    3   19 1   
     7    3   20 1   
     8    4    5 1   
     9    4   21 1   
    10    4   22 1   
    11    5    6 1   
    12    6    7 ar  
    13    7    8 ar  
    14    7   23 1   
    15    8    9 ar  
    16    8   24 1   
    17    9   10 1   
    18    9   13 ar  
    19   10   11 1   
    20   10   25 1   
    21   11   12 1   
    22   11   26 1   
    23   11   27 1   
    24   12   14 ar  
    25   12   18 ar  
    26   13   28 1   
    27   14   15 ar  
    28   14   29 1   
    29   15   16 ar  
    30   15   30 1   
    31   16   17 ar  
    32   17   18 ar  
    33   17   31 1   
    34   18   32 1   
@<TRIPOS>SUBSTRUCTURE
     1 F91         1 TEMP              0 ****  ****    0 ROOT
