@<TRIPOS>MOLECULE
F91
   33    35     1     0     0
SMALL
bcc


@<TRIPOS>ATOM
      1 C1         -0.2140    0.2100    0.1230 ca        1 F91      0.079100
      2 O2          0.8630    1.0120    0.4360 os        1 F91     -0.300900
      3 C3          1.3040    0.8730    1.7980 c3        1 F91      0.085400
      4 C4          1.3690   -0.5860    2.2090 c3        1 F91      0.084400
      5 O5          0.0900   -1.2300    2.0670 os        1 F91     -0.288900
      6 C6         -0.5800   -0.9020    0.9160 ca        1 F91      0.124100
      7 C7         -1.6790   -1.6940    0.5540 ca        1 F91     -0.107000
      8 C8         -2.3950   -1.3920   -0.5990 ca        1 F91     -0.099000
      9 C9         -2.0100   -0.2980   -1.3940 ca        1 F91     -0.078400
     10 N10        -2.7520    0.0030   -2.6200 n4        1 F91     -0.623400
     11 C11        -3.7820    1.0790   -2.4090 c3        1 F91      0.166100
     12 C12        -4.4880    1.3990   -3.6820 ca        1 F91     -0.143300
     13 C13        -0.9220    0.5200   -1.0390 ca        1 F91     -0.106000
     14 C14        -3.8860    2.2300   -4.6350 ca        1 F91     -0.227300
     15 C15        -4.6080    2.5350   -5.8040 ca        1 F91      0.417700
     16 N16        -5.8470    2.0690   -6.0530 nb        1 F91     -0.615000
     17 C17        -6.4130    1.2750   -5.1260 ca        1 F91      0.417700
     18 C18        -5.7750    0.9070   -3.9240 ca        1 F91     -0.227300
     19 H3          2.3220    1.3460    1.7930 h1        1 F91      0.094200
     20 H3A         0.6030    1.4500    2.4580 h1        1 F91      0.094200
     21 H4          1.5980   -0.6980    3.3020 h1        1 F91      0.096200
     22 H4A         2.1150   -1.1500    1.5890 h1        1 F91      0.096200
     23 H7         -1.9620   -2.5520    1.1860 ha        1 F91      0.188000
     24 H8         -3.2520   -2.0280   -0.8740 ha        1 F91      0.157000
     25 HN10       -2.0930    0.3110   -3.3470 hn        1 F91      0.454800
     26 H11        -4.5020    0.7120   -1.6210 hx        1 F91      0.115200
     27 H11A       -3.2450    1.9870   -2.0070 hx        1 F91      0.115200
     28 H13        -0.6080    1.3870   -1.6410 ha        1 F91      0.170000
     29 H14        -2.8880    2.6590   -4.4760 ha        1 F91      0.151500
     30 H15        -4.1750    3.1930   -6.5830 h4        1 F91      0.051600
     31 H17        -7.4350    0.9150   -5.3560 h4        1 F91      0.051600
     32 H18        -6.2940    0.2660   -3.1980 ha        1 F91      0.151500
     33 H102       -3.2180   -0.8510   -2.9520 hn        1 F91      0.454800
@<TRIPOS>BOND
     1    1    2 1   
     2    1    6 ar  
     3    1   13 ar  
     4    2    3 1   
     5    3    4 1   
     6    3   19 1   
     7    3   20 1   
     8    4    5 1   
     9    4   21 1   
    10    4   22 1   
    11    5    6 1   
    12    6    7 ar  
    13    7    8 ar  
    14    7   23 1   
    15    8    9 ar  
    16    8   24 1   
    17    9   10 1   
    18    9   13 ar  
    19   10   11 1   
    20   10   25 1   
    21   10   33 1   
    22   11   12 1   
    23   11   26 1   
    24   11   27 1   
    25   12   14 ar  
    26   12   18 ar  
    27   13   28 1   
    28   14   15 ar  
    29   14   29 1   
    30   15   16 ar  
    31   15   30 1   
    32   16   17 ar  
    33   17   18 ar  
    34   17   31 1   
    35   18   32 1   
@<TRIPOS>SUBSTRUCTURE
     1 F91         1 TEMP              0 ****  ****    0 ROOT
