@<TRIPOS>MOLECULE
F94
   29    23     1     0     0
SMALL
bcc


@<TRIPOS>ATOM
      1 CAK         2.6330    1.1080    0.5770 c1        1 F94     -0.128000
      2 CAL         4.0180    1.1250    0.5320 c1        1 F94      0.103000
      3 OAS         4.7070    2.3510    0.5410 oh        1 F94     -0.245500
      4 CAM         4.7230   -0.0660    0.4490 c1        1 F94     -0.194000
      5 CAI         4.0420   -1.2730    0.4120 c1        1 F94     -0.118750
      6 CAJ         2.6570   -1.2890    0.4570 c1        1 F94     -0.118750
      7 CAH         1.9520   -0.0990    0.5400 c1        1 F94     -0.030000
      8 CAF         0.4400   -0.1130    0.5190 c1        1 F94      0.134000
      9 OAA        -0.2620   -0.0220   -0.7300 o         1 F94     -0.133000
     10 CAB        -1.7550   -0.0870   -0.7570 c1        1 F94      0.133000
     11 CAN        -2.4290   -0.1080   -1.9820 c1        1 F94     -0.194000
     12 CAO        -3.8230   -0.0800   -2.0120 c1        1 F94      0.103000
     13 OAR        -4.5010   -0.0710   -3.2460 oh        1 F94     -0.245500
     14 CAP        -4.5510   -0.0300   -0.8120 c1        1 F94     -0.118750
     15 CAQ        -3.8800   -0.0090    0.4120 c1        1 F94     -0.118750
     16 CAC        -2.4830   -0.0370    0.4440 c1        1 F94     -0.231000
     17 CAD        -1.7590   -0.0700    1.7620 c2        1 F94      0.315000
     18 OAG        -2.3880   -0.0750    2.8020 o         1 F94     -0.308000
     19 CAE        -0.3150   -0.1200    1.7880 c2        1 F94     -0.289000
     20 H1          2.1360    1.9470    0.6350 ha        1 F94      0.161000
     21 H2          4.8410    2.6220   -0.2960 ho        1 F94      0.223500
     22 H3          5.6980   -0.0540    0.4170 ha        1 F94      0.155000
     23 H4          4.5380   -2.1110    0.3530 ha        1 F94      0.149750
     24 H5          2.1780   -2.1400    0.4310 ha        1 F94      0.149750
     25 H6         -1.9240   -0.1620   -2.8160 ha        1 F94      0.155000
     26 H7         -4.7330   -0.9020   -3.4630 ho        1 F94      0.223500
     27 H8         -5.5270   -0.0110   -0.8340 ha        1 F94      0.149750
     28 H9         -4.3870    0.0250    1.2450 ha        1 F94      0.149750
     29 H10         0.1540   -0.2490    2.6350 ha        1 F94      0.172000
@<TRIPOS>BOND
     1    1    7 1   
     2    1   20 1   
     3    2    3 1   
     4    2    4 1   
     5    3   21 1   
     6    4   22 1   
     7    5    6 1   
     8    5   23 1   
     9    6   24 1   
    10    8   19 1   
    11    9   10 1   
    12   10   16 1   
    13   11   12 1   
    14   11   25 1   
    15   12   13 1   
    16   13   26 1   
    17   14   15 1   
    18   14   27 1   
    19   15   28 1   
    20   16   17 1   
    21   17   18 1   
    22   17   19 1   
    23   19   29 1   
@<TRIPOS>SUBSTRUCTURE
     1 F94         1 TEMP              0 ****  ****    0 ROOT
