@<TRIPOS>MOLECULE
F94
   29    31     1     0     0
SMALL
bcc


@<TRIPOS>ATOM
      1 CAK        -0.0710   -0.4490    0.0610 ca        1 F94     -0.116000
      2 CAL         1.3310   -0.3980   -0.0010 ca        1 F94      0.119100
      3 OAS         1.9030   -0.8280   -1.1770 oh        1 F94     -0.493100
      4 CAM         2.0860    0.0660    1.0850 ca        1 F94     -0.194000
      5 CAI         1.4270    0.4860    2.2390 ca        1 F94     -0.096000
      6 CAJ         0.0380    0.4420    2.3180 ca        1 F94     -0.135000
      7 CAH        -0.7130   -0.0300    1.2300 ca        1 F94     -0.042800
      8 CAF        -2.1740   -0.0910    1.3310 cc        1 F94      0.191900
      9 OAA        -2.7710    0.0600    0.0860 os        1 F94     -0.220200
     10 CAB        -4.1550    0.0130    0.0400 ca        1 F94      0.178100
     11 CAN        -4.7080    0.1670   -1.2400 ca        1 F94     -0.194000
     12 CAO        -6.1020    0.1300   -1.3540 ca        1 F94      0.176100
     13 OAR        -6.6110    0.2830   -2.6200 oh        1 F94     -0.488100
     14 CAP        -6.9290   -0.0560   -0.2270 ca        1 F94     -0.247000
     15 CAQ        -6.3510   -0.2040    1.0240 ca        1 F94     -0.008000
     16 CAC        -4.9570   -0.1730    1.1790 ca        1 F94     -0.251600
     17 CAD        -4.3310   -0.3300    2.4980 c         1 F94      0.593900
     18 OAG        -4.9790   -0.4920    3.5430 o         1 F94     -0.549100
     19 CAE        -2.8690   -0.2800    2.4750 cd        1 F94     -0.311200
     20 H1         -0.6460   -0.8110   -0.8040 ha        1 F94      0.167000
     21 H2          2.8630   -0.7400   -1.0910 ho        1 F94      0.422000
     22 H3          3.1830    0.1010    1.0240 ha        1 F94      0.138000
     23 H4          2.0120    0.8560    3.0950 ha        1 F94      0.140000
     24 H5         -0.4710    0.7840    3.2320 ha        1 F94      0.145000
     25 H6         -4.0690    0.3130   -2.1210 ha        1 F94      0.173000
     26 H7         -7.5780    0.2390   -2.5630 ho        1 F94      0.427000
     27 H8         -8.0210   -0.0810   -0.3450 ha        1 F94      0.143000
     28 H9         -6.9760   -0.3510    1.9210 ha        1 F94      0.163000
     29 H10        -2.3550   -0.4120    3.4380 ha        1 F94      0.169000
@<TRIPOS>BOND
     1    1    2 ar  
     2    1    7 ar  
     3    1   20 1   
     4    2    3 1   
     5    2    4 ar  
     6    3   21 1   
     7    4    5 ar  
     8    4   22 1   
     9    5    6 ar  
    10    5   23 1   
    11    6    7 ar  
    12    6   24 1   
    13    7    8 1   
    14    8    9 1   
    15    8   19 2   
    16    9   10 1   
    17   10   11 ar  
    18   10   16 ar  
    19   11   12 ar  
    20   11   25 1   
    21   12   13 1   
    22   12   14 ar  
    23   13   26 1   
    24   14   15 ar  
    25   14   27 1   
    26   15   16 ar  
    27   15   28 1   
    28   16   17 1   
    29   17   18 2   
    30   17   19 1   
    31   19   29 1   
@<TRIPOS>SUBSTRUCTURE
     1 F94         1 TEMP              0 ****  ****    0 ROOT
