@<TRIPOS>MOLECULE
F94
   29    31     1     0     0
SMALL
bcc


@<TRIPOS>ATOM
      1 CAK        -2.4990    0.9310   -0.4200 ca        1 F94     -0.116000
      2 CAL        -3.8800    1.1860   -0.4000 ca        1 F94      0.119100
      3 OAS        -4.2720    2.4450   -0.7960 oh        1 F94     -0.493100
      4 CAM        -4.7920    0.2000    0.0030 ca        1 F94     -0.194000
      5 CAI        -4.3110   -1.0490    0.3920 ca        1 F94     -0.096000
      6 CAJ        -2.9450   -1.3190    0.3780 ca        1 F94     -0.135000
      7 CAH        -2.0380   -0.3300   -0.0340 ca        1 F94     -0.042800
      8 CAF        -0.6040   -0.6310   -0.0650 cc        1 F94      0.191900
      9 OAA         0.1550    0.5130    0.1500 os        1 F94     -0.220200
     10 CAB         1.5330    0.3660    0.1370 ca        1 F94      0.178100
     11 CAN         2.2530    1.5510    0.3550 ca        1 F94     -0.194000
     12 CAO         3.6500    1.4710    0.3550 ca        1 F94      0.176100
     13 OAR         4.3240    2.6470    0.5700 oh        1 F94     -0.488100
     14 CAP         4.3180    0.2470    0.1440 ca        1 F94     -0.247000
     15 CAQ         3.5780   -0.9050   -0.0680 ca        1 F94     -0.008000
     16 CAC         2.1740   -0.8660   -0.0750 ca        1 F94     -0.251600
     17 CAD         1.3780   -2.0780   -0.2990 c         1 F94      0.593900
     18 OAG         1.8790   -3.1960   -0.4870 o         1 F94     -0.549100
     19 CAE        -0.0680   -1.8530   -0.2820 cd        1 F94     -0.311200
     20 H1         -1.8000    1.7210   -0.7340 ha        1 F94      0.167000
     21 H2         -5.2370    2.4900   -0.7350 ho        1 F94      0.422000
     22 H3         -5.8700    0.4110    0.0140 ha        1 F94      0.138000
     23 H4         -5.0180   -1.8280    0.7140 ha        1 F94      0.140000
     24 H5         -2.5770   -2.3060    0.6950 ha        1 F94      0.145000
     25 H6          1.7380    2.5060    0.5200 ha        1 F94      0.173000
     26 H7          5.2750    2.4580    0.5460 ho        1 F94      0.427000
     27 H8          5.4160    0.2130    0.1490 ha        1 F94      0.143000
     28 H9          4.0760   -1.8750   -0.2340 ha        1 F94      0.163000
     29 H10        -0.7070   -2.7300   -0.4640 ha        1 F94      0.169000
@<TRIPOS>BOND
     1    1    2 ar  
     2    1    7 ar  
     3    1   20 1   
     4    2    3 1   
     5    2    4 ar  
     6    3   21 1   
     7    4    5 ar  
     8    4   22 1   
     9    5    6 ar  
    10    5   23 1   
    11    6    7 ar  
    12    6   24 1   
    13    7    8 1   
    14    8    9 1   
    15    8   19 2   
    16    9   10 1   
    17   10   11 ar  
    18   10   16 ar  
    19   11   12 ar  
    20   11   25 1   
    21   12   13 1   
    22   12   14 ar  
    23   13   26 1   
    24   14   15 ar  
    25   14   27 1   
    26   15   16 ar  
    27   15   28 1   
    28   16   17 1   
    29   17   18 2   
    30   17   19 1   
    31   19   29 1   
@<TRIPOS>SUBSTRUCTURE
     1 F94         1 TEMP              0 ****  ****    0 ROOT
