@<TRIPOS>MOLECULE
F95
   24    25     1     0     0
SMALL
bcc


@<TRIPOS>ATOM
      1 C1         -0.0770   -0.0420    0.0010 ca        1 F95     -0.139800
      2 C2          1.3230    0.0690    0.1030 ca        1 F95      0.112100
      3 C3          1.9570    0.1160    1.3600 ca        1 F95     -0.009900
      4 C4          1.1750    0.0300    2.5230 ca        1 F95      0.134100
      5 C5         -0.2210   -0.1130    2.4270 ca        1 F95     -0.176000
      6 C6         -0.8320   -0.1530    1.1830 ca        1 F95     -0.051000
      7 O1          3.3240    0.2520    1.5170 oh        1 F95     -0.528100
      8 O2          1.7260    0.0810    3.7820 oh        1 F95     -0.503100
      9 O3          2.1660    0.1260   -0.9870 os        1 F95     -0.366200
     10 C7          1.5960    0.0230   -2.2640 c         1 F95      0.742800
     11 C8          0.1630   -0.0440   -2.4030 cc        1 F95     -0.327200
     12 C9         -0.6720   -0.0580   -1.3260 cd        1 F95      0.136600
     13 O4          2.4870    0.0430   -3.1180 o         1 F95     -0.621500
     14 C10        -2.1370   -0.0380   -1.4880 c3        1 F95     -0.213200
     15 C11        -2.8200   -1.4010   -1.1500 c         1 F95      0.928600
     16 O5         -3.2800   -1.5290    0.0180 o         1 F95     -0.816800
     17 O6         -2.9050   -2.2520   -2.0700 o         1 F95     -0.816800
     18 H1         -0.8110   -0.2040    3.3490 ha        1 F95      0.150000
     19 H2         -1.9280   -0.3250    1.1010 ha        1 F95      0.217000
     20 H3          3.7250    0.1310    0.6430 ho        1 F95      0.443000
     21 H4          2.6890    0.1160    3.6810 ho        1 F95      0.430000
     22 H5         -0.2180   -0.0950   -3.4330 ha        1 F95      0.168000
     23 H6         -2.5800    0.7370   -0.8100 hc        1 F95      0.053700
     24 H7         -2.4060    0.2120   -2.5460 hc        1 F95      0.053700
@<TRIPOS>BOND
     1    1    2 ar  
     2    1    6 ar  
     3    1   12 1   
     4    2    3 ar  
     5    2    9 1   
     6    3    4 ar  
     7    3    7 1   
     8    4    5 ar  
     9    4    8 1   
    10    5    6 ar  
    11    5   18 1   
    12    6   19 1   
    13    7   20 1   
    14    8   21 1   
    15    9   10 1   
    16   10   11 1   
    17   10   13 2   
    18   11   12 2   
    19   11   22 1   
    20   12   14 1   
    21   14   15 1   
    22   14   23 1   
    23   14   24 1   
    24   15   16 1   
    25   15   17 1   
@<TRIPOS>SUBSTRUCTURE
     1 F95         1 TEMP              0 ****  ****    0 ROOT
