@<TRIPOS>MOLECULE
F95
   24    25     1     0     0
SMALL
bcc


@<TRIPOS>ATOM
      1 C1         -0.0770   -0.0420    0.0050 ca        1 F95     -0.139800
      2 C2          1.3230    0.0670    0.0970 ca        1 F95      0.112100
      3 C3          1.9690    0.0870    1.3490 ca        1 F95     -0.009900
      4 C4          1.1980   -0.0250    2.5170 ca        1 F95      0.134100
      5 C5         -0.1990   -0.1650    2.4300 ca        1 F95     -0.176000
      6 C6         -0.8210   -0.1790    1.1910 ca        1 F95     -0.051000
      7 O1          3.3370    0.2190    1.4960 oh        1 F95     -0.528100
      8 O2          1.7600   -0.0010    3.7720 oh        1 F95     -0.503100
      9 O3          2.1570    0.1470   -0.9990 os        1 F95     -0.366200
     10 C7          1.5760    0.0720   -2.2730 c         1 F95      0.742800
     11 C8          0.1420    0.0070   -2.4000 cc        1 F95     -0.327200
     12 C9         -0.6840   -0.0290   -1.3170 cd        1 F95      0.136600
     13 O4          2.4600    0.1100   -3.1340 o         1 F95     -0.621500
     14 C10        -2.1500   -0.0060   -1.4650 c3        1 F95     -0.213200
     15 C11        -2.8300   -1.3760   -1.1500 c         1 F95      0.928600
     16 O5         -3.2810   -1.5290    0.0190 o         1 F95     -0.816800
     17 O6         -2.9230   -2.2070   -2.0870 o         1 F95     -0.816800
     18 H1         -0.7820   -0.2760    3.3550 ha        1 F95      0.150000
     19 H2         -1.9190   -0.3480    1.1150 ha        1 F95      0.217000
     20 H3          3.7310    0.1170    0.6170 ho        1 F95      0.443000
     21 H4          2.7220    0.0370    3.6630 ho        1 F95      0.430000
     22 H5         -0.2480   -0.0210   -3.4280 ha        1 F95      0.168000
     23 H6         -2.5870    0.7540   -0.7670 hc        1 F95      0.053700
     24 H7         -2.4290    0.2660   -2.5150 hc        1 F95      0.053700
@<TRIPOS>BOND
     1    1    2 ar  
     2    1    6 ar  
     3    1   12 1   
     4    2    3 ar  
     5    2    9 1   
     6    3    4 ar  
     7    3    7 1   
     8    4    5 ar  
     9    4    8 1   
    10    5    6 ar  
    11    5   18 1   
    12    6   19 1   
    13    7   20 1   
    14    8   21 1   
    15    9   10 1   
    16   10   11 1   
    17   10   13 2   
    18   11   12 2   
    19   11   22 1   
    20   12   14 1   
    21   14   15 1   
    22   14   23 1   
    23   14   24 1   
    24   15   16 1   
    25   15   17 1   
@<TRIPOS>SUBSTRUCTURE
     1 F95         1 TEMP              0 ****  ****    0 ROOT
