@<TRIPOS>MOLECULE
F98
   22    21     1     0     0
SMALL
bcc


@<TRIPOS>ATOM
      1 C1         -3.5670    0.4450   -1.0000 c         1 F98      0.509100
      2 N1         -2.5470    0.1900   -0.0510 n         1 F98     -0.050400
      3 O1         -3.4980    0.1130   -2.2210 o         1 F98     -0.760100
      4 C2         -1.1830    0.2300   -0.6480 c3        1 F98      0.031000
      5 O2         -2.6560    0.7510    1.0760 o         1 F98     -0.693000
      6 C3         -0.1340   -0.5290    0.1580 c3        1 F98     -0.055400
      7 C4          1.2340   -0.3890   -0.4490 c3        1 F98     -0.346600
      8 C11        -4.9190    0.8520   -0.4470 c3        1 F98     -0.145100
      9 PA1         2.3380   -1.3530    0.3810 p5        1 F98      1.352600
     10 OP1         2.2350   -0.8150    1.9400 oh        1 F98     -0.796400
     11 OP2         1.8810   -2.7610    0.5300 o         1 F98     -0.888500
     12 OP3         3.7110   -1.0420   -0.0970 o         1 F98     -0.888500
     13 H2         -1.2420   -0.2150   -1.6800 h1        1 F98      0.016700
     14 H2A        -0.8400    1.2980   -0.7480 h1        1 F98      0.016700
     15 HO2         1.7120   -1.4060    2.4680 ho        1 F98      0.415000
     16 H3         -0.1100   -0.1420    1.2110 hc        1 F98      0.054200
     17 H3A        -0.3870   -1.6210    0.2090 hc        1 F98      0.054200
     18 H4          1.2020   -0.6820   -1.5270 hc        1 F98      0.054700
     19 H4A         1.5520    0.6810   -0.4270 hc        1 F98      0.054700
     20 H11        -5.3320    0.0390    0.1960 hc        1 F98      0.022033
     21 H11A       -4.7970    1.7660    0.1820 hc        1 F98      0.022033
     22 H11B       -5.6270    1.0560   -1.2830 hc        1 F98      0.022033
@<TRIPOS>BOND
     1    1    2 1   
     2    1    3 2   
     3    1    8 1   
     4    2    4 1   
     5    2    5 1   
     6    4    6 1   
     7    4   13 1   
     8    4   14 1   
     9    6    7 1   
    10    6   16 1   
    11    6   17 1   
    12    7    9 1   
    13    7   18 1   
    14    7   19 1   
    15    8   20 1   
    16    8   21 1   
    17    8   22 1   
    18    9   10 1   
    19    9   11 1   
    20    9   12 1   
    21   10   15 1   
@<TRIPOS>SUBSTRUCTURE
     1 F98         1 TEMP              0 ****  ****    0 ROOT
