@<TRIPOS>MOLECULE
F98
   22    20     1     0     0
SMALL
bcc


@<TRIPOS>ATOM
      1 C1         -2.2410    0.9480   -0.6400 c1        1 F98      0.153000
      2 N1         -0.8240    0.9080   -0.6980 n2        1 F98      0.054000
      3 O1         -2.8120    0.7480    0.4140 o         1 F98     -0.521000
      4 C2         -0.0700    0.6950    0.4890 c3        1 F98     -0.085000
      5 O2         -0.1830    1.1000   -1.8900 oh        1 F98     -0.693000
      6 C3          0.7920   -0.5370    0.3240 c3        1 F98     -0.134000
      7 C4          1.7200   -0.6660    1.5120 c3        1 F98     -0.833000
      8 C11        -3.0410    1.2600   -1.8850 c3        1 F98     -0.213000
      9 PA1         2.6810   -2.2000    1.3660 p5        1 F98      1.674500
     10 OP1         3.6650   -2.2880    2.5080 o         1 F98     -0.762167
     11 OP2         1.7470   -3.3850    1.4130 o         1 F98     -0.762167
     12 OP3         3.4300   -2.2020    0.0550 o         1 F98     -0.762167
     13 H2         -0.6800    0.5680    1.2450 h1        1 F98      0.056000
     14 H2A         0.5010    1.4730    0.6570 h1        1 F98      0.056000
     15 HO2        -0.1080    1.9720   -2.0500 ho        1 F98      0.214000
     16 H3          0.2220   -1.3290    0.2680 hc        1 F98      0.093500
     17 H3A         1.3210   -0.4570   -0.4950 hc        1 F98      0.093500
     18 H4          1.1930   -0.6880    2.3360 hc        1 F98      0.094000
     19 H4A         2.3290    0.0990    1.5350 hc        1 F98      0.094000
     20 H11        -2.7800    0.6470   -2.6040 hc        1 F98      0.061000
     21 H11A       -3.9960    1.1530   -1.6960 hc        1 F98      0.061000
     22 H11B       -2.8650    2.1830   -2.1640 hc        1 F98      0.061000
@<TRIPOS>BOND
     1    1    3 1   
     2    1    8 1   
     3    2    4 1   
     4    2    5 1   
     5    4    6 1   
     6    4   13 1   
     7    4   14 1   
     8    5   15 1   
     9    6    7 1   
    10    6   16 1   
    11    6   17 1   
    12    7    9 1   
    13    7   18 1   
    14    7   19 1   
    15    8   20 1   
    16    8   21 1   
    17    8   22 1   
    18    9   10 1   
    19    9   11 1   
    20    9   12 1   
@<TRIPOS>SUBSTRUCTURE
     1 F98         1 TEMP              0 ****  ****    0 ROOT
