@<TRIPOS>MOLECULE
F98
   22    21     1     0     0
SMALL
bcc


@<TRIPOS>ATOM
      1 C1          0.4980    0.6390   -0.7780 c         1 F98      0.508100
      2 N1          0.4620   -0.4280    0.1520 n         1 F98     -0.051400
      3 O1          1.5230    1.3490   -1.0040 o         1 F98     -0.760100
      4 C2          1.3430   -0.2000    1.3310 c3        1 F98      0.029000
      5 O2         -0.6720   -0.9180    0.4190 o         1 F98     -0.692000
      6 C3          1.8380   -1.4850    1.9880 c3        1 F98     -0.052400
      7 C4          2.7880   -1.1930    3.1160 c3        1 F98     -0.346600
      8 C11        -0.6550    0.7210   -1.7590 c3        1 F98     -0.145100
      9 PA1         3.3210   -2.6240    3.8250 p5        1 F98      1.351600
     10 OP1         2.2110   -3.4270    4.4050 o         1 F98     -0.888500
     11 OP2         3.7690   -3.5810    2.5550 oh        1 F98     -0.796400
     12 OP3         4.5510   -2.3440    4.6130 o         1 F98     -0.888500
     13 H2          0.7910    0.3990    2.1090 h1        1 F98      0.018200
     14 H2A         2.2340    0.3990    0.9940 h1        1 F98      0.018200
     15 HO2         3.1200   -4.2570    2.3980 ho        1 F98      0.415000
     16 H3          2.3660   -2.1290    1.2360 hc        1 F98      0.051700
     17 H3A         0.9720   -2.0770    2.3840 hc        1 F98      0.051700
     18 H4          2.2800   -0.5550    3.8780 hc        1 F98      0.055700
     19 H4A         3.6550   -0.5980    2.7380 hc        1 F98      0.055700
     20 H11        -0.5350    1.6130   -2.4160 hc        1 F98      0.021700
     21 H11A       -1.6150    0.7900   -1.1930 hc        1 F98      0.021700
     22 H11B       -0.6890   -0.2000   -2.3890 hc        1 F98      0.021700
@<TRIPOS>BOND
     1    1    2 1   
     2    1    3 2   
     3    1    8 1   
     4    2    4 1   
     5    2    5 1   
     6    4    6 1   
     7    4   13 1   
     8    4   14 1   
     9    6    7 1   
    10    6   16 1   
    11    6   17 1   
    12    7    9 1   
    13    7   18 1   
    14    7   19 1   
    15    8   20 1   
    16    8   21 1   
    17    8   22 1   
    18    9   10 1   
    19    9   11 1   
    20    9   12 1   
    21   11   15 1   
@<TRIPOS>SUBSTRUCTURE
     1 F98         1 TEMP              0 ****  ****    0 ROOT
