@<TRIPOS>MOLECULE
F9A
   41    37     1     0     0
SMALL
bcc


@<TRIPOS>ATOM
      1 O          -0.5960   -1.0400   -0.3290 o         1 F9A     -0.362000
      2 F1          1.7090    2.7120   -3.5230 f         1 F9A     -0.163333
      3 N1          1.0600    0.4080    0.3070 n         1 F9A     -0.329000
      4 C2          1.9750    0.5330   -2.4340 c2        1 F9A     -0.117000
      5 F2          2.0710    2.7270   -1.3790 f         1 F9A     -0.163333
      6 C3          1.0580   -0.5110   -1.9860 c2        1 F9A     -0.128000
      7 F3          0.1410    2.1340   -2.1430 f         1 F9A     -0.163333
      8 C4          0.7500   -1.5690   -2.7550 c2        1 F9A     -0.073000
      9 C5          4.3270    0.0290   -3.3570 c1        1 F9A     -0.105000
     10 C6          5.5170   -0.2210   -3.8270 c2        1 F9A     -0.058000
     11 C7          3.1740    0.2750   -2.9070 c1        1 F9A     -0.035000
     12 C8          0.4350   -0.4090   -0.6360 c2        1 F9A      0.360000
     13 C9          0.5060    0.6230    1.5890 c2        1 F9A     -0.262000
     14 C10        -0.9180    0.9040    1.7180 c2        1 F9A      0.106000
     15 C11        -1.4880    1.2920    2.8890 c2        1 F9A     -0.257000
     16 C12         0.0540    2.8500    6.0610 c1        1 F9A     -0.227500
     17 C13         0.7450    2.0510    5.4990 c1        1 F9A     -0.227500
     18 C14         1.2620    0.5190    2.7150 c1        1 F9A      0.356000
     19 C15        -2.8650    1.5020    3.0060 c1        1 F9A      0.299000
     20 C16        -2.5500   -2.4450    5.8390 c3        1 F9A     -0.270000
     21 C17        -5.3860    1.8990    3.3030 c3        1 F9A     -0.044000
     22 HN1         1.7960    1.0210    0.0320 hn        1 F9A      0.263000
     23 H4          1.1680   -1.6970   -3.7640 ha        1 F9A      0.148500
     24 H5          0.0600   -2.3540   -2.4080 ha        1 F9A      0.148500
     25 H6          5.9200   -1.2460   -3.8860 ha        1 F9A      0.159000
     26 H7          6.1800    0.5820   -4.1910 ha        1 F9A      0.159000
     27 H10        -1.5260    0.7620    0.7990 ha        1 F9A      0.190000
     28 H12         0.3820   -0.8760    4.5930 ha        1 F9A      0.006500
     29 H13        -0.1350   -0.5160    4.3370 ha        1 F9A      0.006500
     30 H14         1.3890    1.3490    5.0250 ha        1 F9A      0.229500
     31 H15        -0.5410    3.5640    6.5750 ha        1 F9A      0.229500
     32 H15A       -0.9130    1.4740    3.8250 ha        1 F9A      0.217000
     33 H16        -1.6690   -1.9050    5.4270 hc        1 F9A      0.067500
     34 H16A       -3.1350   -1.7620    6.4920 hc        1 F9A      0.067500
     35 H16B       -2.2010   -3.3160    6.4360 hc        1 F9A      0.067500
     36 H17        -3.1910   -2.8050    5.0050 hc        1 F9A      0.067500
     37 H17A       -5.6290    1.8650    4.4030 h1        1 F9A      0.154000
     38 H17B       -5.9510    1.0900    2.7580 h1        1 F9A      0.154000
     39 N2         -4.0070    1.6820    3.1370 n2        1 F9A     -0.090000
     40 H21        -5.6540    2.9090    2.8790 h1        1 F9A      0.154000
     41 C1          1.4850    1.9860   -2.3840 c3        1 F9A      0.463000
@<TRIPOS>BOND
     1    1   12 1   
     2    2   41 1   
     3    3   12 1   
     4    3   13 1   
     5    3   22 1   
     6    4    6 1   
     7    4   11 1   
     8    4   41 1   
     9    5   41 1   
    10    6    8 1   
    11    6   12 1   
    12    7   41 1   
    13    8   23 1   
    14    8   24 1   
    15    9   10 1   
    16    9   11 1   
    17   10   25 1   
    18   10   26 1   
    19   13   14 1   
    20   13   18 1   
    21   14   15 1   
    22   14   27 1   
    23   15   19 1   
    24   15   32 1   
    25   16   17 1   
    26   16   31 1   
    27   17   30 1   
    28   19   39 1   
    29   20   33 1   
    30   20   34 1   
    31   20   35 1   
    32   20   36 1   
    33   21   37 1   
    34   21   38 1   
    35   21   39 1   
    36   21   40 1   
    37   28   29 1   
@<TRIPOS>SUBSTRUCTURE
     1 F9A         1 TEMP              0 ****  ****    0 ROOT
