@<TRIPOS>MOLECULE
F9A
   42    38     1     0     0
SMALL
bcc


@<TRIPOS>ATOM
      1 O         205.0030  -63.7330 -296.7330 oh        1 F9A     -0.188000
      2 F1        204.7060  -65.6290 -293.2770 f         1 F9A     -0.133000
      3 N1        203.5990  -62.0490 -297.6290 n3        1 F9A     -0.119000
      4 C2        203.4000  -63.8850 -294.4000 c2        1 F9A      0.138000
      5 F2        205.8190  -64.2140 -294.4990 f         1 F9A     -0.133000
      6 C3        203.1460  -63.0400 -295.4370 c2        1 F9A     -0.257000
      7 F3        204.5860  -65.7480 -295.4460 f         1 F9A     -0.133000
      8 C4        201.2330  -60.1150 -296.2980 c1        1 F9A     -0.230000
      9 C5        200.5570  -60.9560 -296.8180 c1        1 F9A     -0.230000
     10 C6        202.6060  -64.6470 -292.1340 c1        1 F9A      0.456000
     11 C7        202.5580  -63.9170 -293.2520 c2        1 F9A     -0.542000
     12 C8        203.9330  -62.9220 -296.6520 c2        1 F9A      0.362000
     13 C9        204.3080  -61.9110 -298.7760 c1        1 F9A     -0.218000
     14 C10      -226.8950   68.6320  329.9180 c2        1 F9A     -0.053000
     15 C11      -225.7270   69.1190  329.4760 c2        1 F9A     -0.251000
     16 C12      -221.3290   68.9510  327.6110 c2        1 F9A     -0.321000
     17 C13      -222.3360   69.6110  328.0870 c1        1 F9A      0.047000
     18 C14       204.8860  -61.7350 -299.8120 c1        1 F9A     -0.004000
     19 C15      -225.4420   70.5450  329.5090 c2        1 F9A      0.119000
     20 C16      -221.0780   68.5690  326.2010 c3        1 F9A     -0.156000
     21 C17      -224.0670   72.4900  329.1380 c3        1 F9A     -0.147000
     22 HN1       202.7790  -61.4580 -297.5190 hn        1 F9A      0.316000
     23 H4        202.2640  -62.3680 -295.3770 ha        1 F9A      0.194000
     24 H5        201.7960  -59.3410 -295.8340 ha        1 F9A      0.238000
     25 H6        199.9190  -61.6730 -297.2770 ha        1 F9A      0.238000
     26 H7        201.6850  -63.2120 -293.2580 ha        1 F9A      0.229000
     27 H10      -227.6990   69.2640  330.3280 ha        1 F9A      0.149500
     28 H12      -223.5000   70.4430  328.6760 hn        1 F9A      0.353000
     29 H13      -227.1140   67.5520  329.8940 ha        1 F9A      0.149500
     30 H14       205.4080  -61.5860 -300.7320 ha        1 F9A      0.279000
     31 H15      -220.5310   68.6110  328.3190 ha        1 F9A      0.235000
     32 H15A     -224.9470   68.4490  329.0710 ha        1 F9A      0.162000
     33 H16      -221.0000   67.4540  326.1250 hc        1 F9A      0.115333
     34 H16A     -221.8950   68.9200  325.5250 hc        1 F9A      0.115333
     35 H16B     -220.1110   69.0200  325.8610 hc        1 F9A      0.115333
     36 H17      -223.1560   72.6720  329.7720 h1        1 F9A      0.127667
     37 H17A     -223.8620   72.8530  328.0930 h1        1 F9A      0.127667
     38 H17B     -224.9310   73.0670  329.5640 h1        1 F9A      0.127667
     39 N2       -224.3230   71.0730  329.0940 n3        1 F9A     -0.189000
     40 H121      205.5190  -63.6350 -297.5620 ho        1 F9A      0.297000
     41 H21      -226.2420   71.2080  329.9200 h4        1 F9A      0.172000
     42 C1        204.6130  -64.8570 -294.4060 c3        1 F9A      0.440000
@<TRIPOS>BOND
     1    1   12 1   
     2    1   40 1   
     3    2   42 1   
     4    3   12 1   
     5    3   13 1   
     6    3   22 1   
     7    4    6 1   
     8    4   11 1   
     9    4   42 1   
    10    5   42 1   
    11    6   12 1   
    12    6   23 1   
    13    7   42 1   
    14    8    9 1   
    15    8   24 1   
    16    9   25 1   
    17   10   11 1   
    18   11   26 1   
    19   13   18 1   
    20   14   15 1   
    21   14   27 1   
    22   14   29 1   
    23   15   19 1   
    24   15   32 1   
    25   16   17 1   
    26   16   20 1   
    27   16   31 1   
    28   18   30 1   
    29   19   39 1   
    30   19   41 1   
    31   20   33 1   
    32   20   34 1   
    33   20   35 1   
    34   21   36 1   
    35   21   37 1   
    36   21   38 1   
    37   21   39 1   
    38   28   39 1   
@<TRIPOS>SUBSTRUCTURE
     1 F9A         1 TEMP              0 ****  ****    0 ROOT
