@<TRIPOS>MOLECULE
F9A
   40    37     1     0     0
SMALL
bcc


@<TRIPOS>ATOM
      1 O           2.0910   -1.5120   -0.3350 o         1 F9A     -0.331000
      2 C1          3.1630    1.4470   -2.5220 c3        1 F9A      0.462000
      3 F1          2.9410    2.3570   -3.5190 f         1 F9A     -0.161667
      4 N1          0.0640   -0.8420   -1.2360 n         1 F9A     -0.316000
      5 C2          3.0170    0.0280   -3.0810 c2        1 F9A     -0.137000
      6 F2          4.3920    1.6080   -2.0430 f         1 F9A     -0.161667
      7 N2         -2.7780    1.4160    3.5970 n3        1 F9A     -0.261000
      8 C3          2.2190   -1.0180   -2.6950 c2        1 F9A     -0.073000
      9 F3          2.2630    1.6360   -1.5300 f         1 F9A     -0.161667
     10 C4          2.2830   -2.2290   -3.3740 c1        1 F9A     -0.092000
     11 C5          3.1490   -2.3790   -4.4360 c1        1 F9A     -0.116000
     12 C6          3.9530   -1.3260   -4.8260 c1        1 F9A     -0.116000
     13 C7          3.8890   -0.1220   -4.1510 c1        1 F9A     -0.092000
     14 C8          1.4790   -1.1550   -1.3280 c2        1 F9A      0.347000
     15 C9         -0.6150   -0.9520    0.0220 c2        1 F9A      0.070000
     16 C10        -1.3670    0.1150    0.4980 c2        1 F9A     -0.174000
     17 C11        -2.0430    0.0060    1.7070 c1        1 F9A     -0.054000
     18 C12        -1.9660   -1.1690    2.4380 c1        1 F9A     -0.116000
     19 C13        -1.2120   -2.2370    1.9600 c1        1 F9A     -0.116000
     20 C14        -0.5370   -2.1220    0.7490 c1        1 F9A     -0.150000
     21 C15        -2.9840    1.1360    2.1590 c3        1 F9A     -0.031000
     22 C16        -1.7530    2.4310    3.7480 c3        1 F9A     -0.122000
     23 C17        -4.0090    1.8960    4.1680 c3        1 F9A     -0.122000
     24 HN1        -0.3950   -0.5580   -1.9870 hn        1 F9A      0.239000
     25 H4          1.7180   -2.9700   -3.1000 ha        1 F9A      0.162000
     26 H5          3.1940   -3.2560   -4.9260 ha        1 F9A      0.144250
     27 H6          4.5640   -1.4320   -5.5760 ha        1 F9A      0.144250
     28 H7          4.4640    0.6320   -4.4290 ha        1 F9A      0.158000
     29 H10        -1.4220    0.9600   -0.0310 ha        1 F9A      0.132000
     30 H12        -2.4490   -1.2510    3.3040 ha        1 F9A      0.144250
     31 H13        -1.1550   -3.0780    2.4820 ha        1 F9A      0.144250
     32 H14         0.0010   -2.8830    0.4070 ha        1 F9A      0.169000
     33 H15        -3.9410    0.8570    2.0040 h1        1 F9A      0.077000
     34 H15A       -2.7910    1.9470    1.6390 h1        1 F9A      0.077000
     35 H16        -1.9120    3.1650    3.0870 h1        1 F9A      0.072000
     36 H16A       -0.8710    2.0340    3.5900 h1        1 F9A      0.072000
     37 H16B       -1.7880    2.7990    4.6610 h1        1 F9A      0.072000
     38 H17        -4.7070    1.2380    4.0300 h1        1 F9A      0.072000
     39 H17A       -3.8870    2.0480    5.1360 h1        1 F9A      0.072000
     40 H17B       -4.2620    2.7360    3.7360 h1        1 F9A      0.072000
@<TRIPOS>BOND
     1    1   14 1   
     2    2    3 1   
     3    2    5 1   
     4    2    6 1   
     5    2    9 1   
     6    4   14 1   
     7    4   15 1   
     8    4   24 1   
     9    5    8 1   
    10    5   13 1   
    11    7   21 1   
    12    7   22 1   
    13    7   23 1   
    14    8   10 1   
    15    8   14 1   
    16   10   25 1   
    17   11   12 1   
    18   11   26 1   
    19   12   27 1   
    20   13   28 1   
    21   15   16 1   
    22   15   20 1   
    23   16   17 1   
    24   16   29 1   
    25   17   21 1   
    26   18   19 1   
    27   18   30 1   
    28   19   31 1   
    29   20   32 1   
    30   21   33 1   
    31   21   34 1   
    32   22   35 1   
    33   22   36 1   
    34   22   37 1   
    35   23   38 1   
    36   23   39 1   
    37   23   40 1   
@<TRIPOS>SUBSTRUCTURE
     1 F9A         1 TEMP              0 ****  ****    0 ROOT
