@<TRIPOS>MOLECULE
F9A
   41    37     1     0     0
SMALL
bcc


@<TRIPOS>ATOM
      1 O          -0.4120   -1.3190   -0.2430 o         1 F9A     -0.362000
      2 F1          1.3990    2.6010   -3.5510 f         1 F9A     -0.163333
      3 N1          1.0750    0.3230    0.3350 ns        1 F9A     -0.329000
      4 C2          1.9300    0.4920   -2.4230 c2        1 F9A     -0.117000
      5 F2          1.7870    2.7050   -1.4150 f         1 F9A     -0.163333
      6 C3          1.1460   -0.6400   -1.9390 c2        1 F9A     -0.128000
      7 F3         -0.0720    1.8770   -2.1320 f         1 F9A     -0.163333
      8 C4          0.9530   -1.7440   -2.6800 c2        1 F9A     -0.073000
      9 C5          4.3110    0.2420   -3.3760 c1        1 F9A     -0.105000
     10 C6          5.5140    0.1200   -3.8620 c2        1 F9A     -0.058000
     11 C7          3.1430    0.3630   -2.9110 c1        1 F9A     -0.035000
     12 C8          0.5350   -0.5810   -0.5800 c2        1 F9A      0.360000
     13 C9          0.5190    0.5010    1.6210 c2        1 F9A     -0.261000
     14 C10        -0.9260    0.6140    1.7690 c2        1 F9A      0.105000
     15 C11        -1.5250    0.9320    2.9460 c2        1 F9A     -0.255000
     16 C12        -0.1090    2.8910    5.9710 c1        1 F9A     -0.227500
     17 C13         0.6470    2.1270    5.4440 c1        1 F9A     -0.227500
     18 C14         1.3000    0.5190    2.7350 c1        1 F9A      0.355000
     19 C15        -2.9160    0.9880    3.0750 c1        1 F9A      0.300000
     20 C16        -2.2970   -1.4620    5.8310 c3        1 F9A     -0.264000
     21 C17        -5.4630    1.1110    3.3830 c3        1 F9A     -0.044000
     22 HN1         1.7330    1.0100    0.0360 hn        1 F9A      0.263000
     23 H4          1.3680   -1.8460   -3.6930 ha        1 F9A      0.148500
     24 H5          0.3630   -2.5960   -2.3050 ha        1 F9A      0.148500
     25 H6          6.0320   -0.8520   -3.9080 ha        1 F9A      0.159000
     26 H7          6.0740    0.9860   -4.2530 ha        1 F9A      0.159000
     27 H10        -1.5250    0.4010    0.8570 ha        1 F9A      0.190000
     28 H12         0.6990   -0.8710    4.6700 ha        1 F9A      0.006000
     29 H13         0.0890   -0.6620    4.4560 ha        1 F9A      0.006000
     30 H14         1.3500    1.4620    5.0010 ha        1 F9A      0.229500
     31 H15        -0.7630    3.5760    6.4510 ha        1 F9A      0.229500
     32 H15A       -0.9660    1.1740    3.8780 ha        1 F9A      0.217000
     33 H16        -2.7270   -1.0000    6.7470 hc        1 F9A      0.066250
     34 H16A       -2.2520   -0.7030    5.0170 hc        1 F9A      0.066250
     35 H16B       -1.2690   -1.8260    6.0480 hc        1 F9A      0.066250
     36 H17        -5.7000    0.9750    4.4770 h1        1 F9A      0.154000
     37 H17A       -2.9330   -2.3160    5.5100 hc        1 F9A      0.066250
     38 H17B       -5.9440    0.2880    2.7800 h1        1 F9A      0.154000
     39 N2         -4.0710    1.0470    3.2080 n2        1 F9A     -0.090000
     40 H21        -5.8330    2.1150    3.0300 h1        1 F9A      0.154000
     41 C1          1.2770    1.8800   -2.3940 c3        1 F9A      0.463000
@<TRIPOS>BOND
     1    1   12 1   
     2    2   41 1   
     3    3   12 1   
     4    3   13 1   
     5    3   22 1   
     6    4    6 1   
     7    4   11 1   
     8    4   41 1   
     9    5   41 1   
    10    6    8 1   
    11    6   12 1   
    12    7   41 1   
    13    8   23 1   
    14    8   24 1   
    15    9   10 1   
    16    9   11 1   
    17   10   25 1   
    18   10   26 1   
    19   13   14 1   
    20   13   18 1   
    21   14   15 1   
    22   14   27 1   
    23   15   19 1   
    24   15   32 1   
    25   16   17 1   
    26   16   31 1   
    27   17   30 1   
    28   19   39 1   
    29   20   33 1   
    30   20   34 1   
    31   20   35 1   
    32   20   37 1   
    33   21   36 1   
    34   21   38 1   
    35   21   39 1   
    36   21   40 1   
    37   28   29 1   
@<TRIPOS>SUBSTRUCTURE
     1 F9A         1 TEMP              0 ****  ****    0 ROOT
