@<TRIPOS>MOLECULE
F9A
   40    41     1     0     0
SMALL
bcc


@<TRIPOS>ATOM
      1 O           0.3330    0.0830    1.6390 o         1 F9A     -0.567100
      2 F1          3.3860    0.9460   -2.6130 f         1 F9A     -0.232300
      3 N1          0.1800   -1.2010   -0.2880 n         1 F9A     -0.465100
      4 C2          3.1360   -0.2370   -0.4910 ca        1 F9A     -0.143300
      5 F2          1.4780    1.1700   -1.6240 f         1 F9A     -0.232300
      6 C3          2.3730   -0.6070    0.6210 ca        1 F9A     -0.093600
      7 F3          1.9930   -0.7080   -2.5880 f         1 F9A     -0.232300
      8 C4          3.0180   -1.0590    1.7810 ca        1 F9A     -0.092000
      9 C5          4.4070   -1.1580    1.8240 ca        1 F9A     -0.105000
     10 C6          5.1650   -0.7980    0.7100 ca        1 F9A     -0.117000
     11 C7          4.5320   -0.3340   -0.4410 ca        1 F9A     -0.093000
     12 C8          0.8750   -0.5240    0.6980 c         1 F9A      0.672700
     13 C9         -1.2170   -1.3290   -0.3980 ca        1 F9A      0.061600
     14 C10        -2.1210   -0.5190    0.3200 ca        1 F9A     -0.125000
     15 C11        -3.4980   -0.6960    0.1620 ca        1 F9A     -0.062300
     16 C12        -3.9920   -1.6690   -0.7100 ca        1 F9A     -0.150000
     17 C13        -3.1030   -2.4680   -1.4260 ca        1 F9A     -0.110000
     18 C14        -1.7300   -2.3100   -1.2810 ca        1 F9A     -0.175000
     19 C15        -4.4520    0.1360    0.9730 c3        1 F9A      0.213100
     20 C16        -4.6090    1.9780   -0.5990 c3        1 F9A      0.156100
     21 C17        -5.0320    2.3430    1.7450 c3        1 F9A      0.156100
     22 HN1         0.7110   -1.6640   -0.9940 hn        1 F9A      0.326500
     23 H4          2.4110   -1.3210    2.6630 ha        1 F9A      0.162000
     24 H5          4.9040   -1.5160    2.7390 ha        1 F9A      0.147000
     25 H6          6.2630   -0.8720    0.7380 ha        1 F9A      0.147000
     26 H7          5.1320   -0.0370   -1.3170 ha        1 F9A      0.157000
     27 H10        -1.7580    0.2630    1.0090 ha        1 F9A      0.182000
     28 H12        -5.0760   -1.8050   -0.8340 ha        1 F9A      0.132000
     29 H13        -3.4890   -3.2330   -2.1160 ha        1 F9A      0.132000
     30 H14        -1.0500   -2.9520   -1.8610 ha        1 F9A      0.131000
     31 H15        -4.2390   -0.0650    2.0640 h1        1 F9A      0.038700
     32 H15A       -5.5080   -0.2110    0.7650 h1        1 F9A      0.038700
     33 H16        -5.6920    1.8490   -0.8750 h1        1 F9A      0.031867
     34 H16A       -4.3380    3.0600   -0.7160 h1        1 F9A      0.031867
     35 H16B       -3.9860    1.3700   -1.3050 h1        1 F9A      0.031867
     36 H17        -4.6550    2.0720    2.7650 h1        1 F9A      0.031867
     37 H17A       -4.8310    3.4320    1.5650 h1        1 F9A      0.031867
     38 H17B       -6.1440    2.1770    1.7180 h1        1 F9A      0.031867
     39 C1          2.5110    0.2840   -1.7850 c3        1 F9A      0.684200
     40 N2         -4.3140    1.5710    0.7560 n3        1 F9A     -0.733600
@<TRIPOS>BOND
     1    1   12 2   
     2    2   39 1   
     3    3   12 1   
     4    3   13 1   
     5    3   22 1   
     6    4    6 ar  
     7    4   11 ar  
     8    4   39 1   
     9    5   39 1   
    10    6    8 ar  
    11    6   12 1   
    12    7   39 1   
    13    8    9 ar  
    14    8   23 1   
    15    9   10 ar  
    16    9   24 1   
    17   10   11 ar  
    18   10   25 1   
    19   11   26 1   
    20   13   14 ar  
    21   13   18 ar  
    22   14   15 ar  
    23   14   27 1   
    24   15   16 ar  
    25   15   19 1   
    26   16   17 ar  
    27   16   28 1   
    28   17   18 ar  
    29   17   29 1   
    30   18   30 1   
    31   19   31 1   
    32   19   32 1   
    33   19   40 1   
    34   20   33 1   
    35   20   34 1   
    36   20   35 1   
    37   20   40 1   
    38   21   36 1   
    39   21   37 1   
    40   21   38 1   
    41   21   40 1   
@<TRIPOS>SUBSTRUCTURE
     1 F9A         1 TEMP              0 ****  ****    0 ROOT
