@<TRIPOS>MOLECULE
F9F
   31    31     1     0     0
SMALL
bcc


@<TRIPOS>ATOM
      1 C1          0.1950    0.2240    0.1390 ca        1 F9F      0.045100
      2 C2          1.2180    1.1780    0.0870 ca        1 F9F     -0.157500
      3 C3          2.2570    1.0810    1.0110 ca        1 F9F     -0.053000
      4 C4          2.2830    0.0650    1.9670 ca        1 F9F     -0.187500
      5 C5          1.2580   -0.8770    1.9880 ca        1 F9F     -0.053000
      6 C6          0.2040   -0.8160    1.0730 ca        1 F9F     -0.157500
      7 O7         -0.9430    0.3690   -0.6730 os        1 F9F     -0.371900
      8 C8         -0.8180    0.0410   -2.0200 c3        1 F9F      0.811700
      9 F9F        -0.3730   -1.2210   -2.2460 f         1 F9F     -0.236633
     10 F10        -2.0750    0.1450   -2.5350 f         1 F9F     -0.236633
     11 F11        -0.0210    0.9060   -2.7020 f         1 F9F     -0.236633
     12 S12         3.6780    0.0480    3.1890 sy        1 F9F      1.486000
     13 N13         3.8880   -1.2720    3.5360 n2        1 F9F     -1.020700
     14 C14         3.8480   -2.6510    3.6240 c3        1 F9F      0.357800
     15 C15         2.9190   -3.2330    4.7230 c3        1 F9F      0.150400
     16 O16         2.6590   -4.5730    4.4130 os        1 F9F     -0.594200
     17 P17         2.7810   -5.6890    5.6080 p5        1 F9F      1.427800
     18 O18         2.8140   -7.0180    4.9540 o         1 F9F     -0.847500
     19 O19         3.6960   -5.2340    6.6740 o         1 F9F     -0.847500
     20 O20         1.2320   -5.5930    6.1440 oh        1 F9F     -0.782400
     21 O21         3.1790    0.9510    4.1890 o         1 F9F     -0.726200
     22 O22         4.7090    0.7150    2.4320 o         1 F9F     -0.769800
     23 H2          1.1910    1.9730   -0.6690 ha        1 F9F      0.124500
     24 H3          3.0860    1.8100    0.9910 ha        1 F9F      0.157000
     25 H5          1.2780   -1.6970    2.7290 ha        1 F9F      0.157000
     26 H6         -0.6070   -1.5570    1.0870 ha        1 F9F      0.124500
     27 H13         0.6600   -6.1520    5.6330 ho        1 F9F      0.413000
     28 H141        3.5130   -3.1090    2.6420 h1        1 F9F     -0.011800
     29 H142        4.8890   -3.0450    3.8260 h1        1 F9F     -0.011800
     30 H151        3.4020   -3.1560    5.7340 h1        1 F9F      0.022700
     31 H152        1.9410   -2.6730    4.7350 h1        1 F9F      0.022700
@<TRIPOS>BOND
     1    1    2 ar  
     2    1    6 ar  
     3    1    7 1   
     4    2    3 ar  
     5    2   23 1   
     6    3    4 ar  
     7    3   24 1   
     8    4    5 ar  
     9    4   12 1   
    10    5    6 ar  
    11    5   25 1   
    12    6   26 1   
    13    7    8 1   
    14    8    9 1   
    15    8   10 1   
    16    8   11 1   
    17   12   13 2   
    18   12   21 1   
    19   12   22 2   
    20   13   14 1   
    21   14   15 1   
    22   14   28 1   
    23   14   29 1   
    24   15   16 1   
    25   15   30 1   
    26   15   31 1   
    27   16   17 1   
    28   17   18 1   
    29   17   19 1   
    30   17   20 1   
    31   20   27 1   
@<TRIPOS>SUBSTRUCTURE
     1 F9F         1 TEMP              0 ****  ****    0 ROOT
