@<TRIPOS>MOLECULE
F9F
   31    27     1     0     0
SMALL
bcc


@<TRIPOS>ATOM
      1 C1         -2.5220   -1.3720   -2.1180 c1        1 F9F      0.001000
      2 C2         -3.2000   -1.2610   -0.8930 c1        1 F9F     -0.112000
      3 C3         -2.4770   -1.1370    0.2960 c1        1 F9F     -0.112000
      4 C4         -1.0850   -1.1230    0.2670 c1        1 F9F     -0.635000
      5 C5         -0.4080   -1.2340   -0.9580 c1        1 F9F     -0.052000
      6 C6         -1.1300   -1.3580   -2.1470 c1        1 F9F     -0.143000
      7 O7         -3.2600   -1.5860   -3.3230 os        1 F9F     -0.253000
      8 C8         -3.5330   -0.4270   -4.0310 c3        1 F9F      0.527000
      9 F9F        -4.1570   -0.7440   -5.1930 f         1 F9F     -0.165667
     10 F10        -2.3860    0.2130   -4.3000 f         1 F9F     -0.165667
     11 F11        -4.3430    0.3830   -3.2850 f         1 F9F     -0.165667
     12 S12        -0.1400   -0.9950    1.8250 s4        1 F9F      2.179800
     13 N13         0.5110    0.4880    1.9790 n2        1 F9F     -1.327000
     14 C14         1.6300    0.6980    2.8770 c3        1 F9F      0.169000
     15 C15         2.5950    1.7140    2.2620 c3        1 F9F     -0.009000
     16 O16         3.5160    1.0400    1.4250 os        1 F9F     -0.741000
     17 P17         4.5030    1.9120    0.5080 p5        1 F9F      1.573500
     18 O18         5.1630    2.9970    1.3580 o         1 F9F     -0.733500
     19 O19         5.5790    1.0070   -0.0850 o         1 F9F     -0.733500
     20 O20         3.7060    2.5630   -0.6210 o         1 F9F     -0.733500
     21 O21        -0.9760   -1.3260    2.9760 o         1 F9F     -0.657400
     22 O22         0.8850   -2.0290    1.9050 o         1 F9F     -0.657400
     23 H2         -4.1950   -1.2700   -0.8720 ha        1 F9F      0.138000
     24 H3         -2.9610   -1.0580    1.1720 ha        1 F9F      0.138000
     25 H5          0.5490   -1.2200   -0.9780 ha        1 F9F      0.158000
     26 H6         -0.6520   -1.4360   -3.0090 ha        1 F9F      0.131000
     27 H13         0.2050    1.1580    1.4920 hn        1 F9F      0.218000
     28 H141        2.0980   -0.1510    3.0210 h1        1 F9F      0.026000
     29 H142        1.3020    1.0380    3.7320 h1        1 F9F      0.026000
     30 H151        2.1080    2.3460    1.7520 h1        1 F9F      0.055500
     31 H152        3.0740    2.1700    2.9690 h1        1 F9F      0.055500
@<TRIPOS>BOND
     1    1    6 1   
     2    1    7 1   
     3    2    3 1   
     4    2   23 1   
     5    3   24 1   
     6    4    5 1   
     7    4   12 1   
     8    5   25 1   
     9    6   26 1   
    10    7    8 1   
    11    8    9 1   
    12    8   10 1   
    13    8   11 1   
    14   12   21 1   
    15   12   22 1   
    16   13   14 1   
    17   13   27 1   
    18   14   15 1   
    19   14   28 1   
    20   14   29 1   
    21   15   16 1   
    22   15   30 1   
    23   15   31 1   
    24   16   17 1   
    25   17   18 1   
    26   17   19 1   
    27   17   20 1   
@<TRIPOS>SUBSTRUCTURE
     1 F9F         1 TEMP              0 ****  ****    0 ROOT
