@<TRIPOS>MOLECULE
F9F
   31    31     1     0     0
SMALL
bcc


@<TRIPOS>ATOM
      1 C1         -3.3450   -0.1500   -0.6250 ca        1 F9F      0.045100
      2 C2         -3.6240   -1.0120    0.4420 ca        1 F9F     -0.157500
      3 C3         -2.5530   -1.5940    1.1170 ca        1 F9F     -0.053000
      4 C4         -1.2340   -1.3320    0.7440 ca        1 F9F     -0.187500
      5 C5         -0.9850   -0.4630   -0.3150 ca        1 F9F     -0.053000
      6 C6         -2.0340    0.1450   -1.0110 ca        1 F9F     -0.157500
      7 O7         -4.3920    0.3390   -1.4250 os        1 F9F     -0.371900
      8 C8         -5.1700    1.3700   -0.9070 c3        1 F9F      0.811700
      9 F9F        -4.4620    2.4650   -0.5290 f         1 F9F     -0.236633
     10 F10        -6.0060    1.7350   -1.9170 f         1 F9F     -0.236633
     11 F11        -5.9400    0.9730    0.1420 f         1 F9F     -0.236633
     12 S12         0.1240   -2.1950    1.6670 sy        1 F9F      1.486000
     13 N13         1.2220   -1.3570    1.6340 n2        1 F9F     -1.020700
     14 C14         2.0820   -0.2920    1.4430 c3        1 F9F      0.357800
     15 C15         2.9580   -0.3500    0.1630 c3        1 F9F      0.150400
     16 O16         3.4290    0.9400   -0.1060 os        1 F9F     -0.594200
     17 P17         5.0150    1.1320   -0.4740 p5        1 F9F      1.427800
     18 O18         5.3130    2.5780   -0.3550 o         1 F9F     -0.847500
     19 O19         5.8310    0.0380    0.0900 o         1 F9F     -0.847500
     20 O20         4.8800    0.9280   -2.0970 oh        1 F9F     -0.782400
     21 O21         0.1900   -3.4420    0.9590 o         1 F9F     -0.726200
     22 O22        -0.5130   -2.4160    2.9420 o         1 F9F     -0.769800
     23 H2         -4.6640   -1.2100    0.7310 ha        1 F9F      0.124500
     24 H3         -2.7370   -2.2680    1.9720 ha        1 F9F      0.157000
     25 H5          0.0560   -0.2340   -0.6070 ha        1 F9F      0.157000
     26 H6         -1.8420    0.8300   -1.8460 ha        1 F9F      0.124500
     27 H13         4.6460    1.7430   -2.5240 ho        1 F9F      0.413000
     28 H141        2.7880   -0.2160    2.3240 h1        1 F9F     -0.011800
     29 H142        1.5100    0.6860    1.4000 h1        1 F9F     -0.011800
     30 H151        2.3350   -0.6920   -0.7130 h1        1 F9F      0.022700
     31 H152        3.8200   -1.0560    0.3010 h1        1 F9F      0.022700
@<TRIPOS>BOND
     1    1    2 ar  
     2    1    6 ar  
     3    1    7 1   
     4    2    3 ar  
     5    2   23 1   
     6    3    4 ar  
     7    3   24 1   
     8    4    5 ar  
     9    4   12 1   
    10    5    6 ar  
    11    5   25 1   
    12    6   26 1   
    13    7    8 1   
    14    8    9 1   
    15    8   10 1   
    16    8   11 1   
    17   12   13 2   
    18   12   21 1   
    19   12   22 2   
    20   13   14 1   
    21   14   15 1   
    22   14   28 1   
    23   14   29 1   
    24   15   16 1   
    25   15   30 1   
    26   15   31 1   
    27   16   17 1   
    28   17   18 1   
    29   17   19 1   
    30   17   20 1   
    31   20   27 1   
@<TRIPOS>SUBSTRUCTURE
     1 F9F         1 TEMP              0 ****  ****    0 ROOT
