@<TRIPOS>MOLECULE
F9J
   51    54     1     0     0
SMALL
bcc


@<TRIPOS>ATOM
      1 C1          3.0050    0.2780   -2.2300 c3        1 F9J     -0.139400
      2 C2          3.6460    0.0500   -0.9220 cc        1 F9J      0.337600
      3 C3          3.1370   -0.8010    0.1240 cc        1 F9J     -0.202300
      4 C4          4.1000   -0.6960    1.1580 cd        1 F9J     -0.131700
      5 N1          5.1030    0.1850    0.6960 na        1 F9J      0.039400
      6 N2          4.8300    0.6220   -0.5160 nd        1 F9J     -0.432800
      7 N3          4.0920   -1.3620    2.4400 n4        1 F9J     -0.575100
      8 C5          4.0600   -0.3910    3.5920 ca        1 F9J      0.762900
      9 N4          2.9360   -0.4290    4.3440 nb        1 F9J     -0.750000
     10 C6          2.8790    0.4290    5.4310 ca        1 F9J      0.695200
     11 C7          3.9990    1.3020    5.6860 ca        1 F9J     -0.110700
     12 C8          5.1110    1.2570    4.7810 ca        1 F9J      0.704600
     13 N5          5.1620    0.4080    3.7160 nb        1 F9J     -0.777000
     14 O1          6.1020    2.1510    5.0520 os        1 F9J     -0.394100
     15 C9          7.3710    2.0330    4.3680 c3        1 F9J      0.130800
     16 C10         8.1500    3.2440    4.8540 c3        1 F9J     -0.101100
     17 C11         8.1100    0.7370    4.7040 ca        1 F9J      0.586300
     18 N6          7.5380   -0.1610    5.5620 nb        1 F9J     -0.672000
     19 C12         8.2530   -1.2570    5.8670 ca        1 F9J      0.403200
     20 C13         9.5400   -1.4890    5.3160 ca        1 F9J     -0.087700
     21 C14        10.0390   -0.5090    4.4130 ca        1 F9J      0.403200
     22 N7          9.3370    0.5900    4.1060 nb        1 F9J     -0.672000
     23 F1         10.2520   -2.5860    5.6270 f         1 F9J     -0.098900
     24 F2          4.0490    2.1320    6.7400 f         1 F9J     -0.074900
     25 N8          1.7970    0.3590    6.3080 nh        1 F9J     -0.720300
     26 C15         0.8660   -0.7580    6.1780 c3        1 F9J      0.152300
     27 C16        -0.0770   -0.8650    7.3880 c3        1 F9J      0.119400
     28 O2         -0.7250    0.3720    7.6510 os        1 F9J     -0.394600
     29 C17         0.2110    1.4100    7.9070 c3        1 F9J      0.119400
     30 C18         1.1590    1.6090    6.7140 c3        1 F9J      0.152300
     31 H11C        2.7970    1.3680   -2.3830 hc        1 F9J      0.073033
     32 H12C        3.6720   -0.0700   -3.0600 hc        1 F9J      0.073033
     33 H13C        2.0410   -0.2840   -2.2830 hc        1 F9J      0.073033
     34 H3          2.2240   -1.3880    0.1070 ha        1 F9J      0.193000
     35 H1          5.8990    0.5210    1.2000 hn        1 F9J      0.359700
     36 HA          4.9340   -1.9490    2.5380 hn        1 F9J      0.484300
     37 H9          7.1930    2.0810    3.2580 h1        1 F9J      0.079700
     38 H101        9.0990    3.3270    4.2700 hc        1 F9J      0.074700
     39 H102        7.5420    4.1690    4.7010 hc        1 F9J      0.074700
     40 H103        8.3890    3.1510    5.9400 hc        1 F9J      0.074700
     41 H12         7.8000   -1.9700    6.5800 h4        1 F9J      0.057600
     42 H14        11.0320   -0.6220    3.9370 h4        1 F9J      0.057600
     43 H151        1.4500   -1.7170    6.1100 h1        1 F9J      0.067700
     44 H152        0.2450   -0.6440    5.2440 h1        1 F9J      0.067700
     45 H181        0.5670    2.0260    5.8480 h1        1 F9J      0.067700
     46 H182        1.9400    2.3620    7.0120 h1        1 F9J      0.067700
     47 H161        0.4810   -1.2070    8.2980 h1        1 F9J      0.074700
     48 H162       -0.9110   -1.5770    7.1510 h1        1 F9J      0.074700
     49 H171       -0.4160    2.3310    8.0440 h1        1 F9J      0.074700
     50 H172        0.7880    1.1880    8.8420 h1        1 F9J      0.074700
     51 H32         3.2490   -1.9590    2.4750 hn        1 F9J      0.484300
@<TRIPOS>BOND
     1    1    2 1   
     2    1   31 1   
     3    1   32 1   
     4    1   33 1   
     5    2    3 1   
     6    2    6 2   
     7    3    4 2   
     8    3   34 1   
     9    4    5 1   
    10    4    7 1   
    11    5    6 1   
    12    5   35 1   
    13    7    8 1   
    14    7   36 1   
    15    7   51 1   
    16    8    9 ar  
    17    8   13 ar  
    18    9   10 ar  
    19   10   11 ar  
    20   10   25 1   
    21   11   12 ar  
    22   11   24 1   
    23   12   13 ar  
    24   12   14 1   
    25   14   15 1   
    26   15   16 1   
    27   15   17 1   
    28   15   37 1   
    29   16   38 1   
    30   16   39 1   
    31   16   40 1   
    32   17   18 ar  
    33   17   22 ar  
    34   18   19 ar  
    35   19   20 ar  
    36   19   41 1   
    37   20   21 ar  
    38   20   23 1   
    39   21   22 ar  
    40   21   42 1   
    41   25   26 1   
    42   25   30 1   
    43   26   27 1   
    44   26   43 1   
    45   26   44 1   
    46   27   28 1   
    47   27   47 1   
    48   27   48 1   
    49   28   29 1   
    50   29   30 1   
    51   29   49 1   
    52   29   50 1   
    53   30   45 1   
    54   30   46 1   
@<TRIPOS>SUBSTRUCTURE
     1 F9J         1 TEMP              0 ****  ****    0 ROOT
