@<TRIPOS>MOLECULE
F9J
   50    53     1     0     0
SMALL
bcc


@<TRIPOS>ATOM
      1 C1          0.0650    0.0230   -0.8980 c3        1 F9J     -0.121400
      2 C2          1.4680    0.2550   -0.5080 cc        1 F9J      0.308600
      3 C3          2.1580   -0.4370    0.5590 cc        1 F9J     -0.238300
      4 C4          3.4550    0.1150    0.5740 cd        1 F9J      0.066300
      5 N1          3.4560    1.1290   -0.4310 na        1 F9J     -0.037600
      6 N2          2.3060    1.1590   -1.0980 nd        1 F9J     -0.507800
      7 N3          4.5520   -0.2180    1.3790 nh        1 F9J     -0.667300
      8 C5          4.5190    0.1070    2.7650 ca        1 F9J      0.899900
      9 N4          3.3010    0.1740    3.3950 nb        1 F9J     -0.767000
     10 C6          3.2900    0.3530    4.7530 ca        1 F9J      0.673200
     11 C7          4.5210    0.4830    5.4790 ca        1 F9J     -0.176700
     12 C8          5.7290    0.4420    4.7120 ca        1 F9J      0.679600
     13 N5          5.7550    0.2700    3.3740 nb        1 F9J     -0.812000
     14 O1          6.8700    0.6160    5.4560 os        1 F9J     -0.423100
     15 C9          8.1500    0.4420    4.8060 c3        1 F9J      0.127800
     16 C10         8.5830    1.7300    4.1410 c3        1 F9J     -0.116100
     17 C11         9.0790    0.0510    5.9640 ca        1 F9J      0.617300
     18 N6          9.4070   -1.2760    6.0620 nb        1 F9J     -0.653000
     19 C12        10.2040   -1.6340    7.0800 ca        1 F9J      0.399200
     20 C13        10.6870   -0.6860    8.0220 ca        1 F9J     -0.100700
     21 C14        10.2930    0.6650    7.8320 ca        1 F9J      0.399200
     22 N7          9.4970    1.0360    6.8160 nb        1 F9J     -0.653000
     23 F1         11.4820   -1.0520    9.0440 f         1 F9J     -0.115900
     24 F2          4.5780    0.6300    6.8170 f         1 F9J     -0.107900
     25 N8          2.0620    0.3200    5.4630 nh        1 F9J     -0.723300
     26 C15         0.8920   -0.1690    4.7400 c3        1 F9J      0.147800
     27 C16        -0.3170   -0.3280    5.6720 c3        1 F9J      0.123400
     28 O2         -0.5910    0.8700    6.3890 os        1 F9J     -0.412600
     29 C17         0.5330    1.3120    7.1400 c3        1 F9J      0.123400
     30 C18         1.7660    1.5140    6.2490 c3        1 F9J      0.147800
     31 H11C       -0.2940   -0.9370   -0.4530 hc        1 F9J      0.050033
     32 H12C       -0.0440   -0.0330   -2.0100 hc        1 F9J      0.050033
     33 H13C       -0.5820    0.8560   -0.5230 hc        1 F9J      0.050033
     34 H3          1.7600   -1.2020    1.2160 ha        1 F9J      0.177000
     35 H1          4.2570    1.5650   -0.8260 hn        1 F9J      0.310700
     36 HA          5.4480   -0.0840    0.9500 hn        1 F9J      0.434800
     37 H9          8.1030   -0.4020    4.0620 h1        1 F9J      0.097700
     38 H101        8.4190    2.6020    4.8190 hc        1 F9J      0.058700
     39 H102        9.6670    1.6720    3.8800 hc        1 F9J      0.058700
     40 H103        7.9950    1.8900    3.2050 hc        1 F9J      0.058700
     41 H12        10.4690   -2.7040    7.1590 h4        1 F9J      0.047100
     42 H14        10.6280    1.4600    8.5230 h4        1 F9J      0.047100
     43 H151        1.1380   -1.1750    4.3000 h1        1 F9J      0.061700
     44 H152        0.6070    0.5270    3.8990 h1        1 F9J      0.061700
     45 H181        1.5790    2.3990    5.5730 h1        1 F9J      0.061700
     46 H182        2.6470    1.7490    6.9080 h1        1 F9J      0.061700
     47 H161       -0.1560   -1.1710    6.3950 h1        1 F9J      0.058950
     48 H162       -1.2420   -0.5100    5.0650 h1        1 F9J      0.058950
     49 H171        0.7520    0.5790    7.9600 h1        1 F9J      0.058950
     50 H172        0.2140    2.2960    7.5730 h1        1 F9J      0.058950
@<TRIPOS>BOND
     1    1    2 1   
     2    1   31 1   
     3    1   32 1   
     4    1   33 1   
     5    2    3 1   
     6    2    6 2   
     7    3    4 2   
     8    3   34 1   
     9    4    5 1   
    10    4    7 1   
    11    5    6 1   
    12    5   35 1   
    13    7    8 1   
    14    7   36 1   
    15    8    9 ar  
    16    8   13 ar  
    17    9   10 ar  
    18   10   11 ar  
    19   10   25 1   
    20   11   12 ar  
    21   11   24 1   
    22   12   13 ar  
    23   12   14 1   
    24   14   15 1   
    25   15   16 1   
    26   15   17 1   
    27   15   37 1   
    28   16   38 1   
    29   16   39 1   
    30   16   40 1   
    31   17   18 ar  
    32   17   22 ar  
    33   18   19 ar  
    34   19   20 ar  
    35   19   41 1   
    36   20   21 ar  
    37   20   23 1   
    38   21   22 ar  
    39   21   42 1   
    40   25   26 1   
    41   25   30 1   
    42   26   27 1   
    43   26   43 1   
    44   26   44 1   
    45   27   28 1   
    46   27   47 1   
    47   27   48 1   
    48   28   29 1   
    49   29   30 1   
    50   29   49 1   
    51   29   50 1   
    52   30   45 1   
    53   30   46 1   
@<TRIPOS>SUBSTRUCTURE
     1 F9J         1 TEMP              0 ****  ****    0 ROOT
