@<TRIPOS>MOLECULE
F9J
   50    46     1     0     0
SMALL
bcc


@<TRIPOS>ATOM
      1 C1         -0.9970   -6.0910   -2.7610 c3        1 F9J     -0.144000
      2 C2         -1.3850   -4.6440   -2.4170 c2        1 F9J     -0.104000
      3 C3         -0.7280   -3.4910   -2.8560 c1        1 F9J     -0.262000
      4 C4         -1.3660   -2.3950   -2.2930 c1        1 F9J      0.026000
      5 N1         -2.4040   -2.8620   -1.5150 n2        1 F9J     -0.130000
      6 N2         -2.4120   -4.2590   -1.5960 n2        1 F9J     -0.082000
      7 N3         -1.0470   -1.0120   -2.5370 n2        1 F9J     -0.193000
      8 C5         -0.8950   -0.1070   -1.4350 c2        1 F9J      0.171000
      9 N4         -1.9970    0.2730   -0.6980 n2        1 F9J     -0.212000
     10 C6         -1.8450    1.0610    0.3740 c1        1 F9J      0.133000
     11 C7         -0.5780    1.4930    0.7410 c1        1 F9J     -0.087000
     12 C8          0.5050    1.1150    0.0090 c1        1 F9J      0.187000
     13 N5          0.3480    0.3190   -1.0730 n1        1 F9J     -0.268000
     14 O1          1.8500    1.5500    0.4080 os        1 F9J     -0.171000
     15 C9          2.8180    1.4320   -0.6150 c3        1 F9J      0.109000
     16 C10         3.1270    2.8160   -1.1880 c3        1 F9J     -0.217000
     17 C11         4.0760    0.8320   -0.0500 c2        1 F9J     -0.007000
     18 N6          4.7290   -0.1520   -0.7350 n2        1 F9J     -0.144000
     19 C12         5.8490   -0.6850   -0.2350 c1        1 F9J     -0.061000
     20 C13         6.3330   -0.2490    0.9490 c1        1 F9J     -0.014000
     21 C14         5.6750    0.7400    1.6340 c1        1 F9J     -0.061000
     22 N7          4.5590    1.2680    1.1320 n1        1 F9J     -0.133000
     23 F1          7.5470   -0.6710    1.3800 f         1 F9J     -0.081000
     24 F2         -0.4120    2.2120    1.8760 f         1 F9J     -0.074000
     25 N8         -2.9630    1.3510    1.2080 n3        1 F9J     -0.217000
     26 C15        -3.1320    2.7640    1.2990 c3        1 F9J     -0.101000
     27 C16        -4.2190    3.1560    2.2920 c3        1 F9J     -0.023000
     28 O2         -4.0420    2.5570    3.5440 os        1 F9J     -0.268000
     29 C17        -3.8710    1.1360    3.4580 c3        1 F9J     -0.023000
     30 C18        -2.7840    0.7440    2.4730 c3        1 F9J     -0.101000
     31 H11C       -1.7350   -6.7280   -2.4440 hc        1 F9J      0.088333
     32 H12C       -0.1910   -6.3100   -2.3330 hc        1 F9J      0.088333
     33 H13C       -0.8880   -6.1750   -3.7050 hc        1 F9J      0.088333
     34 H3          0.0680   -3.4610   -3.4720 DU        1 F9J      0.230500
     35 H1         -2.9880   -2.3460   -1.0300 DU        1 F9J      0.230500
     36 HA         -1.0320   -0.7000   -3.3720 hn        1 F9J      0.249000
     37 H9          2.4910    0.8840   -1.2890 h1        1 F9J      0.132000
     38 H101        2.8510    3.5070   -0.5470 hc        1 F9J      0.101667
     39 H102        2.6390    2.9380   -2.0290 hc        1 F9J      0.101667
     40 H103        4.0730    2.8900   -1.3520 hc        1 F9J      0.101667
     41 H12         6.3190   -1.3960   -0.7290 ha        1 F9J      0.183000
     42 H14         6.0190    1.0520    2.4780 ha        1 F9J      0.184000
     43 H151       -2.2550    3.1810    1.5940 h1        1 F9J      0.094500
     44 H152       -3.3720    3.1210    0.3980 h1        1 F9J      0.094500
     45 H181       -1.8850    1.0290    2.8500 h1        1 F9J      0.094500
     46 H182       -2.7880   -0.2150    2.3640 h1        1 F9J      0.094500
     47 H161       -5.1260    2.8750    1.9170 h1        1 F9J      0.098000
     48 H162       -4.2090    4.1170    2.4020 h1        1 F9J      0.098000
     49 H171       -3.6380    0.7910    4.3410 h1        1 F9J      0.098000
     50 H172       -4.6940    0.7440    3.1810 h1        1 F9J      0.098000
@<TRIPOS>BOND
     1    1    2 1   
     2    1   31 1   
     3    1   32 1   
     4    1   33 1   
     5    2    3 1   
     6    2    6 1   
     7    3    4 1   
     8    4    5 1   
     9    5    6 1   
    10    7    8 1   
    11    7   36 1   
    12    8    9 1   
    13    8   13 1   
    14    9   10 1   
    15   10   25 1   
    16   11   12 1   
    17   11   24 1   
    18   12   14 1   
    19   14   15 1   
    20   15   16 1   
    21   15   17 1   
    22   15   37 1   
    23   16   38 1   
    24   16   39 1   
    25   16   40 1   
    26   17   18 1   
    27   17   22 1   
    28   18   19 1   
    29   19   41 1   
    30   20   21 1   
    31   20   23 1   
    32   21   42 1   
    33   25   26 1   
    34   25   30 1   
    35   26   27 1   
    36   26   43 1   
    37   26   44 1   
    38   27   28 1   
    39   27   47 1   
    40   27   48 1   
    41   28   29 1   
    42   29   30 1   
    43   29   49 1   
    44   29   50 1   
    45   30   45 1   
    46   30   46 1   
@<TRIPOS>SUBSTRUCTURE
     1 F9J         1 TEMP              0 ****  ****    0 ROOT
