@<TRIPOS>MOLECULE
F9J
   50    53     1     0     0
SMALL
bcc


@<TRIPOS>ATOM
      1 C1         -6.2260   -4.1450    1.2260 c3        1 F9J     -0.120400
      2 C2         -5.2520   -3.2500    0.5760 cc        1 F9J      0.320600
      3 C3         -3.8480   -3.5330    0.4050 cc        1 F9J     -0.324300
      4 C4         -3.3320   -2.4010   -0.2750 cd        1 F9J      0.087300
      5 N1         -4.4310   -1.5420   -0.4910 na        1 F9J      0.010400
      6 N2         -5.5480   -2.0240    0.0430 nd        1 F9J     -0.517800
      7 N3         -2.0370   -2.2160   -0.7770 nh        1 F9J     -0.677300
      8 C5         -1.3290   -1.0070   -0.5640 ca        1 F9J      0.909900
      9 N4         -2.0420    0.1570   -0.4160 nb        1 F9J     -0.807000
     10 C6         -1.3460    1.3300   -0.2950 ca        1 F9J      0.680200
     11 C7          0.0870    1.3310   -0.3400 ca        1 F9J     -0.178700
     12 C8          0.7280    0.0610   -0.5120 ca        1 F9J      0.685600
     13 N5          0.0560   -1.1040   -0.6120 nb        1 F9J     -0.810000
     14 O1          2.0970    0.1300   -0.5600 os        1 F9J     -0.422100
     15 C9          2.8490   -1.1050   -0.6350 c3        1 F9J      0.128800
     16 C10         2.9450   -1.5800   -2.0680 c3        1 F9J     -0.118100
     17 C11         4.2190   -0.7110   -0.0650 ca        1 F9J      0.617300
     18 N6          4.4800   -1.1040    1.2210 nb        1 F9J     -0.653000
     19 C12         5.6680   -0.7530    1.7370 ca        1 F9J      0.398700
     20 C13         6.6150   -0.0020    0.9910 ca        1 F9J     -0.100700
     21 C14         6.2510    0.3560   -0.3340 ca        1 F9J      0.398700
     22 N7          5.0670    0.0090   -0.8620 nb        1 F9J     -0.653000
     23 F1          7.8030    0.3520    1.5150 f         1 F9J     -0.114900
     24 F2          0.8300    2.4480   -0.2120 f         1 F9J     -0.106900
     25 N8         -2.0380    2.5420   -0.0340 nh        1 F9J     -0.725300
     26 C15        -3.4340    2.4330    0.3740 c3        1 F9J      0.148300
     27 C16        -4.0070    3.7940    0.7930 c3        1 F9J      0.122900
     28 O2         -3.8150    4.7780   -0.2160 os        1 F9J     -0.411600
     29 C17        -2.4440    4.9290   -0.5600 c3        1 F9J      0.122900
     30 C18        -1.8260    3.6010   -1.0170 c3        1 F9J      0.148300
     31 H11C       -6.9550   -4.5410    0.4740 hc        1 F9J      0.050033
     32 H12C       -5.6910   -5.0070    1.6950 hc        1 F9J      0.050033
     33 H13C       -6.8010   -3.6040    2.0190 hc        1 F9J      0.050033
     34 H3         -3.3160   -4.4200    0.7230 ha        1 F9J      0.166000
     35 H1         -4.3960   -0.6020   -0.8190 hn        1 F9J      0.337700
     36 HA         -1.4790   -3.0480   -0.7180 hn        1 F9J      0.454800
     37 H9          2.3810   -1.8900    0.0210 h1        1 F9J      0.097700
     38 H101        3.7340   -2.3650   -2.1510 hc        1 F9J      0.060367
     39 H102        1.9680   -2.0150   -2.3900 hc        1 F9J      0.060367
     40 H103        3.2010   -0.7340   -2.7520 hc        1 F9J      0.060367
     41 H12         5.8800   -1.0710    2.7740 h4        1 F9J      0.047100
     42 H14         6.9350    0.9400   -0.9760 h4        1 F9J      0.047100
     43 H151       -4.0750    2.0160   -0.4560 h1        1 F9J      0.059700
     44 H152       -3.4940    1.7340    1.2550 h1        1 F9J      0.059700
     45 H181       -0.7200    3.7530   -1.1600 h1        1 F9J      0.059700
     46 H182       -2.2790    3.3180   -2.0110 h1        1 F9J      0.059700
     47 H161       -5.1200    3.7180    0.9050 h1        1 F9J      0.060700
     48 H162       -3.5430    4.1430    1.7530 h1        1 F9J      0.060700
     49 H171       -2.4450    5.6590   -1.4110 h1        1 F9J      0.060700
     50 H172       -1.8790    5.3500    0.3130 h1        1 F9J      0.060700
@<TRIPOS>BOND
     1    1    2 1   
     2    1   31 1   
     3    1   32 1   
     4    1   33 1   
     5    2    3 1   
     6    2    6 2   
     7    3    4 2   
     8    3   34 1   
     9    4    5 1   
    10    4    7 1   
    11    5    6 1   
    12    5   35 1   
    13    7    8 1   
    14    7   36 1   
    15    8    9 ar  
    16    8   13 ar  
    17    9   10 ar  
    18   10   11 ar  
    19   10   25 1   
    20   11   12 ar  
    21   11   24 1   
    22   12   13 ar  
    23   12   14 1   
    24   14   15 1   
    25   15   16 1   
    26   15   17 1   
    27   15   37 1   
    28   16   38 1   
    29   16   39 1   
    30   16   40 1   
    31   17   18 ar  
    32   17   22 ar  
    33   18   19 ar  
    34   19   20 ar  
    35   19   41 1   
    36   20   21 ar  
    37   20   23 1   
    38   21   22 ar  
    39   21   42 1   
    40   25   26 1   
    41   25   30 1   
    42   26   27 1   
    43   26   43 1   
    44   26   44 1   
    45   27   28 1   
    46   27   47 1   
    47   27   48 1   
    48   28   29 1   
    49   29   30 1   
    50   29   49 1   
    51   29   50 1   
    52   30   45 1   
    53   30   46 1   
@<TRIPOS>SUBSTRUCTURE
     1 F9J         1 TEMP              0 ****  ****    0 ROOT
