@<TRIPOS>MOLECULE
F9J
   50    53     1     0     0
SMALL
bcc


@<TRIPOS>ATOM
      1 C1          1.1400   -1.1960   -1.9690 c3        1 F9J     -0.120400
      2 C2          1.6860   -0.4900   -0.7960 cc        1 F9J      0.321600
      3 C3          3.0770   -0.4620   -0.4160 cc        1 F9J     -0.324300
      4 C4          3.1150    0.3410    0.7520 cd        1 F9J      0.087300
      5 N1          1.7860    0.7600    0.9810 na        1 F9J      0.010400
      6 N2          0.9450    0.2390    0.0940 nd        1 F9J     -0.517800
      7 N3          4.2440    0.7730    1.4610 nu        1 F9J     -0.677300
      8 C5          4.3010    0.6940    2.8750 ca        1 F9J      0.909900
      9 N4          3.1300    0.7720    3.5880 nb        1 F9J     -0.807000
     10 C6          3.2040    0.7790    4.9550 ca        1 F9J      0.680200
     11 C7          4.4770    0.7240    5.6120 ca        1 F9J     -0.178700
     12 C8          5.6350    0.6590    4.7710 ca        1 F9J      0.685600
     13 N5          5.5750    0.6300    3.4240 nb        1 F9J     -0.810000
     14 O1          6.8220    0.6210    5.4570 os        1 F9J     -0.422100
     15 C9          8.0500    0.4590    4.7080 c3        1 F9J      0.128800
     16 C10         8.5340    1.7950    4.1890 c3        1 F9J     -0.118100
     17 C11         9.0110   -0.1400    5.7450 ca        1 F9J      0.617300
     18 N6          9.2510   -1.4860    5.6480 nb        1 F9J     -0.653000
     19 C12        10.0780   -2.0250    6.5580 ca        1 F9J      0.398700
     20 C13        10.6760   -1.2420    7.5810 ca        1 F9J     -0.100700
     21 C14        10.3660    0.1430    7.5950 ca        1 F9J      0.398700
     22 N7          9.5430    0.6950    6.6890 nb        1 F9J     -0.653000
     23 F1         11.5010   -1.7890    8.4940 f         1 F9J     -0.114900
     24 F2          4.6180    0.7130    6.9520 f         1 F9J     -0.106900
     25 N8          2.0160    0.7510    5.7310 nh        1 F9J     -0.725300
     26 C15         0.7760    0.4290    5.0320 c3        1 F9J      0.148300
     27 C16        -0.3950    0.2590    6.0100 c3        1 F9J      0.122900
     28 O2         -0.5340    1.3880    6.8640 os        1 F9J     -0.411600
     29 C17         0.6560    1.6540    7.5950 c3        1 F9J      0.122900
     30 C18         1.8570    1.8630    6.6630 c3        1 F9J      0.148300
     31 H11C        0.2800   -1.8510   -1.6800 hc        1 F9J      0.050033
     32 H12C        0.7800   -0.4620   -2.7340 hc        1 F9J      0.050033
     33 H13C        1.9360   -1.8320   -2.4300 hc        1 F9J      0.050033
     34 H3          3.9040   -0.9450   -0.9200 ha        1 F9J      0.166000
     35 H1          1.4390    1.2210    1.7930 hn        1 F9J      0.337700
     36 HA          5.1020    0.5530    0.9910 hn        1 F9J      0.454800
     37 H9          7.9030   -0.2730    3.8660 h1        1 F9J      0.097700
     38 H101        7.9070    2.1150    3.3220 hc        1 F9J      0.060367
     39 H102        8.4700    2.5770    4.9840 hc        1 F9J      0.060367
     40 H103        9.5940    1.7050    3.8530 hc        1 F9J      0.060367
     41 H12        10.2720   -3.1090    6.4800 h4        1 F9J      0.047100
     42 H14        10.7940    0.8170    8.3600 h4        1 F9J      0.047100
     43 H151        0.5040    1.2300    4.2850 h1        1 F9J      0.059700
     44 H152        0.9210   -0.5400    4.4770 h1        1 F9J      0.059700
     45 H181        1.7120    2.8330    6.1040 h1        1 F9J      0.059700
     46 H182        2.7860    1.9500    7.2930 h1        1 F9J      0.059700
     47 H161       -1.3600    0.2150    5.4410 h1        1 F9J      0.060700
     48 H162       -0.2660   -0.6680    6.6280 h1        1 F9J      0.060700
     49 H171        0.4390    2.6020    8.1530 h1        1 F9J      0.060700
     50 H172        0.8540    0.8160    8.3150 h1        1 F9J      0.060700
@<TRIPOS>BOND
     1    1    2 1   
     2    1   31 1   
     3    1   32 1   
     4    1   33 1   
     5    2    3 1   
     6    2    6 2   
     7    3    4 2   
     8    3   34 1   
     9    4    5 1   
    10    4    7 1   
    11    5    6 1   
    12    5   35 1   
    13    7    8 1   
    14    7   36 1   
    15    8    9 ar  
    16    8   13 ar  
    17    9   10 ar  
    18   10   11 ar  
    19   10   25 1   
    20   11   12 ar  
    21   11   24 1   
    22   12   13 ar  
    23   12   14 1   
    24   14   15 1   
    25   15   16 1   
    26   15   17 1   
    27   15   37 1   
    28   16   38 1   
    29   16   39 1   
    30   16   40 1   
    31   17   18 ar  
    32   17   22 ar  
    33   18   19 ar  
    34   19   20 ar  
    35   19   41 1   
    36   20   21 ar  
    37   20   23 1   
    38   21   22 ar  
    39   21   42 1   
    40   25   26 1   
    41   25   30 1   
    42   26   27 1   
    43   26   43 1   
    44   26   44 1   
    45   27   28 1   
    46   27   47 1   
    47   27   48 1   
    48   28   29 1   
    49   29   30 1   
    50   29   49 1   
    51   29   50 1   
    52   30   45 1   
    53   30   46 1   
@<TRIPOS>SUBSTRUCTURE
     1 F9J         1 TEMP              0 ****  ****    0 ROOT
