@<TRIPOS>MOLECULE
F9V
   22    22     1     0     0
SMALL
bcc


@<TRIPOS>ATOM
      1 CAJ        -0.1830    1.1560    0.7110 c         1 F9V      0.898600
      2 OAP         0.6240    1.9780    1.2480 o         1 F9V     -0.883300
      3 CAK        -0.2770   -0.2950    1.1880 c3        1 F9V     -0.150400
      4 CAL         0.3840   -0.6020    2.5220 c3        1 F9V     -0.135400
      5 CAM         0.7600   -2.0990    2.6200 c         1 F9V      0.908600
      6 OAO         1.9680   -2.3910    2.8770 o         1 F9V     -0.871800
      7 OAN        -0.1200   -2.9980    2.4490 o         1 F9V     -0.871800
      8 CAU        -0.4620   -0.1580    3.6730 ca        1 F9V      0.007700
      9 CAT        -0.4840    1.2060    4.0170 ca        1 F9V     -0.133000
     10 CAS        -1.2320    1.6500    5.1050 ca        1 F9V     -0.164000
     11 CAR        -1.9750    0.7480    5.8660 ca        1 F9V     -0.188000
     12 CAQ        -1.9720   -0.6030    5.5220 ca        1 F9V     -0.164000
     13 CAV        -1.2260   -1.0530    4.4330 ca        1 F9V     -0.133000
     14 OAM        -0.9270    1.5040   -0.2610 o         1 F9V     -0.883300
     15 HAK1       -1.3560   -0.5920    1.2220 hc        1 F9V      0.032200
     16 HAK2        0.2140   -0.9290    0.4030 hc        1 F9V      0.032200
     17 HAL         1.3480   -0.0130    2.5620 hc        1 F9V      0.074700
     18 HAT         0.0800    1.9110    3.3760 ha        1 F9V      0.182000
     19 HAV        -1.2260   -2.1220    4.1490 ha        1 F9V      0.182000
     20 HAS        -1.2420    2.7190    5.3600 ha        1 F9V      0.090000
     21 HAR        -2.5610    1.0990    6.7250 ha        1 F9V      0.080000
     22 HAQ        -2.5630   -1.3190    6.1100 ha        1 F9V      0.090000
@<TRIPOS>BOND
     1    1    2 1   
     2    1    3 1   
     3    1   14 1   
     4    3    4 1   
     5    3   15 1   
     6    3   16 1   
     7    4    5 1   
     8    4    8 1   
     9    4   17 1   
    10    5    6 1   
    11    5    7 1   
    12    8    9 ar  
    13    8   13 ar  
    14    9   10 ar  
    15    9   18 1   
    16   10   11 ar  
    17   10   20 1   
    18   11   12 ar  
    19   11   21 1   
    20   12   13 ar  
    21   12   22 1   
    22   13   19 1   
@<TRIPOS>SUBSTRUCTURE
     1 F9V         1 TEMP              0 ****  ****    0 ROOT
