@<TRIPOS>MOLECULE
F9V
   22    22     1     0     0
SMALL
bcc


@<TRIPOS>ATOM
      1 CAJ        -0.1100    1.2230    0.7570 c         1 F9V      0.898600
      2 OAP         0.7220    1.9950    1.3270 o         1 F9V     -0.883300
      3 CAK        -0.2650   -0.2380    1.1830 c3        1 F9V     -0.150400
      4 CAL         0.3700   -0.6140    2.5130 c3        1 F9V     -0.135400
      5 CAM         0.6880   -2.1270    2.5650 c         1 F9V      0.908600
      6 OAO         1.8800   -2.4730    2.8220 o         1 F9V     -0.871800
      7 OAN        -0.2250   -2.9840    2.3560 o         1 F9V     -0.871800
      8 CAU        -0.4700   -0.1750    3.6700 ca        1 F9V      0.007700
      9 CAT        -0.4430    1.1760    4.0600 ca        1 F9V     -0.133000
     10 CAS        -1.1840    1.6140    5.1540 ca        1 F9V     -0.164000
     11 CAR        -1.9690    0.7160    5.8790 ca        1 F9V     -0.188000
     12 CAQ        -2.0160   -0.6210    5.4890 ca        1 F9V     -0.164000
     13 CAV        -1.2760   -1.0640    4.3930 ca        1 F9V     -0.133000
     14 OAM        -0.8310    1.6310   -0.2100 o         1 F9V     -0.883300
     15 HAK1       -1.3550   -0.4940    1.1980 hc        1 F9V      0.032200
     16 HAK2        0.2090   -0.8650    0.3830 hc        1 F9V      0.032200
     17 HAL         1.3550   -0.0650    2.5810 hc        1 F9V      0.074700
     18 HAT         0.1550    1.8800    3.4470 ha        1 F9V      0.182000
     19 HAV        -1.3150   -2.1220    4.0730 ha        1 F9V      0.182000
     20 HAS        -1.1550    2.6730    5.4440 ha        1 F9V      0.090000
     21 HAR        -2.5500    1.0620    6.7430 ha        1 F9V      0.080000
     22 HAQ        -2.6400   -1.3320    6.0480 ha        1 F9V      0.090000
@<TRIPOS>BOND
     1    1    2 1   
     2    1    3 1   
     3    1   14 1   
     4    3    4 1   
     5    3   15 1   
     6    3   16 1   
     7    4    5 1   
     8    4    8 1   
     9    4   17 1   
    10    5    6 1   
    11    5    7 1   
    12    8    9 ar  
    13    8   13 ar  
    14    9   10 ar  
    15    9   18 1   
    16   10   11 ar  
    17   10   20 1   
    18   11   12 ar  
    19   11   21 1   
    20   12   13 ar  
    21   12   22 1   
    22   13   19 1   
@<TRIPOS>SUBSTRUCTURE
     1 F9V         1 TEMP              0 ****  ****    0 ROOT
