@<TRIPOS>MOLECULE
FA
   49    51     1     0     0
SMALL
bcc


@<TRIPOS>ATOM
      1 C2         -1.5890    1.2130    7.5110 cc        1 FA       0.838100
      2 C4         -0.6330   -0.9250    7.0780 c         1 FA       0.621000
      3 C4A        -0.5380   -0.5620    5.6270 ca        1 FA       0.181500
      4 C6         -0.0000   -1.0630    3.4410 ca        1 FA       0.271300
      5 C7         -0.4370    0.2470    3.0380 ca        1 FA       0.377900
      6 C8A        -0.9780    0.7420    5.2190 ca        1 FA       0.528900
      7 C9          0.5140   -2.0090    2.3670 c3        1 FA       0.138500
      8 C14         1.5440   -1.2750    0.2620 ca        1 FA       0.099600
      9 C13         2.6890   -1.4780   -0.5400 ca        1 FA      -0.198000
     10 C12         2.6380   -1.2320   -1.9100 ca        1 FA      -0.070000
     11 C11         1.4590   -0.7860   -2.5040 ca        1 FA      -0.153600
     12 C16         0.3130   -0.5900   -1.7260 ca        1 FA      -0.070000
     13 C15         0.3540   -0.8350   -0.3560 ca        1 FA      -0.198000
     14 C           1.3740   -0.5530   -3.9860 c         1 FA       0.661700
     15 CA1         0.4410    1.0660   -5.6220 c3        1 FA      -0.037300
     16 CT1         0.9710    2.4260   -6.1930 c         1 FA       0.918600
     17 CB1        -1.0850    1.1890   -5.4480 c3        1 FA      -0.075400
     18 CG1        -1.7730   -0.1190   -5.1200 c3        1 FA      -0.190400
     19 CD1        -2.8590    0.0320   -4.0500 c         1 FA       0.908600
     20 N1         -1.4550    1.6500    6.1750 na        1 FA      -0.826900
     21 NA2        -2.2470    2.1080    8.3990 nh        1 FA      -0.888800
     22 N3         -1.1690    0.0340    7.9610 nd        1 FA      -0.755100
     23 O4         -0.2550   -2.0170    7.5280 o         1 FA      -0.522100
     24 N5         -0.0470   -1.4520    4.7230 nb        1 FA      -0.567000
     25 N8         -0.9210    1.1400    3.8990 nb        1 FA      -0.674000
     26 N10         1.6350   -1.4330    1.6670 nh        1 FA      -0.739600
     27 NP1         1.1090    0.7330   -4.3770 n         1 FA      -0.486900
     28 O           1.6040   -1.4990   -4.7760 o         1 FA      -0.654100
     29 O21         1.1900    3.3860   -5.4010 o         1 FA      -0.850800
     30 O11         1.1420    2.4870   -7.4440 o         1 FA      -0.850800
     31 OE1        -2.5130    0.1760   -2.8330 o         1 FA      -0.874300
     32 OE2        -4.0760   -0.0300   -4.3950 o         1 FA      -0.874300
     33 H7         -0.3800    0.5590    1.9730 h4        1 FA       0.080100
     34 H91         0.8010   -2.9930    2.8420 h1        1 FA       0.066700
     35 H92        -0.3530   -2.2110    1.6710 h1        1 FA       0.066700
     36 H13         3.6300   -1.8230   -0.0910 ha        1 FA       0.117500
     37 H12         3.5300   -1.3990   -2.5320 ha        1 FA       0.189500
     38 H16        -0.6430   -0.2500   -2.2040 ha        1 FA       0.189500
     39 H15        -0.5650   -0.6720    0.2270 ha        1 FA       0.117500
     40 HA1         0.6680    0.2560   -6.3700 h1        1 FA       0.066700
     41 HB11       -1.3010    1.9450   -4.6470 hc        1 FA       0.046700
     42 HB12       -1.4880    1.6010   -6.4090 hc        1 FA       0.046700
     43 HG11       -2.2390   -0.5410   -6.0460 hc        1 FA       0.023200
     44 HG12       -1.0320   -0.8740   -4.7460 hc        1 FA       0.023200
     45 HN1        -1.8800    2.4960    5.8630 hn        1 FA       0.464800
     46 HA21       -2.2270    1.8060    9.3510 hn        1 FA       0.409800
     47 HA22       -1.9880    3.0650    8.2870 hn        1 FA       0.409800
     48 H10         2.5030   -1.8400    1.9480 hn        1 FA       0.384800
     49 HNP         0.9650    1.4130   -3.6610 hn        1 FA       0.309500
@<TRIPOS>BOND
     1    1   20 1   
     2    1   21 1   
     3    1   22 2   
     4    2    3 1   
     5    2   22 1   
     6    2   23 2   
     7    3    6 ar  
     8    3   24 ar  
     9    4    5 ar  
    10    4    7 1   
    11    4   24 ar  
    12    5   25 ar  
    13    5   33 1   
    14    6   20 1   
    15    6   25 ar  
    16    7   26 1   
    17    7   34 1   
    18    7   35 1   
    19    8    9 ar  
    20    8   13 ar  
    21    8   26 1   
    22    9   10 ar  
    23    9   36 1   
    24   10   11 ar  
    25   10   37 1   
    26   11   12 ar  
    27   11   14 1   
    28   12   13 ar  
    29   12   38 1   
    30   13   39 1   
    31   14   27 1   
    32   14   28 2   
    33   15   16 1   
    34   15   17 1   
    35   15   27 1   
    36   15   40 1   
    37   16   29 1   
    38   16   30 1   
    39   17   18 1   
    40   17   41 1   
    41   17   42 1   
    42   18   19 1   
    43   18   43 1   
    44   18   44 1   
    45   19   31 1   
    46   19   32 1   
    47   20   45 1   
    48   21   46 1   
    49   21   47 1   
    50   26   48 1   
    51   27   49 1   
@<TRIPOS>SUBSTRUCTURE
     1 FA          1 TEMP              0 ****  ****    0 ROOT
