@<TRIPOS>MOLECULE
FA
   50    52     1     0     0
SMALL
bcc


@<TRIPOS>ATOM
      1 C2          0.0260   -0.0590   -0.3500 cc        1 FA       0.845100
      2 C4          0.1670   -1.2970    1.6810 c         1 FA       0.618000
      3 C4A         1.3410   -0.4490    2.0880 ca        1 FA       0.194500
      4 C6          3.0230    0.1180    3.5620 ca        1 FA       0.260300
      5 C7          3.4490    1.1530    2.6690 ca        1 FA       0.353900
      6 C8A         1.7730    0.5960    1.1930 ca        1 FA       0.540900
      7 C9          3.7940   -0.0860    4.8480 c3        1 FA       0.148500
      8 C14         3.5810   -0.1180    7.2780 ca        1 FA       0.141600
      9 C13         2.7590   -0.2840    8.4200 ca        1 FA      -0.197000
     10 C12         3.3230   -0.3790    9.6840 ca        1 FA      -0.056500
     11 C11         4.7120   -0.3180    9.8590 ca        1 FA      -0.161600
     12 C16         5.5300   -0.1790    8.7380 ca        1 FA      -0.056500
     13 C15         4.9800   -0.0860    7.4620 ca        1 FA      -0.197000
     14 C           5.2450   -0.4210   11.2540 c         1 FA       0.647700
     15 CA1         6.9460    0.3810   12.8600 c3        1 FA      -0.069300
     16 CT1         7.6640    1.7860   12.9450 c         1 FA       0.914600
     17 CB1         7.9230   -0.6600   13.4150 c3        1 FA      -0.076400
     18 CG1         7.2690   -1.9940   13.7220 c3        1 FA      -0.188400
     19 CD1         7.9170   -3.1410   13.0120 c         1 FA       0.637100
     20 N1          1.0780    0.8240    0.0010 na        1 FA      -0.832900
     21 NA2        -0.5140    0.1060   -1.6520 nv        1 FA      -0.888800
     22 N3         -0.4360   -1.0240    0.4390 nd        1 FA      -0.739100
     23 O4         -0.2780   -2.2030    2.3950 o         1 FA      -0.494100
     24 N5          1.9750   -0.6710    3.2640 nb        1 FA      -0.551000
     25 N8          2.8510    1.3970    1.5020 nb        1 FA      -0.681000
     26 N10         2.9740    0.0890    6.0230 nu        1 FA      -0.724600
     27 NP1         6.4990    0.0890   11.5090 ns        1 FA      -0.519900
     28 O           4.5750   -1.0210   12.1290 o         1 FA      -0.647100
     29 O21         7.9010    2.4010   11.8690 o         1 FA      -0.821300
     30 O11         7.9440    2.1890   14.1020 o         1 FA      -0.821300
     31 OE1         8.3030   -4.2050   13.5050 o         1 FA      -0.541000
     32 OE2         8.1100   -3.0780   11.6600 oh        1 FA      -0.603100
     33 H7          4.3080    1.8040    2.9210 h4        1 FA       0.047100
     34 H91         4.6200    0.6840    4.8850 h1        1 FA       0.056200
     35 H92         4.2790   -1.1080    4.8090 h1        1 FA       0.056200
     36 H13         1.6650   -0.3310    8.3120 ha        1 FA       0.128000
     37 H12         2.6810   -0.5140   10.5710 ha        1 FA       0.151000
     38 H16         6.6280   -0.1480    8.8380 ha        1 FA       0.151000
     39 H15         5.6600    0.0190    6.6050 ha        1 FA       0.128000
     40 HA1         6.0500    0.4230   13.5460 h1        1 FA       0.064700
     41 HB11        8.7840   -0.7910   12.7090 hc        1 FA       0.063700
     42 HB12        8.3390   -0.2200   14.3620 hc        1 FA       0.063700
     43 HG11        6.1820   -1.9770   13.4250 hc        1 FA       0.088700
     44 HG12        7.3120   -2.1990   14.8250 hc        1 FA       0.088700
     45 HN1         1.4470    1.4730   -0.6580 hn        1 FA       0.464800
     46 HA21       -1.3020   -0.4830   -1.8350 hn        1 FA       0.417800
     47 HA22       -0.6550    1.0530   -1.9290 hn        1 FA       0.417800
     48 H10         2.0770   -0.3490    5.9520 hn        1 FA       0.408800
     49 HNP         7.7900   -2.2250   11.3280 ho        1 FA       0.442000
     50 HP12        6.8670    0.7480   10.8440 hn        1 FA       0.327500
@<TRIPOS>BOND
     1    1   20 1   
     2    1   21 1   
     3    1   22 2   
     4    2    3 1   
     5    2   22 1   
     6    2   23 2   
     7    3    6 ar  
     8    3   24 ar  
     9    4    5 ar  
    10    4    7 1   
    11    4   24 ar  
    12    5   25 ar  
    13    5   33 1   
    14    6   20 1   
    15    6   25 ar  
    16    7   26 1   
    17    7   34 1   
    18    7   35 1   
    19    8    9 ar  
    20    8   13 ar  
    21    8   26 1   
    22    9   10 ar  
    23    9   36 1   
    24   10   11 ar  
    25   10   37 1   
    26   11   12 ar  
    27   11   14 1   
    28   12   13 ar  
    29   12   38 1   
    30   13   39 1   
    31   14   27 1   
    32   14   28 2   
    33   15   16 1   
    34   15   17 1   
    35   15   27 1   
    36   15   40 1   
    37   16   29 1   
    38   16   30 1   
    39   17   18 1   
    40   17   41 1   
    41   17   42 1   
    42   18   19 1   
    43   18   43 1   
    44   18   44 1   
    45   19   31 2   
    46   19   32 1   
    47   20   45 1   
    48   21   46 1   
    49   21   47 1   
    50   26   48 1   
    51   27   50 1   
    52   32   49 1   
@<TRIPOS>SUBSTRUCTURE
     1 FA          1 TEMP              0 ****  ****    0 ROOT
