@<TRIPOS>MOLECULE
FA
   49    51     1     0     0
SMALL
bcc


@<TRIPOS>ATOM
      1 C2          2.2060    0.1750   -0.0490 cc        1 FA       0.838100
      2 C4          0.6170   -0.9880    1.2910 c         1 FA       0.621000
      3 C4A         1.4710   -0.7200    2.4930 ca        1 FA       0.181500
      4 C6          1.9220   -0.9180    4.7470 ca        1 FA       0.271300
      5 C7          3.1280   -0.1530    4.5670 ca        1 FA       0.377900
      6 C8A         2.6770    0.0390    2.3190 ca        1 FA       0.528900
      7 C9          1.5960   -1.4260    6.1420 c3        1 FA       0.138500
      8 C14         2.3410   -0.3380    8.2140 ca        1 FA       0.099600
      9 C13         1.8540    0.1390    9.4510 ca        1 FA      -0.198000
     10 C12         2.7020    0.2310   10.5510 ca        1 FA      -0.070000
     11 C11         4.0380   -0.1490   10.4460 ca        1 FA      -0.153600
     12 C16         4.5350   -0.6340    9.2310 ca        1 FA      -0.070000
     13 C15         3.6940   -0.7310    8.1260 ca        1 FA      -0.198000
     14 C           4.9590   -0.0940   11.6320 c         1 FA       0.661700
     15 CA1         7.2810    0.5540   12.2290 c3        1 FA      -0.037300
     16 CT1         7.9410    1.9270   12.5970 c         1 FA       0.918600
     17 CB1         8.2960   -0.2500   11.3940 c3        1 FA      -0.075400
     18 CG1         7.8930   -1.6900   11.1560 c3        1 FA      -0.190400
     19 CD1         8.1800   -2.1590    9.7260 c         1 FA       0.908600
     20 N1          3.0160    0.5320    1.0510 na        1 FA      -0.826900
     21 NA2         2.6950    0.5460   -1.3320 nh        1 FA      -0.888800
     22 N3          1.0600   -0.4930    0.0480 nd        1 FA      -0.755100
     23 O4         -0.4530   -1.6110    1.3470 o         1 FA      -0.522100
     24 N5          1.1060   -1.1880    3.7170 nb        1 FA      -0.567000
     25 N8          3.5100    0.3190    3.3830 nb        1 FA      -0.674000
     26 N10         1.4950   -0.3340    7.0780 nh        1 FA      -0.739600
     27 NP1         6.0290    0.7540   11.5230 n         1 FA      -0.486900
     28 O           4.6840   -0.7570   12.6600 o         1 FA      -0.654100
     29 O21         7.9170    2.8690   11.7550 o         1 FA      -0.850800
     30 O11         8.4790    2.0090   13.7360 o         1 FA      -0.850800
     31 OE1         7.4180   -1.7710    8.7830 o         1 FA      -0.874300
     32 OE2         9.1430   -2.9550    9.5210 o         1 FA      -0.874300
     33 H7          3.7870    0.0730    5.4330 h4        1 FA       0.080100
     34 H91         0.6340   -2.0160    6.1100 h1        1 FA       0.066700
     35 H92         2.4210   -2.1430    6.4260 h1        1 FA       0.066700
     36 H13         0.8040    0.4500    9.5530 ha        1 FA       0.117500
     37 H12         2.3160    0.5970   11.5140 ha        1 FA       0.189500
     38 H16         5.6050   -0.9600    9.1480 ha        1 FA       0.189500
     39 H15         4.1150   -1.1170    7.1860 ha        1 FA       0.117500
     40 HA1         7.0610    0.0000   13.1850 h1        1 FA       0.066700
     41 HB11        9.2710   -0.2140   11.9470 hc        1 FA       0.046700
     42 HB12        8.4540    0.2690   10.4120 hc        1 FA       0.046700
     43 HG11        8.4410   -2.3570   11.8690 hc        1 FA       0.023200
     44 HG12        6.7960   -1.8310   11.3450 hc        1 FA       0.023200
     45 HN1         3.9170    0.9380    0.9200 hn        1 FA       0.464800
     46 HA21        2.0440    0.3690   -2.0690 hn        1 FA       0.409800
     47 HA22        3.0920    1.4600   -1.3730 hn        1 FA       0.409800
     48 H10         0.5460   -0.1250    7.3110 hn        1 FA       0.384800
     49 HNP         6.1380    1.2520   10.6650 hn        1 FA       0.309500
@<TRIPOS>BOND
     1    1   20 1   
     2    1   21 1   
     3    1   22 2   
     4    2    3 1   
     5    2   22 1   
     6    2   23 2   
     7    3    6 ar  
     8    3   24 ar  
     9    4    5 ar  
    10    4    7 1   
    11    4   24 ar  
    12    5   25 ar  
    13    5   33 1   
    14    6   20 1   
    15    6   25 ar  
    16    7   26 1   
    17    7   34 1   
    18    7   35 1   
    19    8    9 ar  
    20    8   13 ar  
    21    8   26 1   
    22    9   10 ar  
    23    9   36 1   
    24   10   11 ar  
    25   10   37 1   
    26   11   12 ar  
    27   11   14 1   
    28   12   13 ar  
    29   12   38 1   
    30   13   39 1   
    31   14   27 1   
    32   14   28 2   
    33   15   16 1   
    34   15   17 1   
    35   15   27 1   
    36   15   40 1   
    37   16   29 1   
    38   16   30 1   
    39   17   18 1   
    40   17   41 1   
    41   17   42 1   
    42   18   19 1   
    43   18   43 1   
    44   18   44 1   
    45   19   31 1   
    46   19   32 1   
    47   20   45 1   
    48   21   46 1   
    49   21   47 1   
    50   26   48 1   
    51   27   49 1   
@<TRIPOS>SUBSTRUCTURE
     1 FA          1 TEMP              0 ****  ****    0 ROOT
