@<TRIPOS>MOLECULE
FA0
   17    17     1     0     0
SMALL
bcc


@<TRIPOS>ATOM
      1 OAA         0.0340    0.2650    0.1090 oh        1 FA0     -0.589100
      2 CAB         1.1450   -0.4820   -0.1800 c         1 FA0      0.643700
      3 OAC         1.3950   -1.3320    0.6740 o         1 FA0     -0.483000
      4 CAD         1.8950   -0.2140   -1.4190 ca        1 FA0     -0.267600
      5 CAE         3.2780   -0.0250   -1.3280 ca        1 FA0     -0.013000
      6 CAF         4.0450    0.2300   -2.4540 ca        1 FA0     -0.220000
      7 CAG         3.4110    0.2790   -3.7130 ca        1 FA0      0.195900
      8 FAH         4.1450    0.5250   -4.8220 f         1 FA0     -0.131900
      9 CAI         2.0320    0.0660   -3.8350 ca        1 FA0     -0.251000
     10 CAJ         1.2490   -0.1830   -2.6830 ca        1 FA0      0.218600
     11 NAK        -0.1280   -0.3270   -2.7930 nh        1 FA0     -0.843200
     12 H2          3.7590   -0.0860   -0.3370 ha        1 FA0      0.157000
     13 H3          5.1300    0.3870   -2.3810 ha        1 FA0      0.159000
     14 H4          1.5700    0.1000   -4.8330 ha        1 FA0      0.155000
     15 H5         -0.0350    1.0120   -0.5020 ho        1 FA0      0.437000
     16 H6         -0.4720   -0.5390   -3.7010 hn        1 FA0      0.416300
     17 HAK3       -0.5820   -0.8080   -2.0480 hn        1 FA0      0.416300
@<TRIPOS>BOND
     1    1    2 1   
     2    1   15 1   
     3    2    3 2   
     4    2    4 1   
     5    4    5 ar  
     6    4   10 ar  
     7    5    6 ar  
     8    5   12 1   
     9    6    7 ar  
    10    6   13 1   
    11    7    8 1   
    12    7    9 ar  
    13    9   10 ar  
    14    9   14 1   
    15   10   11 1   
    16   11   16 1   
    17   11   17 1   
@<TRIPOS>SUBSTRUCTURE
     1 FA0         1 TEMP              0 ****  ****    0 ROOT
