@<TRIPOS>MOLECULE
FA0
   16    16     1     0     0
SMALL
bcc


@<TRIPOS>ATOM
      1 OAA         0.0110    0.3320    0.1240 o         1 FA0     -0.835300
      2 CAB         1.2270   -0.0240    0.0730 c         1 FA0      0.916200
      3 OAC         1.9060   -0.3180    1.0950 o         1 FA0     -0.835300
      4 CAD         1.9280   -0.0630   -1.2770 ca        1 FA0     -0.187600
      5 CAE         3.3090    0.1130   -1.2930 ca        1 FA0     -0.061000
      6 CAF         4.0350    0.1700   -2.4810 ca        1 FA0     -0.233000
      7 CAG         3.3460    0.0450   -3.6960 ca        1 FA0      0.118900
      8 FAH         4.0270    0.1160   -4.8720 f         1 FA0     -0.176900
      9 CAI         1.9590   -0.1550   -3.7180 ca        1 FA0     -0.257000
     10 CAJ         1.2340   -0.2330   -2.5060 ca        1 FA0      0.179600
     11 NAK        -0.1270   -0.5580   -2.5450 nh        1 FA0     -0.820200
     12 H2          3.8250    0.2110   -0.3220 ha        1 FA0      0.154000
     13 H3          5.1220    0.3150   -2.4770 ha        1 FA0      0.121000
     14 H4          1.4500   -0.2580   -4.6860 ha        1 FA0      0.122000
     15 H5         -0.5840   -0.4350   -1.6560 hn        1 FA0      0.396800
     16 H6         -0.6120   -0.1070   -3.2900 hn        1 FA0      0.396800
@<TRIPOS>BOND
     1    1    2 1   
     2    2    3 1   
     3    2    4 1   
     4    4    5 ar  
     5    4   10 ar  
     6    5    6 ar  
     7    5   12 1   
     8    6    7 ar  
     9    6   13 1   
    10    7    8 1   
    11    7    9 ar  
    12    9   10 ar  
    13    9   14 1   
    14   10   11 1   
    15   11   15 1   
    16   11   16 1   
@<TRIPOS>SUBSTRUCTURE
     1 FA0         1 TEMP              0 ****  ****    0 ROOT
