@<TRIPOS>MOLECULE
FA0
   16    16     1     0     0
SMALL
bcc


@<TRIPOS>ATOM
      1 OAA         0.0080    0.3250    0.1200 o         1 FA0     -0.835300
      2 CAB         1.2260   -0.0250    0.0710 c         1 FA0      0.916200
      3 OAC         1.9050   -0.3140    1.0940 o         1 FA0     -0.835300
      4 CAD         1.9280   -0.0630   -1.2790 ca        1 FA0     -0.187600
      5 CAE         3.3080    0.1210   -1.2940 ca        1 FA0     -0.061000
      6 CAF         4.0340    0.1790   -2.4820 ca        1 FA0     -0.233000
      7 CAG         3.3470    0.0470   -3.6960 ca        1 FA0      0.118900
      8 FAH         4.0280    0.1200   -4.8720 f         1 FA0     -0.176900
      9 CAI         1.9600   -0.1590   -3.7200 ca        1 FA0     -0.257000
     10 CAJ         1.2360   -0.2390   -2.5080 ca        1 FA0      0.179600
     11 NAK        -0.1240   -0.5710   -2.5470 nv        1 FA0     -0.820200
     12 H2          3.8220    0.2230   -0.3230 ha        1 FA0      0.154000
     13 H3          5.1200    0.3300   -2.4770 ha        1 FA0      0.121000
     14 H4          1.4530   -0.2670   -4.6880 ha        1 FA0      0.122000
     15 H5         -0.6110   -0.1250   -3.2930 hn        1 FA0      0.396800
     16 H6         -0.5830   -0.4490   -1.6580 hn        1 FA0      0.396800
@<TRIPOS>BOND
     1    1    2 1   
     2    2    3 1   
     3    2    4 1   
     4    4    5 ar  
     5    4   10 ar  
     6    5    6 ar  
     7    5   12 1   
     8    6    7 ar  
     9    6   13 1   
    10    7    8 1   
    11    7    9 ar  
    12    9   10 ar  
    13    9   14 1   
    14   10   11 1   
    15   11   15 1   
    16   11   16 1   
@<TRIPOS>SUBSTRUCTURE
     1 FA0         1 TEMP              0 ****  ****    0 ROOT
