@<TRIPOS>MOLECULE
FA1
   21    21     1     0     0
SMALL
bcc


@<TRIPOS>ATOM
      1 C2          0.0390   -0.1530   -0.1290 c3        1 FA1     -0.063400
      2 C3          1.5480    0.0010   -0.0260 c3        1 FA1      0.117100
      3 O3          1.9340    1.1460   -0.7770 oh        1 FA1     -0.610800
      4 C4          1.9710    0.1540    1.4470 c3        1 FA1      0.145300
      5 O4          3.3930    0.1960    1.5350 oh        1 FA1     -0.625800
      6 C5          1.3880   -0.9380    2.2770 c2        1 FA1     -0.266200
      7 C6          0.3050   -1.6230    1.9020 c2        1 FA1     -0.074200
      8 C          -1.9740   -1.2470    0.9650 c         1 FA1      0.906600
      9 O1         -2.3850   -0.1660    1.4550 o         1 FA1     -0.817300
     10 O30        -0.2300   -2.5280   -0.2150 oh        1 FA1     -0.636800
     11 O2         -2.6830   -2.2620    0.7160 o         1 FA1     -0.817300
     12 C1         -0.4440   -1.3930    0.6220 c3        1 FA1      0.035000
     13 H2C1       -0.4690    0.7470    0.3060 hc        1 FA1      0.069200
     14 H2C2       -0.2500   -0.2350   -1.2070 hc        1 FA1      0.069200
     15 H3          2.0590   -0.9030   -0.4660 h1        1 FA1      0.035700
     16 HB          2.8300    1.3650   -0.4930 ho        1 FA1      0.394000
     17 H4          1.6480    1.1630    1.8330 h1        1 FA1      0.083700
     18 HA          3.7130   -0.6920    1.3390 ho        1 FA1      0.394000
     19 H5          1.8970   -1.1190    3.2340 ha        1 FA1      0.111000
     20 H6         -0.1160   -2.4230    2.5320 ha        1 FA1      0.124000
     21 H30        -1.0630   -3.0290   -0.2310 ho        1 FA1      0.429000
@<TRIPOS>BOND
     1    1    2 1   
     2    1   12 1   
     3    1   13 1   
     4    1   14 1   
     5    2    3 1   
     6    2    4 1   
     7    2   15 1   
     8    3   16 1   
     9    4    5 1   
    10    4    6 1   
    11    4   17 1   
    12    5   18 1   
    13    6    7 2   
    14    6   19 1   
    15    7   12 1   
    16    7   20 1   
    17    8    9 1   
    18    8   11 1   
    19    8   12 1   
    20   10   12 1   
    21   10   21 1   
@<TRIPOS>SUBSTRUCTURE
     1 FA1         1 TEMP              0 ****  ****    0 ROOT
