@<TRIPOS>MOLECULE
FA1
   21    21     1     0     0
SMALL
bcc


@<TRIPOS>ATOM
      1 C2          0.0390   -0.1490   -0.1290 c3        1 FA1     -0.063400
      2 C3          1.5480    0.0070   -0.0250 c3        1 FA1      0.116100
      3 O3          1.9320    1.1550   -0.7720 oh        1 FA1     -0.610800
      4 C4          1.9700    0.1550    1.4490 c3        1 FA1      0.145300
      5 O4          3.3920    0.1990    1.5380 oh        1 FA1     -0.625800
      6 C5          1.3880   -0.9390    2.2750 c2        1 FA1     -0.266200
      7 C6          0.3060   -1.6250    1.8980 c2        1 FA1     -0.074200
      8 C          -1.9730   -1.2490    0.9610 c         1 FA1      0.906600
      9 O1         -2.3850   -0.1710    1.4540 o         1 FA1     -0.817300
     10 O30        -0.2270   -2.5240   -0.2230 oh        1 FA1     -0.636800
     11 O2         -2.6810   -2.2650    0.7090 o         1 FA1     -0.817300
     12 C1         -0.4420   -1.3920    0.6180 c3        1 FA1      0.035000
     13 H2C1       -0.2500   -0.2280   -1.2070 hc        1 FA1      0.069200
     14 H2C2       -0.4710    0.7490    0.3090 hc        1 FA1      0.069200
     15 H3          2.0600   -0.8950   -0.4670 h1        1 FA1      0.035700
     16 HB          2.8280    1.3740   -0.4870 ho        1 FA1      0.394000
     17 H4          1.6460    1.1630    1.8380 h1        1 FA1      0.083700
     18 HA          3.7130   -0.6870    1.3390 ho        1 FA1      0.394000
     19 H5          1.8970   -1.1230    3.2320 ha        1 FA1      0.111000
     20 H6         -0.1140   -2.4280    2.5250 ha        1 FA1      0.124000
     21 H30        -1.0580   -3.0260   -0.2400 ho        1 FA1      0.429000
@<TRIPOS>BOND
     1    1    2 1   
     2    1   12 1   
     3    1   13 1   
     4    1   14 1   
     5    2    3 1   
     6    2    4 1   
     7    2   15 1   
     8    3   16 1   
     9    4    5 1   
    10    4    6 1   
    11    4   17 1   
    12    5   18 1   
    13    6    7 2   
    14    6   19 1   
    15    7   12 1   
    16    7   20 1   
    17    8    9 1   
    18    8   11 1   
    19    8   12 1   
    20   10   12 1   
    21   10   21 1   
@<TRIPOS>SUBSTRUCTURE
     1 FA1         1 TEMP              0 ****  ****    0 ROOT
