@<TRIPOS>MOLECULE
FA1
   21    21     1     0     0
SMALL
bcc


@<TRIPOS>ATOM
      1 C2          1.0310    0.1860    0.0650 c3        1 FA1     -0.063400
      2 C3          0.7330   -0.0830    1.5320 c3        1 FA1      0.116100
      3 O3          1.8000    0.4490    2.3100 oh        1 FA1     -0.610800
      4 C4         -0.6050    0.5660    1.9330 c3        1 FA1      0.145300
      5 O4         -0.9190    0.2220    3.2800 oh        1 FA1     -0.625800
      6 C5         -1.6850    0.1730    0.9860 c2        1 FA1     -0.266200
      7 C6         -1.4310   -0.2550   -0.2540 c2        1 FA1     -0.074200
      8 C          -0.0350    0.3260   -2.2350 c         1 FA1      0.906600
      9 O1          0.0310    1.5790   -2.2680 o         1 FA1     -0.817300
     10 O30         0.2040   -1.7910   -0.9970 oh        1 FA1     -0.636800
     11 O2         -0.0920   -0.4370   -3.2400 o         1 FA1     -0.817300
     12 C1         -0.0550   -0.3980   -0.8370 c3        1 FA1      0.035000
     13 H2C1        1.0900    1.2910   -0.1190 hc        1 FA1      0.069200
     14 H2C2        2.0180   -0.2700   -0.2000 hc        1 FA1      0.069200
     15 H3          0.6760   -1.1940    1.7160 h1        1 FA1      0.035700
     16 HB          1.4730    0.4950    3.2170 ho        1 FA1      0.394000
     17 H4         -0.4900    1.6880    1.9630 h1        1 FA1      0.083700
     18 HA         -1.1550   -0.7120    3.2830 ho        1 FA1      0.394000
     19 H5         -2.7080    0.2870    1.3710 ha        1 FA1      0.111000
     20 H6         -2.2440   -0.5350   -0.9430 ha        1 FA1      0.124000
     21 H30         0.1650   -1.9790   -1.9500 ho        1 FA1      0.429000
@<TRIPOS>BOND
     1    1    2 1   
     2    1   12 1   
     3    1   13 1   
     4    1   14 1   
     5    2    3 1   
     6    2    4 1   
     7    2   15 1   
     8    3   16 1   
     9    4    5 1   
    10    4    6 1   
    11    4   17 1   
    12    5   18 1   
    13    6    7 2   
    14    6   19 1   
    15    7   12 1   
    16    7   20 1   
    17    8    9 1   
    18    8   11 1   
    19    8   12 1   
    20   10   12 1   
    21   10   21 1   
@<TRIPOS>SUBSTRUCTURE
     1 FA1         1 TEMP              0 ****  ****    0 ROOT
