@<TRIPOS>MOLECULE
FA1
   21    19     1     0     0
SMALL
bcc


@<TRIPOS>ATOM
      1 C2         -0.4400    0.5570   -0.8810 c3        1 FA1     -0.176000
      2 C3          0.8250    0.5580   -0.8680 c3        1 FA1      0.000000
      3 O3          1.3050    1.7660   -1.6620 oh        1 FA1     -0.336000
      4 C4          1.5250    0.6170    0.6290 c3        1 FA1      0.037000
      5 O4          2.9520    0.5320    0.5190 oh        1 FA1     -0.335000
      6 C5          0.9900   -0.3950    1.5300 c2        1 FA1     -0.255000
      7 C6         -0.6460   -0.7650    1.3300 c1        1 FA1     -0.084000
      8 C          -2.7120   -0.5150   -0.0570 c1        1 FA1      0.326000
      9 O1         -3.3840   -1.0850   -0.9570 os        1 FA1     -0.568000
     10 O30        -1.0000   -1.8730   -0.7190 oh        1 FA1     -0.363000
     11 O2         -3.2980    0.0680    0.8880 o         1 FA1     -0.539000
     12 C1         -1.1620   -0.6530   -0.0420 c2        1 FA1      0.014000
     13 H2C1       -0.7330    0.5010   -1.8090 hc        1 FA1      0.104000
     14 H2C2       -0.7490    1.4120   -0.5110 hc        1 FA1      0.104000
     15 H3          1.1350   -0.2490   -1.3180 h1        1 FA1      0.114000
     16 HB          1.6910    1.4920   -2.4090 ho        1 FA1      0.191000
     17 H4          1.4220    1.5040    1.0240 h1        1 FA1      0.111000
     18 HA          3.3270    0.9750    1.1920 ho        1 FA1      0.191000
     19 H5          1.4290   -0.5690    2.3850 ha        1 FA1      0.114000
     20 H6         -1.0990   -1.3480    1.9780 ha        1 FA1      0.124000
     21 H30        -1.3790   -2.5320   -0.2420 ho        1 FA1      0.228000
@<TRIPOS>BOND
     1    1    2 1   
     2    1   12 1   
     3    1   13 1   
     4    1   14 1   
     5    2    3 1   
     6    2    4 1   
     7    2   15 1   
     8    3   16 1   
     9    4    5 1   
    10    4    6 1   
    11    4   17 1   
    12    5   18 1   
    13    6    7 1   
    14    6   19 1   
    15    7   20 1   
    16    8   11 1   
    17    8   12 1   
    18   10   12 1   
    19   10   21 1   
@<TRIPOS>SUBSTRUCTURE
     1 FA1         1 TEMP              0 ****  ****    0 ROOT
