@<TRIPOS>MOLECULE
FA2
   31    33     1     0     0
SMALL
bcc


@<TRIPOS>ATOM
      1 P           0.3830    2.1090    2.4600 p5        1 FA2      1.317900
      2 OP1        -0.3580    2.6220    1.2630 o         1 FA2     -0.922833
      3 OP2         1.4990    2.9350    3.0140 o         1 FA2     -0.922833
      4 O3'         1.2410    0.7080    1.7710 os        1 FA2     -0.556200
      5 N9          2.3590   -2.8850    2.3350 na        1 FA2     -0.256000
      6 C4          3.0520   -4.0940    2.4250 ca        1 FA2      0.440800
      7 N3          2.6240   -5.3940    2.4590 nb        1 FA2     -0.706000
      8 C2          3.6380   -6.2790    2.5540 ca        1 FA2      0.634900
      9 N1          4.9850   -6.0770    2.6250 nb        1 FA2     -0.805000
     10 C6          5.4210   -4.7780    2.6250 ca        1 FA2      0.685200
     11 N6          6.7760   -4.4790    2.8050 nh        1 FA2     -0.927500
     12 C5          4.4710   -3.7210    2.5030 ca        1 FA2     -0.203200
     13 N7          4.6010   -2.3270    2.4280 nc        1 FA2     -0.603100
     14 C8          3.3420   -1.8640    2.3160 cd        1 FA2      0.459700
     15 C2'         0.4430   -1.3560    2.7390 c3        1 FA2      0.099100
     16 C4'         0.7270   -1.1450    0.3120 c3        1 FA2      0.082400
     17 O4'         0.7350   -2.5400    0.6680 os        1 FA2     -0.448600
     18 C1'         0.9350   -2.6750    2.0750 c3        1 FA2      0.231800
     19 C3'         0.3680   -0.3200    1.5680 c3        1 FA2      0.192100
     20 O2'        -0.8220   -1.5840    3.3200 oh        1 FA2     -0.663800
     21 OP3        -0.4540    1.3120    3.4370 o         1 FA2     -0.922833
     22 H2          3.3340   -7.3460    2.5720 h5        1 FA2      0.025100
     23 H6A         7.0260   -3.5600    2.5130 hn        1 FA2      0.402800
     24 H6B         7.4170   -5.1890    2.5360 hn        1 FA2      0.402800
     25 H8          3.0230   -0.7970    2.2200 h5        1 FA2      0.153800
     26 H2'         1.1450   -0.9950    3.5380 h1        1 FA2      0.071700
     27 H4'1       -0.0450   -1.0530   -0.4900 h1        1 FA2      0.037700
     28 H4'2        1.7380   -0.8750   -0.0830 h1        1 FA2      0.037700
     29 H1'         0.3690   -3.5920    2.3930 h2        1 FA2      0.097700
     30 H3'        -0.6940    0.0540    1.4800 h1        1 FA2      0.072700
     31 HO2'       -1.1280   -0.6830    3.5710 ho        1 FA2      0.488000
@<TRIPOS>BOND
     1    1    2 1   
     2    1    3 1   
     3    1    4 1   
     4    1   21 1   
     5    4   19 1   
     6    5    6 1   
     7    5   14 1   
     8    5   18 1   
     9    6    7 ar  
    10    6   12 ar  
    11    7    8 ar  
    12    8    9 ar  
    13    8   22 1   
    14    9   10 ar  
    15   10   11 1   
    16   10   12 ar  
    17   11   23 1   
    18   11   24 1   
    19   12   13 1   
    20   13   14 2   
    21   14   25 1   
    22   15   18 1   
    23   15   19 1   
    24   15   20 1   
    25   15   26 1   
    26   16   17 1   
    27   16   19 1   
    28   16   27 1   
    29   16   28 1   
    30   17   18 1   
    31   18   29 1   
    32   19   30 1   
    33   20   31 1   
@<TRIPOS>SUBSTRUCTURE
     1 FA2         1 TEMP              0 ****  ****    0 ROOT
