@<TRIPOS>MOLECULE
FA3
   21    19     1     0     0
SMALL
bcc


@<TRIPOS>ATOM
      1 C2         -0.5510   -0.7280   -0.8220 c3        1 FA3     -0.198000
      2 F1          1.7380    1.2230    2.0700 f         1 FA3     -0.148000
      3 C3          0.7160   -0.7280   -0.8220 c3        1 FA3      0.066000
      4 O3          1.1850    0.5040   -1.5680 oh        1 FA3     -0.366000
      5 C4          1.4350   -0.7280    0.6730 c3        1 FA3      0.031000
      6 O4          1.3340   -2.0280    1.2800 oh        1 FA3     -0.337000
      7 C5          0.9100    0.3130    1.5380 c2        1 FA3     -0.053000
      8 C6         -0.7270    0.6750    1.3400 c1        1 FA3     -0.146000
      9 C          -1.1770    1.8350   -0.8380 c1        1 FA3      0.368000
     10 O1         -0.5550    2.8230   -0.3670 os        1 FA3     -0.519000
     11 O30        -2.6540    0.3160    0.0200 oh        1 FA3     -0.296000
     12 O2         -1.7800    1.9380   -1.9390 o         1 FA3     -0.569000
     13 C1         -1.2610    0.5080   -0.0260 c2        1 FA3      0.014000
     14 H2C1       -0.8550   -1.5630   -0.4200 hc        1 FA3      0.094000
     15 H2C2       -0.8550   -0.7070   -1.7500 hc        1 FA3      0.094000
     16 H3          1.0220   -1.5170   -1.3090 h1        1 FA3      0.099000
     17 HB          1.7730    0.2680   -2.1900 ho        1 FA3      0.259000
     18 H4          2.4040   -0.6370    0.5920 h1        1 FA3      0.098000
     19 HA          2.0840   -2.2090    1.7200 ho        1 FA3      0.195000
     20 H6         -1.3300    0.6430    2.1070 ha        1 FA3      0.152000
     21 H30        -2.8580   -0.2010    0.7120 ho        1 FA3      0.162000
@<TRIPOS>BOND
     1    1    3 1   
     2    1   13 1   
     3    1   14 1   
     4    1   15 1   
     5    2    7 1   
     6    3    4 1   
     7    3    5 1   
     8    3   16 1   
     9    4   17 1   
    10    5    6 1   
    11    5    7 1   
    12    5   18 1   
    13    6   19 1   
    14    7    8 1   
    15    8   20 1   
    16    9   12 1   
    17    9   13 1   
    18   11   13 1   
    19   11   21 1   
@<TRIPOS>SUBSTRUCTURE
     1 FA3         1 TEMP              0 ****  ****    0 ROOT
