@<TRIPOS>MOLECULE
FA3
   21    21     1     0     0
SMALL
bcc


@<TRIPOS>ATOM
      1 C2          0.1670   -0.2660   -0.2250 c3        1 FA3     -0.105400
      2 F1          2.0270   -1.2110    3.4370 f         1 FA3     -0.207500
      3 C3          1.6730   -0.0940   -0.0780 c3        1 FA3      0.149100
      4 O3          2.1320    1.0050   -0.8490 oh        1 FA3     -0.599800
      5 C4          2.0350    0.1000    1.4070 c3        1 FA3      0.148300
      6 O4          3.4530    0.1060    1.5040 oh        1 FA3     -0.596800
      7 C5          1.4110   -0.9910    2.2400 c2        1 FA3      0.000300
      8 C6          0.3240   -1.6850    1.8560 c2        1 FA3     -0.114200
      9 C          -1.9140   -1.1890    0.8960 c         1 FA3      0.907600
     10 O1         -2.2620   -0.0430    1.2710 o         1 FA3     -0.813800
     11 O30        -0.2560   -2.6160   -0.2380 oh        1 FA3     -0.629800
     12 O2         -2.6720   -2.1870    0.7490 o         1 FA3     -0.813800
     13 C1         -0.3910   -1.4460    0.5640 c3        1 FA3      0.048000
     14 H2C1       -0.3560    0.6640    0.1280 hc        1 FA3      0.068200
     15 H2C2       -0.0710   -0.4110   -1.3100 hc        1 FA3      0.068200
     16 H3          2.2310   -0.9780   -0.4920 h1        1 FA3      0.092700
     17 HB          1.6350    1.7790   -0.5610 ho        1 FA3      0.389000
     18 H4          1.6510    1.0990    1.7660 h1        1 FA3      0.041700
     19 HA          3.6710   -0.0450    2.4330 ho        1 FA3      0.398000
     20 H6         -0.1080   -2.4760    2.4880 ha        1 FA3      0.141000
     21 H30        -1.1000   -3.0950   -0.1820 ho        1 FA3      0.430000
@<TRIPOS>BOND
     1    1    3 1   
     2    1   13 1   
     3    1   14 1   
     4    1   15 1   
     5    2    7 1   
     6    3    4 1   
     7    3    5 1   
     8    3   16 1   
     9    4   17 1   
    10    5    6 1   
    11    5    7 1   
    12    5   18 1   
    13    6   19 1   
    14    7    8 2   
    15    8   13 1   
    16    8   20 1   
    17    9   10 1   
    18    9   12 1   
    19    9   13 1   
    20   11   13 1   
    21   11   21 1   
@<TRIPOS>SUBSTRUCTURE
     1 FA3         1 TEMP              0 ****  ****    0 ROOT
