@<TRIPOS>MOLECULE
FA3
   21    21     1     0     0
SMALL
bcc


@<TRIPOS>ATOM
      1 C2          0.0230   -0.0600   -0.1830 c3        1 FA3     -0.069400
      2 F1          2.0640   -1.4420    3.2460 f         1 FA3     -0.208500
      3 C3          1.5390    0.0340   -0.1000 c3        1 FA3      0.152100
      4 O3          1.9450    1.2180   -0.7730 oh        1 FA3     -0.607800
      5 C4          1.9740    0.0890    1.3770 c3        1 FA3      0.138300
      6 O4          3.3980    0.0960    1.3880 oh        1 FA3     -0.623800
      7 C5          1.3880   -1.0830    2.1190 c2        1 FA3     -0.002700
      8 C6          0.2690   -1.7130    1.7160 c2        1 FA3     -0.108200
      9 C          -2.0090   -1.1100    0.9220 c         1 FA3      0.908600
     10 O1         -2.3260   -0.0380    1.4920 o         1 FA3     -0.813300
     11 O30        -0.4060   -2.3960   -0.4410 oh        1 FA3     -0.632800
     12 O2         -2.7870   -2.0670    0.6490 o         1 FA3     -0.813300
     13 C1         -0.5050   -1.3240    0.4930 c3        1 FA3      0.043000
     14 H2C1       -0.2830   -0.0640   -1.2600 hc        1 FA3      0.073200
     15 H2C2       -0.4440    0.8320    0.3130 hc        1 FA3      0.073200
     16 H3          2.0190   -0.8580   -0.5930 h1        1 FA3      0.050700
     17 HB          2.8960    1.2970   -0.6240 ho        1 FA3      0.399000
     18 H4          1.6150    1.0490    1.8470 h1        1 FA3      0.060700
     19 HA          3.6780   -0.1900    2.2660 ho        1 FA3      0.408000
     20 H6         -0.1470   -2.5630    2.2780 ha        1 FA3      0.141000
     21 H30        -1.2600   -2.8610   -0.4290 ho        1 FA3      0.430000
@<TRIPOS>BOND
     1    1    3 1   
     2    1   13 1   
     3    1   14 1   
     4    1   15 1   
     5    2    7 1   
     6    3    4 1   
     7    3    5 1   
     8    3   16 1   
     9    4   17 1   
    10    5    6 1   
    11    5    7 1   
    12    5   18 1   
    13    6   19 1   
    14    7    8 2   
    15    8   13 1   
    16    8   20 1   
    17    9   10 1   
    18    9   12 1   
    19    9   13 1   
    20   11   13 1   
    21   11   21 1   
@<TRIPOS>SUBSTRUCTURE
     1 FA3         1 TEMP              0 ****  ****    0 ROOT
