@<TRIPOS>MOLECULE
FA3
   21    21     1     0     0
SMALL
bcc


@<TRIPOS>ATOM
      1 C2          1.2870    0.2150   -0.2600 c3        1 FA3     -0.069400
      2 F1         -2.4130   -0.0490    1.7590 f         1 FA3     -0.208500
      3 C3          1.2430   -0.1030    1.2270 c3        1 FA3      0.152100
      4 O3          2.3760    0.4960    1.8410 oh        1 FA3     -0.607800
      5 C4         -0.0520    0.4650    1.8400 c3        1 FA3      0.138300
      6 O4         -0.0710    0.0680    3.2070 oh        1 FA3     -0.623800
      7 C5         -1.2400   -0.0410    1.0650 c2        1 FA3     -0.002700
      8 C6         -1.1570   -0.4340   -0.2200 c2        1 FA3     -0.108200
      9 C          -0.1570    0.3860   -2.3430 c         1 FA3      0.908600
     10 O1         -0.1760    1.6400   -2.2990 o         1 FA3     -0.813300
     11 O30         0.4600   -1.7650   -1.3080 oh        1 FA3     -0.632800
     12 O2         -0.3410   -0.3260   -3.3690 o         1 FA3     -0.813300
     13 C1          0.1150   -0.4150   -1.0100 c3        1 FA3      0.043000
     14 H2C1        1.2540    1.3260   -0.4150 hc        1 FA3      0.073200
     15 H2C2        2.2480   -0.1710   -0.6860 hc        1 FA3      0.073200
     16 H3          1.2730   -1.2160    1.3950 h1        1 FA3      0.050700
     17 HB          2.2720    0.3560    2.7890 ho        1 FA3      0.399000
     18 H4         -0.0320    1.5920    1.8020 h1        1 FA3      0.060700
     19 HA         -0.9850    0.1280    3.5090 ho        1 FA3      0.408000
     20 H6         -2.0410   -0.7940   -0.7690 ha        1 FA3      0.141000
     21 H30         0.2450   -1.9120   -2.2450 ho        1 FA3      0.430000
@<TRIPOS>BOND
     1    1    3 1   
     2    1   13 1   
     3    1   14 1   
     4    1   15 1   
     5    2    7 1   
     6    3    4 1   
     7    3    5 1   
     8    3   16 1   
     9    4   17 1   
    10    5    6 1   
    11    5    7 1   
    12    5   18 1   
    13    6   19 1   
    14    7    8 2   
    15    8   13 1   
    16    8   20 1   
    17    9   10 1   
    18    9   12 1   
    19    9   13 1   
    20   11   13 1   
    21   11   21 1   
@<TRIPOS>SUBSTRUCTURE
     1 FA3         1 TEMP              0 ****  ****    0 ROOT
