@<TRIPOS>MOLECULE
FA4
   80    80     1     0     0
SMALL
bcc


@<TRIPOS>ATOM
      1 C1          1.8540   -0.0530   -0.8390 ca        1 FA4     -0.032000
      2 C2          2.8910   -0.1170    0.0850 ca        1 FA4     -0.134000
      3 C3          2.6720    0.0930    1.4600 ca        1 FA4      0.001700
      4 C4          1.3670    0.4050    1.8830 ca        1 FA4     -0.225300
      5 C5          0.3110    0.4400    0.9400 ca        1 FA4     -0.120000
      6 C6          0.5470    0.2150   -0.4050 ca        1 FA4     -0.105000
      7 C7          3.8570   -0.0580    2.3550 c3        1 FA4     -0.054100
      8 C8          4.3910   -1.4860    2.3510 c3        1 FA4     -0.078400
      9 C9          5.8640   -1.5460    2.7090 c3        1 FA4     -0.080400
     10 C10         6.3960   -2.9620    2.5830 c3        1 FA4     -0.079400
     11 C11         7.8950   -3.0250    2.8070 c3        1 FA4     -0.078400
     12 C12         8.4160   -4.4380    2.6230 c3        1 FA4     -0.078400
     13 C13         9.9230   -4.5020    2.8010 c3        1 FA4     -0.081400
     14 C14        10.4250   -5.9230    2.6010 c3        1 FA4     -0.083400
     15 C15        11.9430   -5.9710    2.7560 c3        1 FA4     -0.149400
     16 C16        12.4360   -7.3820    2.6770 c         1 FA4      0.602100
     17 N17        13.9280   -7.5550    2.2550 ny        1 FA4     -0.720800
     18 C18        14.4350   -8.9670    2.3340 c3        1 FA4      0.078500
     19 O19        11.8840   -8.4460    2.8920 o         1 FA4     -0.455100
     20 C20        15.9510   -9.0880    2.0650 c3        1 FA4     -0.116400
     21 C21        13.7290   -9.8220    1.2650 c         1 FA4      0.484100
     22 N22        12.8400  -10.9610    1.7260 ny        1 FA4     -0.432300
     23 C23        16.8210   -8.6460    3.2290 c3        1 FA4     -0.084400
     24 C24        18.2790   -8.9830    2.9410 c3        1 FA4     -0.109400
     25 C25        19.1640   -8.5740    4.1180 c3        1 FA4      0.102800
     26 N26        20.6060   -8.8960    3.9190 nz        1 FA4     -0.837600
     27 C27         0.9880    0.6650    3.2880 c3        1 FA4      0.207100
     28 N28         0.6810    2.1740    3.4290 ny        1 FA4     -0.804000
     29 C29        -0.0660    2.5130    4.6830 c2        1 FA4      0.601100
     30 N30        -0.8630    3.7930    4.6230 nz        1 FA4     -0.823600
     31 N31        -0.1160    1.8720    5.7840 n2        1 FA4     -0.597100
     32 O32        11.8780  -11.2290    0.8130 oh        1 FA4     -0.319300
     33 O33        13.8270   -9.6450    0.0650 o         1 FA4     -0.325100
     34 H1          2.0530   -0.2230   -1.9120 ha        1 FA4      0.185000
     35 H2          3.9140   -0.3420   -0.2630 ha        1 FA4      0.170000
     36 H5         -0.7220    0.6110    1.2810 ha        1 FA4      0.131000
     37 H6         -0.2830    0.2350   -1.1330 ha        1 FA4      0.186000
     38 H71         3.6310    0.2470    3.4090 hc        1 FA4      0.052200
     39 H72         4.6640    0.6370    1.9850 hc        1 FA4      0.052200
     40 H81         3.8010   -2.1070    3.0750 hc        1 FA4      0.057200
     41 H82         4.2450   -1.9400    1.3340 hc        1 FA4      0.057200
     42 H91         6.4450   -0.8690    2.0290 hc        1 FA4      0.048700
     43 H92         6.0170   -1.1770    3.7570 hc        1 FA4      0.048700
     44 H101        6.1570   -3.3600    1.5600 hc        1 FA4      0.050200
     45 H102        5.8770   -3.6240    3.3250 hc        1 FA4      0.050200
     46 H111        8.1360   -2.6650    3.8420 hc        1 FA4      0.050200
     47 H112        8.4110   -2.3370    2.0850 hc        1 FA4      0.050200
     48 H121        7.9210   -5.1180    3.3660 hc        1 FA4      0.054200
     49 H122        8.1440   -4.8060    1.5990 hc        1 FA4      0.054200
     50 H131       10.1940   -4.1440    3.8290 hc        1 FA4      0.058700
     51 H132       10.4160   -3.8170    2.0620 hc        1 FA4      0.058700
     52 H141        9.9450   -6.6030    3.3550 hc        1 FA4      0.078700
     53 H142       10.1370   -6.2840    1.5790 hc        1 FA4      0.078700
     54 H151       12.2300   -5.5680    3.7720 hc        1 FA4      0.126700
     55 H152       12.4250   -5.3230    1.9730 hc        1 FA4      0.126700
     56 H17        14.0380   -7.1990    1.2940 hn        1 FA4      0.482300
     57 H18        14.2050   -9.3420    3.3800 hx        1 FA4      0.145700
     58 H201       16.2250   -8.5170    1.1350 hc        1 FA4      0.109200
     59 H202       16.1630  -10.1740    1.8510 hc        1 FA4      0.109200
     60 H22        12.3060  -10.6760    2.5850 hn        1 FA4      0.512800
     61 H231       16.4980   -9.1630    4.1720 hc        1 FA4      0.068700
     62 H232       16.7220   -7.5400    3.3940 hc        1 FA4      0.068700
     63 H241       18.3760  -10.0870    2.7540 hc        1 FA4      0.087200
     64 H242       18.6070   -8.4510    2.0070 hc        1 FA4      0.087200
     65 H251       19.0870   -7.4590    4.2890 hx        1 FA4      0.121200
     66 H252       18.8260   -9.1040    5.0570 hx        1 FA4      0.121200
     67 H261       20.9790   -8.4120    3.0920 hn        1 FA4      0.480800
     68 H262       20.7420   -9.9070    3.7950 hn        1 FA4      0.480800
     69 H271        0.0360    0.1190    3.5540 hx        1 FA4      0.115200
     70 H272        1.8010    0.4170    4.0250 hx        1 FA4      0.115200
     71 H28         0.1490    2.4430    2.5840 hn        1 FA4      0.477800
     72 H301       -0.2540    4.5960    4.4060 hn        1 FA4      0.510467
     73 H302       -1.6150    3.7190    3.9200 hn        1 FA4      0.510467
     74 H31         0.3590    1.0050    5.9550 hn        1 FA4      0.530400
     75 H32        12.2820  -11.6110   -0.0080 ho        1 FA4      0.506000
     76 H172       14.5110   -6.9730    2.8730 hn        1 FA4      0.482300
     77 H222       13.4020  -11.8110    1.9400 hn        1 FA4      0.512800
     78 H263       21.1440   -8.5930    4.7450 hn        1 FA4      0.480800
     79 H282        1.5740    2.6900    3.4180 hn        1 FA4      0.477800
     80 H303       -1.3100    3.9700    5.5510 hn        1 FA4      0.510467
@<TRIPOS>BOND
     1    1    2 ar  
     2    1    6 ar  
     3    1   34 1   
     4    2    3 ar  
     5    2   35 1   
     6    3    4 ar  
     7    3    7 1   
     8    4    5 ar  
     9    4   27 1   
    10    5    6 ar  
    11    5   36 1   
    12    6   37 1   
    13    7    8 1   
    14    7   38 1   
    15    7   39 1   
    16    8    9 1   
    17    8   40 1   
    18    8   41 1   
    19    9   10 1   
    20    9   42 1   
    21    9   43 1   
    22   10   11 1   
    23   10   44 1   
    24   10   45 1   
    25   11   12 1   
    26   11   46 1   
    27   11   47 1   
    28   12   13 1   
    29   12   48 1   
    30   12   49 1   
    31   13   14 1   
    32   13   50 1   
    33   13   51 1   
    34   14   15 1   
    35   14   52 1   
    36   14   53 1   
    37   15   16 1   
    38   15   54 1   
    39   15   55 1   
    40   16   17 1   
    41   16   19 2   
    42   17   18 1   
    43   17   56 1   
    44   17   76 1   
    45   18   20 1   
    46   18   21 1   
    47   18   57 1   
    48   20   23 1   
    49   20   58 1   
    50   20   59 1   
    51   21   22 1   
    52   21   33 2   
    53   22   32 1   
    54   22   60 1   
    55   22   77 1   
    56   23   24 1   
    57   23   61 1   
    58   23   62 1   
    59   24   25 1   
    60   24   63 1   
    61   24   64 1   
    62   25   26 1   
    63   25   65 1   
    64   25   66 1   
    65   26   67 1   
    66   26   68 1   
    67   26   78 1   
    68   27   28 1   
    69   27   69 1   
    70   27   70 1   
    71   28   29 1   
    72   28   71 1   
    73   28   79 1   
    74   29   30 1   
    75   29   31 2   
    76   30   72 1   
    77   30   73 1   
    78   30   80 1   
    79   31   74 1   
    80   32   75 1   
@<TRIPOS>SUBSTRUCTURE
     1 FA4         1 TEMP              0 ****  ****    0 ROOT
