@<TRIPOS>MOLECULE
FA4
   75    75     1     0     0
SMALL
bcc


@<TRIPOS>ATOM
      1 C1         -9.2850    2.9980    0.0630 ca        1 FA4     -0.119000
      2 C2         -8.1290    2.4790    0.6390 ca        1 FA4     -0.132000
      3 C3         -7.6870    1.1860    0.3240 ca        1 FA4     -0.059300
      4 C4         -8.4230    0.4180   -0.5910 ca        1 FA4     -0.105300
      5 C5         -9.5890    0.9430   -1.1610 ca        1 FA4     -0.108000
      6 C6        -10.0200    2.2270   -0.8390 ca        1 FA4     -0.137000
      7 C7         -6.4480    0.6770    0.9800 c3        1 FA4     -0.047100
      8 C8         -5.2050    1.0540    0.1960 c3        1 FA4     -0.074400
      9 C9         -3.9550    0.5570    0.8910 c3        1 FA4     -0.081400
     10 C10        -2.7120    0.9260    0.1120 c3        1 FA4     -0.078400
     11 C11        -1.4620    0.4330    0.8080 c3        1 FA4     -0.079400
     12 C12        -0.2180    0.7980    0.0270 c3        1 FA4     -0.078400
     13 C13         1.0320    0.3060    0.7250 c3        1 FA4     -0.079400
     14 C14         2.2730    0.6710   -0.0620 c3        1 FA4     -0.074400
     15 C15         3.5200    0.1810    0.6420 c3        1 FA4     -0.146400
     16 C16         4.7640    0.5330   -0.1500 c         1 FA4      0.662100
     17 N17         5.9800    0.1610    0.3940 n         1 FA4     -0.573900
     18 C18         7.2300    0.4210   -0.2720 c3        1 FA4      0.039700
     19 O19         4.7220    1.1210   -1.2500 o         1 FA4     -0.623100
     20 C20         8.3760   -0.4780    0.2080 c3        1 FA4     -0.085400
     21 C21         7.6590    1.8940   -0.0590 c         1 FA4      0.573100
     22 N22         7.2120    2.8230   -1.0350 n         1 FA4     -0.361400
     23 C23         8.1320   -1.9340   -0.1180 c3        1 FA4     -0.079400
     24 C24         9.3470   -2.7700    0.2250 c3        1 FA4     -0.084400
     25 C25         9.0760   -4.2420   -0.0830 c3        1 FA4      0.160800
     26 N26        10.2180   -5.0940    0.1500 n3        1 FA4     -0.916800
     27 C27        -7.9840   -0.9590   -1.0010 c3        1 FA4      0.215100
     28 N28        -8.5000   -2.0020   -0.1260 nh        1 FA4     -0.788200
     29 C29        -7.6910   -3.1990   -0.0610 c2        1 FA4      0.739100
     30 N30        -7.3590   -3.7910   -1.3210 nh        1 FA4     -0.930800
     31 N31        -7.3110   -3.6490    1.1090 n2        1 FA4     -0.874100
     32 O32         7.2400    4.1020   -0.6570 oh        1 FA4     -0.432100
     33 O33         8.4420    2.2260    0.8440 o         1 FA4     -0.567100
     34 H1         -9.6200    4.0130    0.3210 ha        1 FA4      0.133000
     35 H2         -7.5520    3.0870    1.3530 ha        1 FA4      0.134000
     36 H5        -10.1690    0.3320   -1.8680 ha        1 FA4      0.135000
     37 H6        -10.9360    2.6310   -1.2920 ha        1 FA4      0.133000
     38 H71        -6.4940   -0.4380    1.0990 hc        1 FA4      0.054700
     39 H72        -6.3740    1.1090    2.0150 hc        1 FA4      0.054700
     40 H81        -5.1570    2.1690    0.0830 hc        1 FA4      0.043700
     41 H82        -5.2610    0.6180   -0.8360 hc        1 FA4      0.043700
     42 H91        -4.0090   -0.5580    1.0100 hc        1 FA4      0.042200
     43 H92        -3.8980    0.9970    1.9220 hc        1 FA4      0.042200
     44 H101       -2.6600    2.0400   -0.0100 hc        1 FA4      0.040700
     45 H102       -2.7680    0.4840   -0.9180 hc        1 FA4      0.040700
     46 H111       -1.5150   -0.6810    0.9320 hc        1 FA4      0.040200
     47 H112       -1.4040    0.8770    1.8370 hc        1 FA4      0.040200
     48 H121       -0.1650    1.9120   -0.0990 hc        1 FA4      0.043700
     49 H122       -0.2740    0.3520   -1.0010 hc        1 FA4      0.043700
     50 H131        0.9780   -0.8070    0.8530 hc        1 FA4      0.038700
     51 H132        1.0900    0.7550    1.7520 hc        1 FA4      0.038700
     52 H141        2.3320    1.7830   -0.1950 hc        1 FA4      0.061200
     53 H142        2.2230    0.2230   -1.0900 hc        1 FA4      0.061200
     54 H151        3.4730   -0.9330    0.7710 hc        1 FA4      0.066700
     55 H152        3.5880    0.6430    1.6630 hc        1 FA4      0.066700
     56 H17         6.0190   -0.2160    1.3100 hn        1 FA4      0.320500
     57 H18         7.0740    0.2450   -1.3820 h1        1 FA4      0.093700
     58 H201        8.5350   -0.3430    1.3100 hc        1 FA4      0.067200
     59 H202        9.3120   -0.1240   -0.3020 hc        1 FA4      0.067200
     60 H22         6.2840    2.6150   -1.4010 hn        1 FA4      0.335500
     61 H231        7.8960   -2.0440   -1.2100 hc        1 FA4      0.042700
     62 H232        7.2440   -2.3130    0.4530 hc        1 FA4      0.042700
     63 H241        9.5980   -2.6450    1.3100 hc        1 FA4      0.050200
     64 H242       10.2310   -2.4140   -0.3660 hc        1 FA4      0.050200
     65 H251        8.8040   -4.3410   -1.1730 h1        1 FA4      0.023700
     66 H252        8.1690   -4.5620    0.5130 h1        1 FA4      0.023700
     67 H261       10.5960   -4.9500    1.0650 hn        1 FA4      0.349800
     68 H262        9.9630   -6.0550    0.0450 hn        1 FA4      0.349800
     69 H271       -8.3800   -1.1770   -2.0370 h1        1 FA4      0.050200
     70 H272       -6.8560   -0.9760   -1.0670 h1        1 FA4      0.050200
     71 H28        -8.7010   -1.6500    0.7940 hn        1 FA4      0.408800
     72 H301       -7.2930   -4.7850   -1.2880 hn        1 FA4      0.391800
     73 H302       -7.9020   -3.4750   -2.0950 hn        1 FA4      0.391800
     74 H31        -6.8510   -4.5330    1.1070 hn        1 FA4      0.390400
     75 H32         8.1810    4.3650   -0.6760 ho        1 FA4      0.428000
@<TRIPOS>BOND
     1    1    2 ar  
     2    1    6 ar  
     3    1   34 1   
     4    2    3 ar  
     5    2   35 1   
     6    3    4 ar  
     7    3    7 1   
     8    4    5 ar  
     9    4   27 1   
    10    5    6 ar  
    11    5   36 1   
    12    6   37 1   
    13    7    8 1   
    14    7   38 1   
    15    7   39 1   
    16    8    9 1   
    17    8   40 1   
    18    8   41 1   
    19    9   10 1   
    20    9   42 1   
    21    9   43 1   
    22   10   11 1   
    23   10   44 1   
    24   10   45 1   
    25   11   12 1   
    26   11   46 1   
    27   11   47 1   
    28   12   13 1   
    29   12   48 1   
    30   12   49 1   
    31   13   14 1   
    32   13   50 1   
    33   13   51 1   
    34   14   15 1   
    35   14   52 1   
    36   14   53 1   
    37   15   16 1   
    38   15   54 1   
    39   15   55 1   
    40   16   17 1   
    41   16   19 2   
    42   17   18 1   
    43   17   56 1   
    44   18   20 1   
    45   18   21 1   
    46   18   57 1   
    47   20   23 1   
    48   20   58 1   
    49   20   59 1   
    50   21   22 1   
    51   21   33 2   
    52   22   32 1   
    53   22   60 1   
    54   23   24 1   
    55   23   61 1   
    56   23   62 1   
    57   24   25 1   
    58   24   63 1   
    59   24   64 1   
    60   25   26 1   
    61   25   65 1   
    62   25   66 1   
    63   26   67 1   
    64   26   68 1   
    65   27   28 1   
    66   27   69 1   
    67   27   70 1   
    68   28   29 1   
    69   28   71 1   
    70   29   30 1   
    71   29   31 2   
    72   30   72 1   
    73   30   73 1   
    74   31   74 1   
    75   32   75 1   
@<TRIPOS>SUBSTRUCTURE
     1 FA4         1 TEMP              0 ****  ****    0 ROOT
