@<TRIPOS>MOLECULE
FA4
   80    80     1     0     0
SMALL
bcc


@<TRIPOS>ATOM
      1 C1          2.2360    0.4810   -0.9640 ca        1 FA4     -0.032000
      2 C2          3.1640    0.2720    0.0500 ca        1 FA4     -0.134000
      3 C3          2.7960    0.3030    1.4080 ca        1 FA4      0.001700
      4 C4          1.4540    0.5860    1.7240 ca        1 FA4     -0.225300
      5 C5          0.5100    0.7690    0.6860 ca        1 FA4     -0.120000
      6 C6          0.8920    0.7190   -0.6440 ca        1 FA4     -0.105000
      7 C7          3.8730    0.0070    2.3990 c3        1 FA4     -0.054100
      8 C8          4.3930   -1.4190    2.2600 c3        1 FA4     -0.078400
      9 C9          5.8140   -1.5620    2.7740 c3        1 FA4     -0.080400
     10 C10         6.3490   -2.9570    2.5090 c3        1 FA4     -0.079400
     11 C11         7.8090   -3.0850    2.9000 c3        1 FA4     -0.078400
     12 C12         8.3430   -4.4680    2.5730 c3        1 FA4     -0.078400
     13 C13         9.8150   -4.5920    2.9230 c3        1 FA4     -0.081400
     14 C14        10.3350   -5.9760    2.5720 c3        1 FA4     -0.083400
     15 C15        11.8200   -6.0800    2.9060 c3        1 FA4     -0.150400
     16 C16        12.3210   -7.4710    2.6670 c         1 FA4      0.607100
     17 N17        13.8390   -7.6040    2.3590 n4        1 FA4     -0.718800
     18 C18        14.3640   -9.0110    2.4360 c3        1 FA4      0.089500
     19 O19        11.7450   -8.5460    2.6710 o         1 FA4     -0.468100
     20 C20        15.8510   -9.1360    2.0460 c3        1 FA4     -0.113400
     21 C21        13.5750   -9.8990    1.4610 c         1 FA4      0.540100
     22 N22        12.9450  -11.1810    2.0020 n4        1 FA4     -0.436300
     23 C23        16.8100   -8.6170    3.1030 c3        1 FA4     -0.083400
     24 C24        18.2420   -8.9650    2.7160 c3        1 FA4     -0.109400
     25 C25        19.2160   -8.4820    3.7900 c3        1 FA4      0.102800
     26 N26        20.6400   -8.8080    3.4920 n4        1 FA4     -0.837600
     27 C27         0.9240    0.6670    3.1020 c3        1 FA4      0.207100
     28 N28         0.6170    2.1510    3.4100 n4        1 FA4     -0.804000
     29 C29        -0.2610    2.3390    4.6090 c2        1 FA4      0.601100
     30 N30        -1.0360    3.6340    4.6340 n4        1 FA4     -0.823600
     31 N31        -0.4370    1.5600    5.6030 n2        1 FA4     -0.597100
     32 O32        13.7290  -11.6510    2.9980 oh        1 FA4     -0.383300
     33 O33        13.3980   -9.6810    0.2780 o         1 FA4     -0.335100
     34 H1          2.5520    0.4500   -2.0230 ha        1 FA4      0.185000
     35 H2          4.2170    0.0710   -0.2130 ha        1 FA4      0.170000
     36 H5         -0.5540    0.9170    0.9320 ha        1 FA4      0.131000
     37 H6          0.1470    0.8540   -1.4480 ha        1 FA4      0.186000
     38 H71         3.5330    0.1740    3.4530 hc        1 FA4      0.051700
     39 H72         4.7210    0.7270    2.2160 hc        1 FA4      0.051700
     40 H81         3.7180   -2.1190    2.8180 hc        1 FA4      0.057200
     41 H82         4.3650   -1.7280    1.1800 hc        1 FA4      0.057200
     42 H91         5.8440   -1.3470    3.8740 hc        1 FA4      0.048700
     43 H92         6.4750   -0.8080    2.2680 hc        1 FA4      0.048700
     44 H101        6.2340   -3.2000    1.4190 hc        1 FA4      0.050200
     45 H102        5.7400   -3.7060    3.0820 hc        1 FA4      0.050200
     46 H111        8.4120   -2.3110    2.3560 hc        1 FA4      0.050200
     47 H112        7.9230   -2.8860    3.9980 hc        1 FA4      0.050200
     48 H121        7.7560   -5.2380    3.1390 hc        1 FA4      0.053700
     49 H122        8.2000   -4.6730    1.4790 hc        1 FA4      0.053700
     50 H131       10.3990   -3.8130    2.3650 hc        1 FA4      0.058700
     51 H132        9.9560   -4.4000    4.0200 hc        1 FA4      0.058700
     52 H141        9.7620   -6.7520    3.1440 hc        1 FA4      0.077700
     53 H142       10.1780   -6.1700    1.4780 hc        1 FA4      0.077700
     54 H151       12.3990   -5.3260    2.3050 hc        1 FA4      0.126700
     55 H152       11.9750   -5.8510    4.0020 hc        1 FA4      0.126700
     56 H17        14.0060   -7.2250    1.4140 hn        1 FA4      0.482300
     57 H18        14.2210   -9.3660    3.5050 hx        1 FA4      0.160700
     58 H201       16.0420   -8.6230    1.0630 hc        1 FA4      0.109200
     59 H202       16.0500  -10.2350    1.8900 hc        1 FA4      0.109200
     60 H22        11.9930  -10.9470    2.3660 hn        1 FA4      0.508800
     61 H231       16.5700   -9.0780    4.1000 hc        1 FA4      0.067700
     62 H232       16.7130   -7.5050    3.2070 hc        1 FA4      0.067700
     63 H241       18.4880   -8.4890    1.7280 hc        1 FA4      0.086200
     64 H242       18.3330  -10.0780    2.5890 hc        1 FA4      0.086200
     65 H251       19.1430   -7.3590    3.9010 hx        1 FA4      0.120700
     66 H252       18.9610   -8.9570    4.7840 hx        1 FA4      0.120700
     67 H261       20.9390   -8.3740    2.6100 hn        1 FA4      0.479800
     68 H262       20.7750   -9.8250    3.4170 hn        1 FA4      0.479800
     69 H271       -0.0560    0.1130    3.1880 hx        1 FA4      0.115200
     70 H272        1.6480    0.3050    3.8830 hx        1 FA4      0.115200
     71 H28         0.1840    2.5420    2.5550 hn        1 FA4      0.477800
     72 H301       -1.7060    3.6700    3.8500 hn        1 FA4      0.510467
     73 H302       -0.4000    4.4430    4.5930 hn        1 FA4      0.510467
     74 H31         0.0080    0.6670    5.7070 hn        1 FA4      0.530400
     75 H32        13.4260  -12.5610    3.2550 ho        1 FA4      0.522000
     76 H172       14.3670   -7.0290    3.0280 hn        1 FA4      0.482300
     77 H222       12.8550  -11.8710    1.2200 hn        1 FA4      0.508800
     78 H263       21.2420   -8.4550    4.2510 hn        1 FA4      0.479800
     79 H282        1.5100    2.6430    3.5650 hn        1 FA4      0.477800
     80 H303       -1.5810    3.6970    5.5230 hn        1 FA4      0.510467
@<TRIPOS>BOND
     1    1    2 ar  
     2    1    6 ar  
     3    1   34 1   
     4    2    3 ar  
     5    2   35 1   
     6    3    4 ar  
     7    3    7 1   
     8    4    5 ar  
     9    4   27 1   
    10    5    6 ar  
    11    5   36 1   
    12    6   37 1   
    13    7    8 1   
    14    7   38 1   
    15    7   39 1   
    16    8    9 1   
    17    8   40 1   
    18    8   41 1   
    19    9   10 1   
    20    9   42 1   
    21    9   43 1   
    22   10   11 1   
    23   10   44 1   
    24   10   45 1   
    25   11   12 1   
    26   11   46 1   
    27   11   47 1   
    28   12   13 1   
    29   12   48 1   
    30   12   49 1   
    31   13   14 1   
    32   13   50 1   
    33   13   51 1   
    34   14   15 1   
    35   14   52 1   
    36   14   53 1   
    37   15   16 1   
    38   15   54 1   
    39   15   55 1   
    40   16   17 1   
    41   16   19 2   
    42   17   18 1   
    43   17   56 1   
    44   17   76 1   
    45   18   20 1   
    46   18   21 1   
    47   18   57 1   
    48   20   23 1   
    49   20   58 1   
    50   20   59 1   
    51   21   22 1   
    52   21   33 2   
    53   22   32 1   
    54   22   60 1   
    55   22   77 1   
    56   23   24 1   
    57   23   61 1   
    58   23   62 1   
    59   24   25 1   
    60   24   63 1   
    61   24   64 1   
    62   25   26 1   
    63   25   65 1   
    64   25   66 1   
    65   26   67 1   
    66   26   68 1   
    67   26   78 1   
    68   27   28 1   
    69   27   69 1   
    70   27   70 1   
    71   28   29 1   
    72   28   71 1   
    73   28   79 1   
    74   29   30 1   
    75   29   31 2   
    76   30   72 1   
    77   30   73 1   
    78   30   80 1   
    79   31   74 1   
    80   32   75 1   
@<TRIPOS>SUBSTRUCTURE
     1 FA4         1 TEMP              0 ****  ****    0 ROOT
