@<TRIPOS>MOLECULE
FA4
   75    71     1     0     0
SMALL
bcc


@<TRIPOS>ATOM
      1 C1         -5.2740    0.5850   -2.3010 c1        1 FA4     -0.070500
      2 C2         -5.0190    1.1780   -1.0630 c1        1 FA4     -0.070500
      3 C3         -5.3580    2.5090   -0.8470 c1        1 FA4     -0.031100
      4 C4         -5.9600    3.2570   -1.8810 c1        1 FA4     -0.098100
      5 C5         -6.2130    2.6640   -3.1140 c1        1 FA4     -0.072500
      6 C6         -5.8740    1.3330   -3.3300 c1        1 FA4     -0.070500
      7 C7         -5.0350    3.1880    0.5170 c3        1 FA4     -0.074300
      8 C8         -4.8560    2.0830    1.6310 c3        1 FA4     -0.076400
      9 C9         -3.6640    2.4060    2.4640 c3        1 FA4     -0.083400
     10 C10        -3.1340    1.1220    3.1110 c3        1 FA4     -0.079400
     11 C11        -1.5670    1.2740    3.3950 c3        1 FA4     -0.079400
     12 C12        -0.8700   -0.1130    3.2350 c3        1 FA4     -0.079400
     13 C13         0.7090    0.0820    3.2370 c3        1 FA4     -0.079400
     14 C14         1.3940   -1.2650    2.9030 c3        1 FA4     -0.079400
     15 C15         2.8930   -1.0440    2.7320 c3        1 FA4     -0.151400
     16 C16         3.5160   -2.2450    1.9260 c         1 FA4      0.662100
     17 N17         4.7550   -2.0580    1.1780 n         1 FA4     -0.567900
     18 C18         5.1880   -3.0700    0.2430 c3        1 FA4      0.036700
     19 O19         2.9780   -3.3710    1.9660 o         1 FA4     -0.623100
     20 C20         6.6510   -2.8140   -0.1520 c3        1 FA4     -0.085400
     21 C21         4.3250   -3.0270   -0.9720 c         1 FA4      0.572100
     22 N22         3.8080   -4.2370   -1.5160 n         1 FA4     -0.361400
     23 C23         7.4410   -4.1210   -0.0830 c3        1 FA4     -0.075400
     24 C24         8.6490   -4.0320   -1.0130 c3        1 FA4     -0.121400
     25 C25         9.1640   -5.4420   -1.3150 c3        1 FA4      0.150800
     26 N26        10.2780   -5.3640   -2.1660 n3        1 FA4     -0.904800
     27 C27        -6.4800    4.7010   -1.5970 c3        1 FA4      0.168900
     28 N28        -6.1710    5.5420   -2.6960 nh        1 FA4     -0.753000
     29 C29        -7.1910    6.4720   -3.2190 c2        1 FA4      0.293000
     30 N30        -8.5510    6.0330   -3.3800 nh        1 FA4     -0.844600
     31 N31        -6.8660    7.6750   -3.5310 n1        1 FA4     -0.294000
     32 O32         3.1980   -4.2310   -2.7230 oh        1 FA4     -0.432100
     33 O33         4.0590   -1.9650   -1.4910 o         1 FA4     -0.567100
     34 H1         -5.0360   -0.3470   -2.4520 ha        1 FA4      0.076500
     35 H2         -4.6000    0.6550   -0.3440 ha        1 FA4      0.079500
     36 H5         -6.6290    3.1820   -3.8280 ha        1 FA4      0.079500
     37 H6         -6.0520    0.9200   -4.1940 ha        1 FA4      0.076500
     38 H71        -5.7710    3.7850    0.7660 hc        1 FA4      0.051200
     39 H72        -4.2110    3.7050    0.4360 hc        1 FA4      0.051200
     40 H81        -4.7320    1.2310    1.2170 hc        1 FA4      0.043200
     41 H82        -5.6440    2.0580    2.1920 hc        1 FA4      0.043200
     42 H91        -3.9110    3.0310    3.1490 hc        1 FA4      0.045200
     43 H92        -2.9840    2.7900    1.9120 hc        1 FA4      0.045200
     44 H101       -3.6190    0.9610    3.9760 hc        1 FA4      0.040200
     45 H102       -3.2900    0.3450    2.4890 hc        1 FA4      0.040200
     46 H111       -1.4290    1.6050    4.3160 hc        1 FA4      0.041700
     47 H112       -1.1750    1.9170    2.7490 hc        1 FA4      0.041700
     48 H121       -1.1450   -0.5170    2.3980 hc        1 FA4      0.042700
     49 H122       -1.1270   -0.6960    3.9800 hc        1 FA4      0.042700
     50 H131        0.9930    0.3790    4.1080 hc        1 FA4      0.043700
     51 H132        0.9590    0.7510    2.5660 hc        1 FA4      0.043700
     52 H141        1.0270   -1.6180    2.0880 hc        1 FA4      0.048700
     53 H142        1.2380   -1.8890    3.6230 hc        1 FA4      0.048700
     54 H151        3.3220   -0.9880    3.6240 hc        1 FA4      0.076700
     55 H152        3.0460   -0.2080    2.2410 hc        1 FA4      0.076700
     56 H17         5.2940   -1.3570    1.3670 hn        1 FA4      0.320500
     57 H18         5.1120   -3.9720    0.6710 h1        1 FA4      0.094700
     58 H201        6.6880   -2.4520   -1.0820 hc        1 FA4      0.060700
     59 H202        7.0440   -2.1660    0.4630 hc        1 FA4      0.060700
     60 H22         3.9330   -5.0530   -1.0540 hn        1 FA4      0.334500
     61 H231        7.7420   -4.2660    0.8200 hc        1 FA4      0.050700
     62 H232        6.8720   -4.8650   -0.3600 hc        1 FA4      0.050700
     63 H241        8.3880   -3.5960   -1.8440 hc        1 FA4      0.040200
     64 H242        9.3740   -3.4990   -0.5690 hc        1 FA4      0.040200
     65 H251        8.4510   -5.9660   -1.7520 h1        1 FA4      0.053200
     66 H252        9.4200   -5.8720   -0.4930 h1        1 FA4      0.053200
     67 H261       10.1690   -5.9520   -2.8720 hn        1 FA4      0.344800
     68 H262       11.0390   -5.5870   -1.6970 hn        1 FA4      0.344800
     69 H271       -6.0440    5.0580   -0.7710 h1        1 FA4      0.067200
     70 H272       -7.4480    4.6780   -1.4690 h1        1 FA4      0.067200
     71 H28        -5.3800    5.4570   -3.1210 hn        1 FA4      0.386800
     72 H301       -9.1560    6.5620   -3.8340 hn        1 FA4      0.400300
     73 H302       -8.7960    5.2210   -3.0900 hn        1 FA4      0.400300
     74 H31        -6.0120    7.9510   -3.4300 DU        1 FA4      0.164000
     75 H32         3.1570   -5.0800   -3.0450 ho        1 FA4      0.428000
@<TRIPOS>BOND
     1    1    6 3   
     2    1   34 1   
     3    2    3 3   
     4    2   35 1   
     5    3    7 1   
     6    4    5 3   
     7    4   27 1   
     8    5   36 1   
     9    6   37 1   
    10    7    8 1   
    11    7   38 1   
    12    7   39 1   
    13    8    9 1   
    14    8   40 1   
    15    8   41 1   
    16    9   10 1   
    17    9   42 1   
    18    9   43 1   
    19   10   11 1   
    20   10   44 1   
    21   10   45 1   
    22   11   12 1   
    23   11   46 1   
    24   11   47 1   
    25   12   13 1   
    26   12   48 1   
    27   12   49 1   
    28   13   14 1   
    29   13   50 1   
    30   13   51 1   
    31   14   15 1   
    32   14   52 1   
    33   14   53 1   
    34   15   16 1   
    35   15   54 1   
    36   15   55 1   
    37   16   17 1   
    38   16   19 2   
    39   17   18 1   
    40   17   56 1   
    41   18   20 1   
    42   18   21 1   
    43   18   57 1   
    44   20   23 1   
    45   20   58 1   
    46   20   59 1   
    47   21   22 1   
    48   21   33 2   
    49   22   32 1   
    50   22   60 1   
    51   23   24 1   
    52   23   61 1   
    53   23   62 1   
    54   24   25 1   
    55   24   63 1   
    56   24   64 1   
    57   25   26 1   
    58   25   65 1   
    59   25   66 1   
    60   26   67 1   
    61   26   68 1   
    62   27   28 1   
    63   27   69 1   
    64   27   70 1   
    65   28   29 1   
    66   28   71 1   
    67   29   30 1   
    68   29   31 2   
    69   30   72 1   
    70   30   73 1   
    71   32   75 1   
@<TRIPOS>SUBSTRUCTURE
     1 FA4         1 TEMP              0 ****  ****    0 ROOT
