@<TRIPOS>MOLECULE
FA4
   80    80     1     0     0
SMALL
bcc


@<TRIPOS>ATOM
      1 C1          1.8660   -0.0420   -0.8420 ca        1 FA4     -0.032000
      2 C2          2.8960   -0.1110    0.0890 ca        1 FA4     -0.134000
      3 C3          2.6660    0.0840    1.4640 ca        1 FA4      0.001700
      4 C4          1.3570    0.3870    1.8800 ca        1 FA4     -0.225300
      5 C5          0.3090    0.4280    0.9300 ca        1 FA4     -0.120000
      6 C6          0.5560    0.2180   -0.4160 ca        1 FA4     -0.105000
      7 C7          3.8450   -0.0720    2.3670 c3        1 FA4     -0.054100
      8 C8          4.3830   -1.4990    2.3520 c3        1 FA4     -0.078400
      9 C9          5.8550   -1.5580    2.7190 c3        1 FA4     -0.080400
     10 C10         6.3920   -2.9710    2.5840 c3        1 FA4     -0.079400
     11 C11         7.8900   -3.0300    2.8150 c3        1 FA4     -0.078400
     12 C12         8.4170   -4.4400    2.6260 c3        1 FA4     -0.078400
     13 C13         9.9230   -4.5000    2.8080 c3        1 FA4     -0.081400
     14 C14        10.4310   -5.9190    2.6050 c3        1 FA4     -0.083400
     15 C15        11.9480   -5.9620    2.7610 c3        1 FA4     -0.149400
     16 C16        12.4460   -7.3720    2.6860 c         1 FA4      0.602100
     17 N17        13.9360   -7.5410    2.2550 n4        1 FA4     -0.720800
     18 C18        14.4480   -8.9510    2.3380 c3        1 FA4      0.078500
     19 O19        11.8990   -8.4370    2.9090 o         1 FA4     -0.455100
     20 C20        15.9630   -9.0670    2.0590 c3        1 FA4     -0.116400
     21 C21        13.7390   -9.8150    1.2780 c         1 FA4      0.484100
     22 N22        12.8570  -10.9540    1.7520 n4        1 FA4     -0.432300
     23 C23        16.8390   -8.6140    3.2140 c3        1 FA4     -0.084400
     24 C24        18.2970   -8.9470    2.9180 c3        1 FA4     -0.109400
     25 C25        19.1880   -8.5280    4.0870 c3        1 FA4      0.102800
     26 N26        20.6300   -8.8450    3.8800 n4        1 FA4     -0.837600
     27 C27         0.9660    0.6310    3.2850 c3        1 FA4      0.207100
     28 N28         0.6530    2.1370    3.4400 n4        1 FA4     -0.804000
     29 C29        -0.1040    2.4610    4.6910 c2        1 FA4      0.601100
     30 N30        -0.9060    3.7390    4.6380 n4        1 FA4     -0.823600
     31 N31        -0.1600    1.8080    5.7850 n2        1 FA4     -0.597100
     32 O32        11.8900  -11.2320    0.8460 oh        1 FA4     -0.319300
     33 O33        13.8280   -9.6440    0.0760 o         1 FA4     -0.325100
     34 H1          2.0740   -0.2000   -1.9160 ha        1 FA4      0.185000
     35 H2          3.9230   -0.3300   -0.2540 ha        1 FA4      0.170000
     36 H5         -0.7280    0.5920    1.2650 ha        1 FA4      0.131000
     37 H6         -0.2690    0.2430   -1.1500 ha        1 FA4      0.186000
     38 H71         4.6520    0.6280    2.0090 hc        1 FA4      0.052200
     39 H72         3.6100    0.2220    3.4210 hc        1 FA4      0.052200
     40 H81         3.7920   -2.1290    3.0670 hc        1 FA4      0.057200
     41 H82         4.2460   -1.9440    1.3300 hc        1 FA4      0.057200
     42 H91         6.0000   -1.1960    3.7700 hc        1 FA4      0.048700
     43 H92         6.4380   -0.8730    2.0470 hc        1 FA4      0.048700
     44 H101        5.8720   -3.6400    3.3190 hc        1 FA4      0.050200
     45 H102        6.1590   -3.3610    1.5570 hc        1 FA4      0.050200
     46 H111        8.4070   -2.3370    2.1000 hc        1 FA4      0.050200
     47 H112        8.1250   -2.6750    3.8530 hc        1 FA4      0.050200
     48 H121        7.9210   -5.1260    3.3630 hc        1 FA4      0.054200
     49 H122        8.1490   -4.8040    1.5980 hc        1 FA4      0.054200
     50 H131       10.1900   -4.1450    3.8380 hc        1 FA4      0.058700
     51 H132       10.4160   -3.8110    2.0720 hc        1 FA4      0.058700
     52 H141       10.1450   -6.2780    1.5810 hc        1 FA4      0.078700
     53 H142        9.9520   -6.6020    3.3560 hc        1 FA4      0.078700
     54 H151       12.4300   -5.3120    1.9800 hc        1 FA4      0.126700
     55 H152       12.2320   -5.5580    3.7790 hc        1 FA4      0.126700
     56 H17        14.5210   -6.9540    2.8650 hn        1 FA4      0.482300
     57 H18        14.2270   -9.3210    3.3870 hx        1 FA4      0.145700
     58 H201       16.2290   -8.5010    1.1240 hc        1 FA4      0.109200
     59 H202       16.1780  -10.1540    1.8500 hc        1 FA4      0.109200
     60 H22        12.3280  -10.6660    2.6130 hn        1 FA4      0.512800
     61 H231       16.7370   -7.5080    3.3730 hc        1 FA4      0.068700
     62 H232       16.5250   -9.1270    4.1630 hc        1 FA4      0.068700
     63 H241       18.3970  -10.0530    2.7370 hc        1 FA4      0.087200
     64 H242       18.6170   -8.4190    1.9790 hc        1 FA4      0.087200
     65 H251       19.1070   -7.4120    4.2520 hx        1 FA4      0.121200
     66 H252       18.8580   -9.0540    5.0320 hx        1 FA4      0.121200
     67 H261       21.1730   -8.5350    4.7010 hn        1 FA4      0.480800
     68 H262       20.9950   -8.3650    3.0470 hn        1 FA4      0.480800
     69 H271        1.7740    0.3780    4.0250 hx        1 FA4      0.115200
     70 H272        0.0150    0.0790    3.5380 hx        1 FA4      0.115200
     71 H28         0.1270    2.4140    2.5930 hn        1 FA4      0.477800
     72 H301       -1.3600    3.9040    5.5640 hn        1 FA4      0.510467
     73 H302       -1.6510    3.6690    3.9280 hn        1 FA4      0.510467
     74 H31         0.3170    0.9410    5.9500 hn        1 FA4      0.530400
     75 H32        12.2910  -11.6170    0.0250 ho        1 FA4      0.506000
     76 H172       14.0380   -7.1900    1.2910 hn        1 FA4      0.482300
     77 H222       13.4250  -11.8010    1.9660 hn        1 FA4      0.512800
     78 H263       20.7690   -9.8560    3.7600 hn        1 FA4      0.480800
     79 H282        1.5450    2.6570    3.4410 hn        1 FA4      0.477800
     80 H303       -0.2970    4.5450    4.4340 hn        1 FA4      0.510467
@<TRIPOS>BOND
     1    1    2 ar  
     2    1    6 ar  
     3    1   34 1   
     4    2    3 ar  
     5    2   35 1   
     6    3    4 ar  
     7    3    7 1   
     8    4    5 ar  
     9    4   27 1   
    10    5    6 ar  
    11    5   36 1   
    12    6   37 1   
    13    7    8 1   
    14    7   38 1   
    15    7   39 1   
    16    8    9 1   
    17    8   40 1   
    18    8   41 1   
    19    9   10 1   
    20    9   42 1   
    21    9   43 1   
    22   10   11 1   
    23   10   44 1   
    24   10   45 1   
    25   11   12 1   
    26   11   46 1   
    27   11   47 1   
    28   12   13 1   
    29   12   48 1   
    30   12   49 1   
    31   13   14 1   
    32   13   50 1   
    33   13   51 1   
    34   14   15 1   
    35   14   52 1   
    36   14   53 1   
    37   15   16 1   
    38   15   54 1   
    39   15   55 1   
    40   16   17 1   
    41   16   19 2   
    42   17   18 1   
    43   17   56 1   
    44   17   76 1   
    45   18   20 1   
    46   18   21 1   
    47   18   57 1   
    48   20   23 1   
    49   20   58 1   
    50   20   59 1   
    51   21   22 1   
    52   21   33 2   
    53   22   32 1   
    54   22   60 1   
    55   22   77 1   
    56   23   24 1   
    57   23   61 1   
    58   23   62 1   
    59   24   25 1   
    60   24   63 1   
    61   24   64 1   
    62   25   26 1   
    63   25   65 1   
    64   25   66 1   
    65   26   67 1   
    66   26   68 1   
    67   26   78 1   
    68   27   28 1   
    69   27   69 1   
    70   27   70 1   
    71   28   29 1   
    72   28   71 1   
    73   28   79 1   
    74   29   30 1   
    75   29   31 2   
    76   30   72 1   
    77   30   73 1   
    78   30   80 1   
    79   31   74 1   
    80   32   75 1   
@<TRIPOS>SUBSTRUCTURE
     1 FA4         1 TEMP              0 ****  ****    0 ROOT
