@<TRIPOS>MOLECULE
FA5
   56    51     1     0     0
SMALL
bcc


@<TRIPOS>ATOM
      1 C           3.1640   -0.7850    2.7870 c1        1 FA5      0.299000
      2 O           3.0120   -1.4630    3.7680 o         1 FA5     -0.396000
      3 CA          3.9620    0.4790    2.8690 c2        1 FA5     -0.022000
      4 N           3.0810    1.5990    2.9130 n3        1 FA5     -0.319000
      5 CB          4.8140    0.4570    4.1200 c3        1 FA5     -0.124000
      6 CG          5.3510    1.8760    4.4030 c2        1 FA5     -0.056000
      7 CD1         4.8100    2.6310    5.4420 c1        1 FA5     -0.107000
      8 CD2         6.4390    2.3570    3.6900 c2        1 FA5     -0.127000
      9 CE1         5.3630    3.8700    5.7650 c1        1 FA5     -0.139000
     10 CE2         6.9930    3.5990    4.0150 c1        1 FA5     -0.138000
     11 CZ          6.4510    4.3520    5.0540 c1        1 FA5     -0.139000
     12 P           1.4080   -2.1290    1.4770 p3        1 FA5      2.569000
     13 OP1         1.7480   -3.5840    1.7510 o         1 FA5     -1.111000
     14 OP2         0.4260   -1.6350    2.5210 os        1 FA5     -1.163000
     15 OP3         2.7300   -1.2550    1.5400 os        1 FA5     -0.674000
     16 O5'         0.7590   -2.0010    0.0320 os        1 FA5     -0.725000
     17 C5'        -0.6800   -1.8640   -0.0710 c3        1 FA5      0.048000
     18 C4'        -1.0330   -1.0530   -1.3380 c3        1 FA5     -0.048000
     19 O4'        -1.8040   -1.7550   -2.1210 os        1 FA5     -0.275000
     20 C3'        -1.8570    0.1820   -0.9650 c3        1 FA5      0.002000
     21 O3'        -1.1290    1.3020   -1.1520 oh        1 FA5     -0.363000
     22 C2'        -3.0810    0.1710   -1.9230 c3        1 FA5     -0.001000
     23 O2'        -3.2530    1.5130   -2.5520 oh        1 FA5     -0.314000
     24 C1'        -2.7950   -0.7120   -2.8180 c3        1 FA5      0.123000
     25 N9         -3.9990   -1.3860   -3.2550 n3        1 FA5     -0.185000
     26 C8         -4.7140   -2.3230   -2.5550 c1        1 FA5     -0.026000
     27 N7         -5.7110   -2.7900   -3.3690 n2        1 FA5     -0.137000
     28 C5         -5.6140   -2.1410   -4.5780 c1        1 FA5     -0.230000
     29 C6         -6.4140   -2.1660   -5.7020 c1        1 FA5      0.213000
     30 N6         -7.5110   -2.9400   -6.1670 n3        1 FA5     -0.345000
     31 N1         -6.1530   -1.3300   -6.7410 n1        1 FA5     -0.274000
     32 C2         -5.0950   -0.4590   -6.6740 c1        1 FA5      0.005000
     33 N3         -4.2990   -0.4310   -5.5590 n1        1 FA5     -0.192000
     34 C4         -4.5600   -1.2740   -4.5100 c1        1 FA5      0.062000
     35 HA          4.5300    0.5500    2.0960 h4        1 FA5      0.125000
     36 HN1         2.2450    1.3260    3.2130 hn        1 FA5      0.151500
     37 HN2         3.0000    1.9650    2.0540 hn        1 FA5      0.151500
     38 HB1         5.5710   -0.1590    3.9900 hc        1 FA5      0.107000
     39 HB2         4.2650    0.1490    4.8920 hc        1 FA5      0.107000
     40 HD1         4.0980    2.2690    5.9780 ha        1 FA5      0.140000
     41 HD2         6.8190    1.8240    2.9510 ha        1 FA5      0.136000
     42 HE1         4.9760    4.4090    6.5080 ha        1 FA5      0.121000
     43 HE2         7.7820    3.9480    3.4970 ha        1 FA5      0.122000
     44 HZ          6.8650    5.1750    5.3150 ha        1 FA5      0.121000
     45 H5'        -1.0210   -1.4000    0.7170 h1        1 FA5      0.064500
     46 H5''       -1.0930   -2.7630   -0.1300 h1        1 FA5      0.064500
     47 H4'        -0.2060   -0.7840   -1.8180 h1        1 FA5      0.135000
     48 H3'        -2.1460    0.1240   -0.0640 h1        1 FA5      0.129000
     49 HO'3       -1.1280    1.7810   -0.4070 ho        1 FA5      0.279000
     50 H2'        -3.8990   -0.0860   -1.4330 h1        1 FA5      0.127000
     51 HO2'       -3.9730    1.9240   -2.1920 ho        1 FA5      0.226000
     52 H1'        -2.3570   -0.2930   -3.5700 h2        1 FA5      0.153000
     53 H8         -4.4780   -2.6850   -1.6480 DU        1 FA5      0.219000
     54 H61        -7.9750   -3.4880   -5.5770 hn        1 FA5      0.225000
     55 H62        -7.7830   -2.8630   -7.0110 hn        1 FA5      0.225000
     56 H2         -4.9000    0.1700   -7.4580 ha        1 FA5      0.179000
@<TRIPOS>BOND
     1    1    2 1   
     2    1   15 1   
     3    3    4 1   
     4    3    5 1   
     5    3   35 1   
     6    4   36 1   
     7    4   37 1   
     8    5    6 1   
     9    5   38 1   
    10    5   39 1   
    11    6    7 1   
    12    6    8 1   
    13    7   40 1   
    14    8   10 1   
    15    8   41 1   
    16    9   11 1   
    17    9   42 1   
    18   10   43 1   
    19   11   44 1   
    20   12   13 1   
    21   12   15 1   
    22   12   16 1   
    23   16   17 1   
    24   17   18 1   
    25   17   45 1   
    26   17   46 1   
    27   18   19 1   
    28   18   20 1   
    29   18   47 1   
    30   19   24 1   
    31   20   21 1   
    32   20   22 1   
    33   20   48 1   
    34   21   49 1   
    35   22   23 1   
    36   22   24 1   
    37   22   50 1   
    38   23   51 1   
    39   24   25 1   
    40   24   52 1   
    41   25   26 1   
    42   25   34 1   
    43   26   27 1   
    44   27   28 1   
    45   28   34 1   
    46   29   30 1   
    47   29   31 1   
    48   30   54 1   
    49   30   55 1   
    50   32   33 1   
    51   32   56 1   
@<TRIPOS>SUBSTRUCTURE
     1 FA5         1 TEMP              0 ****  ****    0 ROOT
