@<TRIPOS>MOLECULE
FA5
   56    59     1     0     0
SMALL
bcc


@<TRIPOS>ATOM
      1 C           1.1660    1.8740    3.4990 c         1 FA5      0.629100
      2 O           1.6370    2.9960    3.7520 o         1 FA5     -0.597000
      3 CA          0.9240    0.7410    4.4880 c3        1 FA5      0.118500
      4 N           1.4870    0.9890    5.8010 n3        1 FA5     -0.892800
      5 CB         -0.5910    0.4660    4.5200 c3        1 FA5     -0.036100
      6 CG         -0.9080   -0.8650    5.1040 ca        1 FA5     -0.062300
      7 CD1        -0.9230   -1.0520    6.4920 ca        1 FA5     -0.117500
      8 CD2        -1.2170   -1.9440    4.2660 ca        1 FA5     -0.117500
      9 CE1        -1.2400   -2.2980    7.0310 ca        1 FA5     -0.138500
     10 CE2        -1.5350   -3.1880    4.8080 ca        1 FA5     -0.138500
     11 CZ         -1.5470   -3.3680    6.1910 ca        1 FA5     -0.142000
     12 P           1.1300    3.0140    1.2150 p5        1 FA5      1.435800
     13 OP1         0.1310    4.0370    1.5290 o         1 FA5     -0.790500
     14 OP2         2.5830    3.0800    1.0010 o         1 FA5     -0.790500
     15 OP3         0.8680    1.6580    2.2240 os        1 FA5     -0.532500
     16 O5'         0.5340    2.1900   -0.1000 os        1 FA5     -0.559200
     17 C5'         1.3520    1.2280   -0.6720 c3        1 FA5      0.169400
     18 C4'         0.8030   -0.1850   -0.4260 c3        1 FA5      0.069100
     19 O4'        -0.5830   -0.3020   -0.7980 os        1 FA5     -0.387600
     20 C3'         1.5740   -1.2210   -1.2640 c3        1 FA5      0.079100
     21 O3'         1.9250   -2.3750   -0.5300 oh        1 FA5     -0.597800
     22 C2'         0.6170   -1.5950   -2.4230 c3        1 FA5      0.074100
     23 O2'         0.2880   -2.9720   -2.3850 oh        1 FA5     -0.593800
     24 C1'        -0.7100   -0.8270   -2.1160 c3        1 FA5      0.257800
     25 N9         -1.0080    0.2320   -3.0590 na        1 FA5     -0.290000
     26 C8         -1.1340    1.6200   -2.7910 cc        1 FA5      0.452700
     27 N7         -1.5380    2.3300   -3.8550 nd        1 FA5     -0.570100
     28 C5         -1.7030    1.3920   -4.8860 ca        1 FA5     -0.213200
     29 C6         -2.1130    1.5120   -6.2520 ca        1 FA5      0.729200
     30 N6         -2.3450    2.7610   -6.7960 nh        1 FA5     -0.947500
     31 N1         -2.2170    0.3770   -7.0180 nb        1 FA5     -0.800000
     32 C2         -1.8830   -0.8060   -6.4310 ca        1 FA5      0.660900
     33 N3         -1.4650   -1.0710   -5.1730 nb        1 FA5     -0.722000
     34 C4         -1.3810    0.0540   -4.3980 ca        1 FA5      0.438800
     35 HA          1.4400   -0.1730    4.0650 h1        1 FA5      0.084700
     36 HN1         2.4610    1.2110    5.7060 hn        1 FA5      0.352300
     37 HN2         1.0300    1.7740    6.2260 hn        1 FA5      0.352300
     38 HB1        -1.1140    1.2700    5.1020 hc        1 FA5      0.071700
     39 HB2        -0.9640    0.5200    3.4590 hc        1 FA5      0.071700
     40 HD1        -0.6700   -0.2120    7.1560 ha        1 FA5      0.139000
     41 HD2        -1.2100   -1.8050    3.1750 ha        1 FA5      0.139000
     42 HE1        -1.2450   -2.4370    8.1210 ha        1 FA5      0.122000
     43 HE2        -1.7760   -4.0290    4.1420 ha        1 FA5      0.122000
     44 HZ         -1.7970   -4.3490    6.6170 ha        1 FA5      0.119000
     45 H5'         1.3830    1.4130   -1.7850 h1        1 FA5      0.046200
     46 H5''        2.3960    1.2880   -0.2520 h1        1 FA5      0.046200
     47 H4'         0.8110   -0.4200    0.6740 h1        1 FA5      0.107700
     48 H3'         2.5500   -0.8140   -1.6400 h1        1 FA5      0.099700
     49 HO'3        1.1220   -2.6920   -0.0940 ho        1 FA5      0.413000
     50 H2'         1.0500   -1.3350   -3.4230 h1        1 FA5      0.073700
     51 HO2'        1.1260   -3.4540   -2.3660 ho        1 FA5      0.416000
     52 H1'        -1.5870   -1.5420   -2.0880 h2        1 FA5      0.108700
     53 H8         -0.8990    2.0220   -1.7810 h5        1 FA5      0.142800
     54 H61        -2.8240    2.8200   -7.6620 hn        1 FA5      0.429800
     55 H62        -2.4570    3.5100   -6.1550 hn        1 FA5      0.429800
     56 H2         -1.9750   -1.6910   -7.0950 h5        1 FA5      0.039100
@<TRIPOS>BOND
     1    1    2 2   
     2    1    3 1   
     3    1   15 1   
     4    3    4 1   
     5    3    5 1   
     6    3   35 1   
     7    4   36 1   
     8    4   37 1   
     9    5    6 1   
    10    5   38 1   
    11    5   39 1   
    12    6    7 ar  
    13    6    8 ar  
    14    7    9 ar  
    15    7   40 1   
    16    8   10 ar  
    17    8   41 1   
    18    9   11 ar  
    19    9   42 1   
    20   10   11 ar  
    21   10   43 1   
    22   11   44 1   
    23   12   13 1   
    24   12   14 1   
    25   12   15 1   
    26   12   16 1   
    27   16   17 1   
    28   17   18 1   
    29   17   45 1   
    30   17   46 1   
    31   18   19 1   
    32   18   20 1   
    33   18   47 1   
    34   19   24 1   
    35   20   21 1   
    36   20   22 1   
    37   20   48 1   
    38   21   49 1   
    39   22   23 1   
    40   22   24 1   
    41   22   50 1   
    42   23   51 1   
    43   24   25 1   
    44   24   52 1   
    45   25   26 1   
    46   25   34 1   
    47   26   27 2   
    48   26   53 1   
    49   27   28 1   
    50   28   29 ar  
    51   28   34 ar  
    52   29   30 1   
    53   29   31 ar  
    54   30   54 1   
    55   30   55 1   
    56   31   32 ar  
    57   32   33 ar  
    58   32   56 1   
    59   33   34 ar  
@<TRIPOS>SUBSTRUCTURE
     1 FA5         1 TEMP              0 ****  ****    0 ROOT
