@<TRIPOS>MOLECULE
FA6
   24    24     1     0     0
SMALL
bcc


@<TRIPOS>ATOM
      1 O2         -2.6920   -0.3640   -1.5770 o         1 FA6     -0.821800
      2 C7         -2.5400   -0.0890   -0.3590 c         1 FA6      0.903600
      3 O1         -3.4640    0.1640    0.4630 o         1 FA6     -0.821800
      4 C1         -1.0770   -0.0460    0.2110 c3        1 FA6      0.023800
      5 O3         -1.0680    0.3520    1.5750 oh        1 FA6     -0.638800
      6 C2         -0.2850    0.9770   -0.6060 c3        1 FA6     -0.149700
      7 C3          1.2000    0.9120   -0.4040 c2        1 FA6      0.378300
      8 N1          2.0090    1.9170   -0.1890 n2        1 FA6     -0.507200
      9 O6          1.4650    3.1190   -0.1420 oh        1 FA6     -0.351500
     10 C4          1.7570   -0.4940   -0.5270 c3        1 FA6      0.069800
     11 O4          3.1360   -0.6500   -0.2160 oh        1 FA6     -0.616800
     12 C5          1.0050   -1.4300    0.4430 c3        1 FA6      0.156100
     13 O5          1.4980   -2.7560    0.3120 oh        1 FA6     -0.609800
     14 C6         -0.4770   -1.4450    0.1060 c3        1 FA6     -0.072400
     15 H3         -1.9950    0.4950    1.8330 ho        1 FA6      0.430000
     16 H2C1       -0.6700    2.0000   -0.3480 hc        1 FA6      0.078700
     17 H2C2       -0.5050    0.7830   -1.6920 hc        1 FA6      0.078700
     18 H6          2.1860    3.6910    0.1820 ho        1 FA6      0.415000
     19 H4C         1.5870   -0.8330   -1.5910 h1        1 FA6      0.056700
     20 H4          3.6250    0.0060   -0.7240 ho        1 FA6      0.408000
     21 H5C         1.1660   -1.0700    1.4970 h1        1 FA6      0.058700
     22 H5          2.4470   -2.7120    0.4790 ho        1 FA6      0.401000
     23 H6C1       -1.0040   -2.1280    0.8190 hc        1 FA6      0.066200
     24 H6C2       -0.6380   -1.8300   -0.9330 hc        1 FA6      0.066200
@<TRIPOS>BOND
     1    1    2 1   
     2    2    3 1   
     3    2    4 1   
     4    4    5 1   
     5    4    6 1   
     6    4   14 1   
     7    5   15 1   
     8    6    7 1   
     9    6   16 1   
    10    6   17 1   
    11    7    8 2   
    12    7   10 1   
    13    8    9 1   
    14    9   18 1   
    15   10   11 1   
    16   10   12 1   
    17   10   19 1   
    18   11   20 1   
    19   12   13 1   
    20   12   14 1   
    21   12   21 1   
    22   13   22 1   
    23   14   23 1   
    24   14   24 1   
@<TRIPOS>SUBSTRUCTURE
     1 FA6         1 TEMP              0 ****  ****    0 ROOT
