@<TRIPOS>MOLECULE
FA6
   24    24     1     0     0
SMALL
bcc


@<TRIPOS>ATOM
      1 O2         -0.0040   -0.7650    0.0980 o         1 FA6     -0.821800
      2 C7          1.0500   -0.0870   -0.0110 c         1 FA6      0.903600
      3 O1          1.4490    0.4960   -1.0570 o         1 FA6     -0.821800
      4 C1          1.9690    0.0570    1.2540 c3        1 FA6      0.023800
      5 O3          3.1520    0.7840    0.9500 oh        1 FA6     -0.638800
      6 C2          2.3600   -1.3490    1.7130 c3        1 FA6     -0.149700
      7 C3          2.9680   -1.4040    3.0830 c2        1 FA6      0.378300
      8 N1          4.0490   -2.0500    3.4380 n2        1 FA6     -0.507200
      9 O6          4.6760   -2.7250    2.4920 oh        1 FA6     -0.351500
     10 C4          2.1610   -0.6520    4.1250 c3        1 FA6      0.069800
     11 O4          2.7480   -0.5500    5.4160 oh        1 FA6     -0.616800
     12 C5          1.9450    0.8020    3.6520 c3        1 FA6      0.156100
     13 O5          1.1620    1.5070    4.6060 oh        1 FA6     -0.609800
     14 C6          1.1950    0.8120    2.3300 c3        1 FA6     -0.072400
     15 H3          3.0980    1.0300    0.0110 ho        1 FA6      0.430000
     16 H2C1        3.0670   -1.7780    0.9540 hc        1 FA6      0.078700
     17 H2C2        1.4240   -1.9740    1.7140 hc        1 FA6      0.078700
     18 H6          5.5180   -2.9890    2.9090 ho        1 FA6      0.415000
     19 H4C         1.1650   -1.1730    4.2210 h1        1 FA6      0.056700
     20 H4          3.0030   -1.4370    5.6910 ho        1 FA6      0.408000
     21 H5C         2.9470    1.3040    3.5400 h1        1 FA6      0.058700
     22 H5          1.6330    1.4420    5.4460 ho        1 FA6      0.401000
     23 H6C1        0.1870    0.3380    2.4490 hc        1 FA6      0.066200
     24 H6C2        1.0470    1.8730    2.0050 hc        1 FA6      0.066200
@<TRIPOS>BOND
     1    1    2 1   
     2    2    3 1   
     3    2    4 1   
     4    4    5 1   
     5    4    6 1   
     6    4   14 1   
     7    5   15 1   
     8    6    7 1   
     9    6   16 1   
    10    6   17 1   
    11    7    8 2   
    12    7   10 1   
    13    8    9 1   
    14    9   18 1   
    15   10   11 1   
    16   10   12 1   
    17   10   19 1   
    18   11   20 1   
    19   12   13 1   
    20   12   14 1   
    21   12   21 1   
    22   13   22 1   
    23   14   23 1   
    24   14   24 1   
@<TRIPOS>SUBSTRUCTURE
     1 FA6         1 TEMP              0 ****  ****    0 ROOT
