@<TRIPOS>MOLECULE
FA6
   24    24     1     0     0
SMALL
bcc


@<TRIPOS>ATOM
      1 O2          0.0110   -0.7840    0.0910 o         1 FA6     -0.821800
      2 C7          1.0560   -0.0930   -0.0120 c         1 FA6      0.903600
      3 O1          1.4510    0.5010   -1.0540 o         1 FA6     -0.821800
      4 C1          1.9710    0.0560    1.2560 c3        1 FA6      0.023800
      5 O3          3.1460    0.7980    0.9590 oh        1 FA6     -0.638800
      6 C2          2.3770   -1.3480    1.7100 c3        1 FA6     -0.149700
      7 C3          2.9820   -1.4020    3.0810 c2        1 FA6      0.378300
      8 N1          4.0700   -2.0370    3.4350 n2        1 FA6     -0.507200
      9 O6          4.7070   -2.7010    2.4880 oh        1 FA6     -0.351500
     10 C4          2.1640   -0.6640    4.1240 c3        1 FA6      0.069800
     11 O4          2.7460   -0.5620    5.4170 oh        1 FA6     -0.616800
     12 C5          1.9320    0.7890    3.6580 c3        1 FA6      0.156100
     13 O5          1.1390    1.4800    4.6140 oh        1 FA6     -0.609800
     14 C6          1.1850    0.7970    2.3350 c3        1 FA6     -0.072400
     15 H3          3.0910    1.0490    0.0220 ho        1 FA6      0.430000
     16 H2C1        1.4490   -1.9840    1.7050 hc        1 FA6      0.078700
     17 H2C2        3.0910   -1.7640    0.9500 hc        1 FA6      0.078700
     18 H6          5.5510   -2.9570    2.9060 ho        1 FA6      0.415000
     19 H4C         1.1730   -1.1980    4.2150 h1        1 FA6      0.056700
     20 H4          3.0110   -1.4470    5.6890 ho        1 FA6      0.408000
     21 H5C         2.9280    1.3030    3.5510 h1        1 FA6      0.058700
     22 H5          1.6090    1.4160    5.4540 ho        1 FA6      0.401000
     23 H6C1        1.0260    1.8580    2.0140 hc        1 FA6      0.066200
     24 H6C2        0.1820    0.3100    2.4480 hc        1 FA6      0.066200
@<TRIPOS>BOND
     1    1    2 1   
     2    2    3 1   
     3    2    4 1   
     4    4    5 1   
     5    4    6 1   
     6    4   14 1   
     7    5   15 1   
     8    6    7 1   
     9    6   16 1   
    10    6   17 1   
    11    7    8 2   
    12    7   10 1   
    13    8    9 1   
    14    9   18 1   
    15   10   11 1   
    16   10   12 1   
    17   10   19 1   
    18   11   20 1   
    19   12   13 1   
    20   12   14 1   
    21   12   21 1   
    22   13   22 1   
    23   14   23 1   
    24   14   24 1   
@<TRIPOS>SUBSTRUCTURE
     1 FA6         1 TEMP              0 ****  ****    0 ROOT
