@<TRIPOS>MOLECULE
FA6
   24    22     1     0     0
SMALL
bcc


@<TRIPOS>ATOM
      1 O2         -2.2720   -0.1970   -2.6350 o         1 FA6     -0.549000
      2 C7         -1.0130   -0.1970   -2.6350 c1        1 FA6      0.323000
      3 O1         -0.3840   -0.1760   -3.7250 os        1 FA6     -0.564000
      4 C1         -0.2570   -0.1970   -1.3250 c3        1 FA6      0.002000
      5 O3          0.7680   -1.1230   -1.6010 oh        1 FA6     -0.366000
      6 C2         -1.1670   -0.6920   -0.1420 c3        1 FA6     -0.153000
      7 C3         -0.3470   -0.6720    1.1700 c2        1 FA6     -0.060000
      8 N1         -0.2400   -1.7210    1.9390 n1        1 FA6     -0.121000
      9 O6         -0.8640   -2.8890    1.5950 o         1 FA6     -0.249000
     10 C4          0.3260    0.6540    1.5040 c3        1 FA6      0.034000
     11 O4          1.1120    0.5490    2.7370 oh        1 FA6     -0.344000
     12 C5          1.1500    1.1210    0.3390 c3        1 FA6      0.045000
     13 O5          1.5840    2.4640    0.6900 oh        1 FA6     -0.337000
     14 C6          0.3210    1.1990   -1.0130 c3        1 FA6     -0.151000
     15 H3          0.4320   -1.8130   -2.0470 ho        1 FA6      0.229000
     16 H2C1       -1.7050   -1.5000   -0.2480 hc        1 FA6      0.118000
     17 H2C2       -1.8780   -0.0260   -0.0770 hc        1 FA6      0.118000
     18 H6         -0.7770   -3.4770    2.2540 ho        1 FA6      0.214000
     19 H4C        -0.3300    1.3320    1.7550 h1        1 FA6      0.096000
     20 H4          0.6730    0.9390    3.4030 ho        1 FA6      0.207000
     21 H5C         1.9250    0.5400    0.2230 h1        1 FA6      0.098000
     22 H5          2.4440    2.5580    0.4940 ho        1 FA6      0.200000
     23 H6C1       -0.4090    1.8400   -0.9140 hc        1 FA6      0.105500
     24 H6C2        0.9070    1.4810   -1.7410 hc        1 FA6      0.105500
@<TRIPOS>BOND
     1    1    2 1   
     2    2    4 1   
     3    4    5 1   
     4    4    6 1   
     5    4   14 1   
     6    5   15 1   
     7    6    7 1   
     8    6   16 1   
     9    6   17 1   
    10    7    8 1   
    11    7   10 1   
    12    9   18 1   
    13   10   11 1   
    14   10   12 1   
    15   10   19 1   
    16   11   20 1   
    17   12   13 1   
    18   12   14 1   
    19   12   21 1   
    20   13   22 1   
    21   14   23 1   
    22   14   24 1   
@<TRIPOS>SUBSTRUCTURE
     1 FA6         1 TEMP              0 ****  ****    0 ROOT
