@<TRIPOS>MOLECULE
FA7
   24    23     1     0     0
SMALL
bcc


@<TRIPOS>ATOM
      1 C1         -0.5620    0.0030   -0.1480 c         1 FA7      0.890800
      2 O           0.3860    0.5490   -0.7830 o         1 FA7     -0.836300
      3 C2         -0.2980   -0.7100    1.1590 ce        1 FA7     -0.160200
      4 C3          0.7210   -0.5230    2.0090 cf        1 FA7     -0.194000
      5 C4          1.8090    0.4050    1.7960 cf        1 FA7     -0.075000
      6 C5          2.8100    0.6310    2.6610 c2        1 FA7     -0.256200
      7 C6          2.9530   -0.0310    3.9790 c3        1 FA7     -0.026200
      8 C7          4.2540    0.3310    4.6860 c3        1 FA7     -0.066700
      9 C8          4.2080   -0.1180    6.1320 c3        1 FA7     -0.086600
     10 C9          5.4450   -0.2840    3.9820 c3        1 FA7     -0.086600
     11 OXT        -1.7620    0.0020   -0.5540 o         1 FA7     -0.836300
     12 H2         -1.0830   -1.4440    1.4110 ha        1 FA7      0.097000
     13 H3          0.7620   -1.1030    2.9500 ha        1 FA7      0.078000
     14 H4          1.7730    0.9410    0.8230 ha        1 FA7      0.180000
     15 H5          3.5940    1.3610    2.4060 ha        1 FA7      0.102000
     16 H61         2.0900    0.2630    4.6380 hc        1 FA7      0.035200
     17 H62         2.9030   -1.1470    3.8560 hc        1 FA7      0.035200
     18 H7          4.3690    1.4520    4.6660 hc        1 FA7      0.042700
     19 H81         3.3700    0.3870    6.6700 hc        1 FA7      0.026867
     20 H82         5.1650    0.1340    6.6490 hc        1 FA7      0.026867
     21 H83         4.0520   -1.2220    6.1940 hc        1 FA7      0.026867
     22 H91         5.3930   -1.3980    4.0250 hc        1 FA7      0.026867
     23 H92         5.4580    0.0260    2.9090 hc        1 FA7      0.026867
     24 H93         6.3970    0.0450    4.4630 hc        1 FA7      0.026867
@<TRIPOS>BOND
     1    1    2 1   
     2    1    3 1   
     3    1   11 1   
     4    3    4 2   
     5    3   12 1   
     6    4    5 1   
     7    4   13 1   
     8    5    6 2   
     9    5   14 1   
    10    6    7 1   
    11    6   15 1   
    12    7    8 1   
    13    7   16 1   
    14    7   17 1   
    15    8    9 1   
    16    8   10 1   
    17    8   18 1   
    18    9   19 1   
    19    9   20 1   
    20    9   21 1   
    21   10   22 1   
    22   10   23 1   
    23   10   24 1   
@<TRIPOS>SUBSTRUCTURE
     1 FA7         1 TEMP              0 ****  ****    0 ROOT
