@<TRIPOS>MOLECULE
FA7
   24    23     1     0     0
SMALL
bcc


@<TRIPOS>ATOM
      1 C1         -1.0560    0.2650    0.4640 c         1 FA7      0.890800
      2 O          -0.6160    1.4340    0.2630 o         1 FA7     -0.836300
      3 C2         -0.1400   -0.8160    0.9910 ce        1 FA7     -0.160200
      4 C3          0.9860   -0.6690    1.7010 cf        1 FA7     -0.194000
      5 C4          1.5650    0.6040    2.0690 cf        1 FA7     -0.075000
      6 C5          2.6610    0.7630    2.8270 c2        1 FA7     -0.256200
      7 C6          3.4540   -0.3460    3.4060 c3        1 FA7     -0.026200
      8 C7          4.5490    0.1390    4.3490 c3        1 FA7     -0.066700
      9 C8          3.9580    0.7050    5.6230 c3        1 FA7     -0.086600
     10 C9          5.5050   -0.9920    4.6700 c3        1 FA7     -0.086600
     11 OXT        -2.2530   -0.0770    0.2320 o         1 FA7     -0.836300
     12 H2         -0.5030   -1.8330    0.7590 ha        1 FA7      0.097000
     13 H3          1.5370   -1.5630    2.0460 ha        1 FA7      0.078000
     14 H4          1.0290    1.4880    1.6600 ha        1 FA7      0.180000
     15 H5          3.0280    1.7780    3.0460 ha        1 FA7      0.102000
     16 H61         2.7800   -1.0520    3.9630 hc        1 FA7      0.035700
     17 H62         3.9290   -0.9360    2.5750 hc        1 FA7      0.035700
     18 H7          5.1280    0.9560    3.8320 hc        1 FA7      0.041700
     19 H81         3.2320    1.5190    5.3800 hc        1 FA7      0.027033
     20 H82         4.7620    1.1230    6.2760 hc        1 FA7      0.027033
     21 H83         3.4170   -0.0900    6.1910 hc        1 FA7      0.027033
     22 H91         4.9590   -1.8410    5.1480 hc        1 FA7      0.027033
     23 H92         5.9920   -1.3660    3.7380 hc        1 FA7      0.027033
     24 H93         6.3000   -0.6430    5.3720 hc        1 FA7      0.027033
@<TRIPOS>BOND
     1    1    2 1   
     2    1    3 1   
     3    1   11 1   
     4    3    4 2   
     5    3   12 1   
     6    4    5 1   
     7    4   13 1   
     8    5    6 2   
     9    5   14 1   
    10    6    7 1   
    11    6   15 1   
    12    7    8 1   
    13    7   16 1   
    14    7   17 1   
    15    8    9 1   
    16    8   10 1   
    17    8   18 1   
    18    9   19 1   
    19    9   20 1   
    20    9   21 1   
    21   10   22 1   
    22   10   23 1   
    23   10   24 1   
@<TRIPOS>SUBSTRUCTURE
     1 FA7         1 TEMP              0 ****  ****    0 ROOT
