@<TRIPOS>MOLECULE
FA7
   24    23     1     0     0
SMALL
bcc


@<TRIPOS>ATOM
      1 C1         -3.3440   -0.3660    0.1890 c         1 FA7      0.890800
      2 O          -2.6620   -1.4320    0.2020 o         1 FA7     -0.836300
      3 C2         -2.7070    0.9450   -0.2100 ce        1 FA7     -0.162200
      4 C3         -1.4080    1.2700   -0.1950 cf        1 FA7     -0.192000
      5 C4         -0.3390    0.3730    0.1870 cf        1 FA7     -0.070000
      6 C5          0.9500    0.7430    0.2320 c2        1 FA7     -0.259200
      7 C6          2.0420   -0.1710    0.6410 c3        1 FA7     -0.024200
      8 C7          3.1900   -0.1930   -0.3630 c3        1 FA7     -0.068700
      9 C8          4.0360    1.0580   -0.2620 c3        1 FA7     -0.085600
     10 C9          4.0490   -1.4220   -0.1490 c3        1 FA7     -0.085600
     11 OXT        -4.5740   -0.3240    0.4870 o         1 FA7     -0.836300
     12 H2         -3.4490    1.7030   -0.5180 ha        1 FA7      0.097000
     13 H3         -1.0930    2.2880   -0.4900 ha        1 FA7      0.077000
     14 H4         -0.6630   -0.6590    0.4370 ha        1 FA7      0.180000
     15 H5          1.2620    1.7660   -0.0280 ha        1 FA7      0.097000
     16 H61         2.4380    0.1480    1.6430 hc        1 FA7      0.035700
     17 H62         1.6430   -1.2150    0.7610 hc        1 FA7      0.035700
     18 H7          2.7500   -0.2430   -1.3990 hc        1 FA7      0.053700
     19 H81         3.4090    1.9660   -0.4320 hc        1 FA7      0.025367
     20 H82         4.5030    1.1360    0.7500 hc        1 FA7      0.025367
     21 H83         4.8510    1.0410   -1.0250 hc        1 FA7      0.025367
     22 H91         3.4450   -2.3490   -0.2980 hc        1 FA7      0.025367
     23 H92         4.9020   -1.4330   -0.8700 hc        1 FA7      0.025367
     24 H93         4.4630   -1.4350    0.8880 hc        1 FA7      0.025367
@<TRIPOS>BOND
     1    1    2 1   
     2    1    3 1   
     3    1   11 1   
     4    3    4 2   
     5    3   12 1   
     6    4    5 1   
     7    4   13 1   
     8    5    6 2   
     9    5   14 1   
    10    6    7 1   
    11    6   15 1   
    12    7    8 1   
    13    7   16 1   
    14    7   17 1   
    15    8    9 1   
    16    8   10 1   
    17    8   18 1   
    18    9   19 1   
    19    9   20 1   
    20    9   21 1   
    21   10   22 1   
    22   10   23 1   
    23   10   24 1   
@<TRIPOS>SUBSTRUCTURE
     1 FA7         1 TEMP              0 ****  ****    0 ROOT
