@<TRIPOS>MOLECULE
FA7
   24    20     1     0     0
SMALL
bcc


@<TRIPOS>ATOM
      1 C1          2.2520    3.0590   -2.2710 c1        1 FA7      0.341000
      2 O           3.5000    3.0930   -2.1070 o         1 FA7     -0.571000
      3 C2          1.3290    3.1480   -1.0760 c1        1 FA7     -0.165500
      4 C3          0.9110    2.0240   -0.4620 c1        1 FA7     -0.165500
      5 C4          1.3650    0.6720   -0.9670 c1        1 FA7     -0.165500
      6 C5          0.7470   -0.4480   -0.5430 c1        1 FA7     -0.165500
      7 C6         -0.4010   -0.3530    0.4380 c2        1 FA7     -0.109000
      8 C7         -0.9150   -1.7420    0.7480 c3        1 FA7     -0.106000
      9 C8         -0.7780   -2.0120    2.2300 c3        1 FA7     -0.204500
     10 C9         -2.3710   -1.8410    0.3500 c3        1 FA7     -0.204500
     11 OXT         1.7720    2.9540   -3.4300 o         1 FA7     -0.571000
     12 H2          1.0360    4.0200   -0.7500 ha        1 FA7      0.114250
     13 H3          0.3150    2.0820    0.3100 ha        1 FA7      0.114250
     14 H4          2.1050    0.6110   -1.6000 ha        1 FA7      0.114250
     15 H5          1.0400   -1.3200   -0.8700 ha        1 FA7      0.114250
     16 H61        -0.0900    0.0710    1.2630 ha        1 FA7      0.074500
     17 H62        -1.1210    0.1810    0.0470 ha        1 FA7      0.074500
     18 H7         -0.3950   -2.4000    0.2480 hc        1 FA7      0.082000
     19 H81        -1.3760   -1.4160    2.7270 hc        1 FA7      0.066167
     20 H82        -1.0170   -2.9440    2.4160 hc        1 FA7      0.066167
     21 H83         0.1490   -1.8500    2.5070 hc        1 FA7      0.066167
     22 H91        -2.7130   -2.7300    0.5820 hc        1 FA7      0.066167
     23 H92        -2.8870   -1.1580    0.8260 hc        1 FA7      0.066167
     24 H93        -2.4560   -1.7000   -0.6160 hc        1 FA7      0.066167
@<TRIPOS>BOND
     1    1    2 1   
     2    1   11 1   
     3    3    4 1   
     4    3   12 1   
     5    4   13 1   
     6    5    6 1   
     7    5   14 1   
     8    6   15 1   
     9    7    8 1   
    10    7   16 1   
    11    7   17 1   
    12    8    9 1   
    13    8   10 1   
    14    8   18 1   
    15    9   19 1   
    16    9   20 1   
    17    9   21 1   
    18   10   22 1   
    19   10   23 1   
    20   10   24 1   
@<TRIPOS>SUBSTRUCTURE
     1 FA7         1 TEMP              0 ****  ****    0 ROOT
