@<TRIPOS>MOLECULE
FAC
   13    12     1     0     0
SMALL
bcc


@<TRIPOS>ATOM
      1 C           0.0180    0.0010    0.0290 c3        1 FAC      0.272600
      2 O1          1.4140    0.0120    0.0640 oh        1 FAC     -0.587800
      3 O2         -0.4290   -0.0080    1.3520 oh        1 FAC     -0.587800
      4 C1         -0.5720    1.3180   -0.6270 c3        1 FAC      0.634900
      5 C2         -0.3930   -1.3200   -0.7470 c3        1 FAC      0.634900
      6 F1          0.1520    2.4210   -0.2570 f         1 FAC     -0.211967
      7 F2         -0.5420    1.3020   -1.9940 f         1 FAC     -0.211967
      8 F3         -1.8640    1.5800   -0.2810 f         1 FAC     -0.211967
      9 F4         -0.2920   -2.4210    0.0620 f         1 FAC     -0.211967
     10 F5         -1.6870   -1.3080   -1.1880 f         1 FAC     -0.211967
     11 F6          0.3770   -1.5830   -1.8410 f         1 FAC     -0.211967
     12 H1          1.7000    0.8180    0.5240 ho        1 FAC      0.453000
     13 H2         -0.0940   -0.8130    1.7810 ho        1 FAC      0.453000
@<TRIPOS>BOND
     1    1    2 1   
     2    1    3 1   
     3    1    4 1   
     4    1    5 1   
     5    2   12 1   
     6    3   13 1   
     7    4    6 1   
     8    4    7 1   
     9    4    8 1   
    10    5    9 1   
    11    5   10 1   
    12    5   11 1   
@<TRIPOS>SUBSTRUCTURE
     1 FAC         1 TEMP              0 ****  ****    0 ROOT
