@<TRIPOS>MOLECULE
FAC
   13    12     1     0     0
SMALL
bcc


@<TRIPOS>ATOM
      1 C           0.0200   -0.0000    0.0280 c3        1 FAC      0.272600
      2 O1          1.4160   -0.0120    0.0550 oh        1 FAC     -0.587800
      3 O2         -0.4200    0.0120    1.3530 oh        1 FAC     -0.587800
      4 C1         -0.5510    1.3210   -0.6380 c3        1 FAC      0.634900
      5 C2         -0.4190   -1.3210   -0.7320 c3        1 FAC      0.634900
      6 F1          0.1930    2.4150   -0.2840 f         1 FAC     -0.211967
      7 F2         -0.5300    1.2910   -2.0050 f         1 FAC     -0.211967
      8 F3         -1.8370    1.6080   -0.2870 f         1 FAC     -0.211967
      9 F4         -0.3320   -2.4150    0.0870 f         1 FAC     -0.211967
     10 F5         -1.7140   -1.2910   -1.1670 f         1 FAC     -0.211967
     11 F6          0.3400   -1.6080   -1.8280 f         1 FAC     -0.211967
     12 H1          1.7180    0.7930    0.5050 ho        1 FAC      0.453000
     13 H2         -0.0960   -0.7940    1.7880 ho        1 FAC      0.453000
@<TRIPOS>BOND
     1    1    2 1   
     2    1    3 1   
     3    1    4 1   
     4    1    5 1   
     5    2   12 1   
     6    3   13 1   
     7    4    6 1   
     8    4    7 1   
     9    4    8 1   
    10    5    9 1   
    11    5   10 1   
    12    5   11 1   
@<TRIPOS>SUBSTRUCTURE
     1 FAC         1 TEMP              0 ****  ****    0 ROOT
