@<TRIPOS>MOLECULE
FAC
   13    12     1     0     0
SMALL
bcc


@<TRIPOS>ATOM
      1 C           0.1710   -0.0000    0.2410 c3        1 FAC      0.272600
      2 O1          1.5780   -0.0000    0.2410 oh        1 FAC     -0.587800
      3 O2         -0.2980   -0.0000    1.5680 oh        1 FAC     -0.587800
      4 C1         -0.3340    1.2350   -0.4720 c3        1 FAC      0.634900
      5 C2         -0.3340   -1.2350   -0.4720 c3        1 FAC      0.634900
      6 F1          0.3060    2.3140   -0.0030 f         1 FAC     -0.211967
      7 F2         -0.1040    1.1170   -1.7860 f         1 FAC     -0.211967
      8 F3         -1.6490    1.3680   -0.2580 f         1 FAC     -0.211967
      9 F4         -0.1040   -2.3140    0.2880 f         1 FAC     -0.211967
     10 F5         -1.6490   -1.1170   -0.6940 f         1 FAC     -0.211967
     11 F6          0.3060   -1.3680   -1.6410 f         1 FAC     -0.211967
     12 H1          1.8740   -0.4970    0.9150 ho        1 FAC      0.453000
     13 H2          0.2380    0.4970    2.0710 ho        1 FAC      0.453000
@<TRIPOS>BOND
     1    1    2 1   
     2    1    3 1   
     3    1    4 1   
     4    1    5 1   
     5    2   12 1   
     6    3   13 1   
     7    4    6 1   
     8    4    7 1   
     9    4    8 1   
    10    5    9 1   
    11    5   10 1   
    12    5   11 1   
@<TRIPOS>SUBSTRUCTURE
     1 FAC         1 TEMP              0 ****  ****    0 ROOT
