@<TRIPOS>MOLECULE
FAC
   13    12     1     0     0
SMALL
bcc


@<TRIPOS>ATOM
      1 C          -0.6770   -0.0670    0.0150 c3        1 FAC      0.295600
      2 O1         -1.6930    0.8840   -0.0450 oh        1 FAC     -0.518300
      3 O2         -1.4030   -1.2510    0.0960 oh        1 FAC     -0.518300
      4 C1          0.2210   -0.0340   -1.3060 c3        1 FAC      0.574900
      5 C2          0.2160    0.1420    1.3170 c3        1 FAC      0.574900
      6 F1         -0.2360    0.8800   -2.2150 f         1 FAC     -0.216300
      7 F2          1.5330    0.2880   -1.0960 f         1 FAC     -0.216300
      8 F3          0.2370   -1.2420   -1.9480 f         1 FAC     -0.216300
      9 F4         -0.5110    0.0580    2.4710 f         1 FAC     -0.216300
     10 F5          1.2090   -0.7910    1.4400 f         1 FAC     -0.216300
     11 F6          0.8250    1.3670    1.3530 f         1 FAC     -0.216300
     12 H1         -1.2700    1.7480   -0.1780 ho        1 FAC      0.444500
     13 H2         -0.7630   -1.9820    0.0970 ho        1 FAC      0.444500
@<TRIPOS>BOND
     1    1    2 1   
     2    1    3 1   
     3    1    4 1   
     4    1    5 1   
     5    2   12 1   
     6    3   13 1   
     7    4    6 1   
     8    4    7 1   
     9    4    8 1   
    10    5    9 1   
    11    5   10 1   
    12    5   11 1   
@<TRIPOS>SUBSTRUCTURE
     1 FAC         1 TEMP              0 ****  ****    0 ROOT
