@<TRIPOS>MOLECULE
FAF
   46    46     1     0     0
SMALL
bcc


@<TRIPOS>ATOM
      1 CX          1.5510    1.5640    2.9420 c         1 FAF      0.657100
      2 OX          0.5610    1.7280    3.6770 o         1 FAF     -0.589100
      3 CAX         2.7550    2.4710    3.0520 c3        1 FAF     -0.180100
      4 NL          1.6600    0.5030    2.0360 n         1 FAF     -0.528900
      5 CAL         0.5400   -0.2520    1.5290 c3        1 FAF      0.044700
      6 CBL        -0.5360   -0.6330    2.5520 c3        1 FAF     -0.077400
      7 CGL         0.0010   -1.4320    3.7310 c3        1 FAF     -0.062700
      8 CDL        -1.1260   -1.6820    4.7160 c3        1 FAF     -0.092100
      9 CDM         0.6150   -2.7450    3.2980 c3        1 FAF     -0.092100
     10 C          -0.1470    0.4610    0.3290 c         1 FAF      0.625100
     11 O           0.0820    1.6540    0.0500 o         1 FAF     -0.610100
     12 N          -0.9660   -0.3160   -0.4690 n         1 FAF     -0.548900
     13 CA         -1.7300    0.2470   -1.5530 c3        1 FAF     -0.015300
     14 CB         -1.5470   -0.5140   -2.8840 c3        1 FAF     -0.039100
     15 CG         -0.1530   -0.4470   -3.3950 ca        1 FAF     -0.078300
     16 CD1         0.6240   -1.6070   -3.4840 ca        1 FAF     -0.121000
     17 CD2         0.3880    0.7740   -3.8180 ca        1 FAF     -0.121000
     18 CE1         1.9230   -1.5470   -3.9870 ca        1 FAF     -0.127500
     19 CE2         1.6870    0.8320   -4.3180 ca        1 FAF     -0.127500
     20 CZ          2.4560   -0.3280   -4.4040 ca        1 FAF     -0.129000
     21 CW         -3.2340    0.2900   -1.2880 c         1 FAF      0.545900
     22 OW         -3.8040   -0.3990   -0.4450 o         1 FAF     -0.518100
     23 HAX1        2.5980    3.1750    3.9050 hc        1 FAF      0.067367
     24 HAX2        3.6870    1.8830    3.2320 hc        1 FAF      0.067367
     25 HAX3        2.8700    3.0630    2.1110 hc        1 FAF      0.067367
     26 HL          2.3750    0.6260    1.3500 hn        1 FAF      0.297500
     27 HAL         0.9900   -1.2130    1.1210 h1        1 FAF      0.070700
     28 HBL1       -1.3160   -1.2490    2.0320 hc        1 FAF      0.066700
     29 HBL2       -1.0320    0.2980    2.9390 hc        1 FAF      0.066700
     30 HGL         0.7880   -0.8140    4.2500 hc        1 FAF      0.067700
     31 HDL1       -0.7420   -2.2350    5.6070 hc        1 FAF      0.034033
     32 HDL2       -1.5610   -0.7130    5.0610 hc        1 FAF      0.034033
     33 HDL3       -1.9350   -2.2890    4.2440 hc        1 FAF      0.034033
     34 HDM1       -0.1030   -3.3330    2.6760 hc        1 FAF      0.034033
     35 HDM2        1.5440   -2.5710    2.7030 hc        1 FAF      0.034033
     36 HDM3        0.8860   -3.3560    4.1930 hc        1 FAF      0.034033
     37 HN         -1.2640   -1.2030   -0.1370 hn        1 FAF      0.317500
     38 HA         -1.3800    1.3160   -1.7060 h1        1 FAF      0.111700
     39 HB1        -1.8620   -1.5830   -2.7500 hc        1 FAF      0.057200
     40 HB2        -2.2380   -0.0480   -3.6380 hc        1 FAF      0.057200
     41 HD1         0.2090   -2.5720   -3.1560 ha        1 FAF      0.131000
     42 HD2        -0.2150    1.6920   -3.7480 ha        1 FAF      0.131000
     43 HE1         2.5270   -2.4640   -4.0540 ha        1 FAF      0.133000
     44 HE2         2.1040    1.7950   -4.6450 ha        1 FAF      0.133000
     45 HZ          3.4810   -0.2820   -4.8010 ha        1 FAF      0.132000
     46 HW         -3.7850    0.9990   -1.9440 h4        1 FAF      0.006200
@<TRIPOS>BOND
     1    1    2 2   
     2    1    3 1   
     3    1    4 1   
     4    3   23 1   
     5    3   24 1   
     6    3   25 1   
     7    4    5 1   
     8    4   26 1   
     9    5    6 1   
    10    5   10 1   
    11    5   27 1   
    12    6    7 1   
    13    6   28 1   
    14    6   29 1   
    15    7    8 1   
    16    7    9 1   
    17    7   30 1   
    18    8   31 1   
    19    8   32 1   
    20    8   33 1   
    21    9   34 1   
    22    9   35 1   
    23    9   36 1   
    24   10   11 2   
    25   10   12 1   
    26   12   13 1   
    27   12   37 1   
    28   13   14 1   
    29   13   21 1   
    30   13   38 1   
    31   14   15 1   
    32   14   39 1   
    33   14   40 1   
    34   15   16 ar  
    35   15   17 ar  
    36   16   18 ar  
    37   16   41 1   
    38   17   19 ar  
    39   17   42 1   
    40   18   20 ar  
    41   18   43 1   
    42   19   20 ar  
    43   19   44 1   
    44   20   45 1   
    45   21   22 2   
    46   21   46 1   
@<TRIPOS>SUBSTRUCTURE
     1 FAF         1 TEMP              0 ****  ****    0 ROOT
