@<TRIPOS>MOLECULE
FAF
   48    48     1     0     0
SMALL
bcc


@<TRIPOS>ATOM
      1 CX          0.6060    0.0680    0.2210 c         1 FAF      0.585100
      2 OX          1.3460   -0.7840   -0.2350 o         1 FAF     -0.419100
      3 CAX         0.7690    0.9540    1.4020 c3        1 FAF     -0.192100
      4 NL         -0.7180    0.2450   -0.5450 n4        1 FAF     -0.700800
      5 CAL        -0.6300   -0.0040   -2.0260 c3        1 FAF      0.072500
      6 CBL         0.3240    0.9660   -2.7290 c3        1 FAF     -0.134400
      7 CGL         0.0870    2.4360   -2.3920 c3        1 FAF     -0.070700
      8 CDL         1.0400    3.2800   -3.2210 c3        1 FAF     -0.111100
      9 CDM        -1.3420    2.8610   -2.6510 c3        1 FAF     -0.111100
     10 C          -0.3280   -1.4920   -2.2800 c         1 FAF      0.525100
     11 O          -0.7110   -2.3770   -1.5240 o         1 FAF     -0.397100
     12 N           0.3870   -1.8910   -3.5200 n4        1 FAF     -0.655800
     13 CA          1.4960   -2.8990   -3.2770 c3        1 FAF     -0.011500
     14 CB          1.7430   -3.7460   -4.5400 c3        1 FAF     -0.045100
     15 CG          0.4810   -4.3200   -5.0750 ca        1 FAF     -0.182300
     16 CD1        -0.1770   -3.6920   -6.1430 ca        1 FAF     -0.135000
     17 CD2        -0.0200   -5.5240   -4.5660 ca        1 FAF     -0.135000
     18 CE1        -1.3270   -4.2610   -6.6870 ca        1 FAF     -0.108500
     19 CE2        -1.1720   -6.0890   -5.1130 ca        1 FAF     -0.108500
     20 CZ         -1.8270   -5.4600   -6.1720 ca        1 FAF     -0.085000
     21 CW          2.8090   -2.2310   -2.8630 c         1 FAF      0.579900
     22 OW          2.8940   -1.0120   -2.7510 o         1 FAF     -0.512100
     23 HAX1        1.7040    0.6450    1.9500 hc        1 FAF      0.134700
     24 HAX2       -0.0990    0.8720    2.1070 hc        1 FAF      0.134700
     25 HAX3        0.8850    2.0230    1.0790 hc        1 FAF      0.134700
     26 HL         -1.0560    1.2110   -0.4130 hn        1 FAF      0.484300
     27 HAL        -1.6800    0.1690   -2.4430 hx        1 FAF      0.154700
     28 HBL1        1.3930    0.7030   -2.4920 hc        1 FAF      0.100700
     29 HBL2        0.1630    0.8580   -3.8380 hc        1 FAF      0.100700
     30 HGL         0.3390    2.6150   -1.3070 hc        1 FAF      0.033700
     31 HDL1        2.0980    2.9650   -3.0530 hc        1 FAF      0.062367
     32 HDL2        0.9400    4.3560   -2.9310 hc        1 FAF      0.062367
     33 HDL3        0.8040    3.1900   -4.3090 hc        1 FAF      0.062367
     34 HDM1       -1.6350    2.6510   -3.7080 hc        1 FAF      0.062367
     35 HDM2       -2.0600    2.3420   -1.9710 hc        1 FAF      0.062367
     36 HDM3       -1.4450    3.9640   -2.4820 hc        1 FAF      0.062367
     37 HN          0.8050   -1.0680   -3.9770 hn        1 FAF      0.489800
     38 HA          1.1500   -3.5830   -2.4410 hx        1 FAF      0.149700
     39 HB1         2.4500   -4.5710   -4.2440 hc        1 FAF      0.104200
     40 HB2         2.2590   -3.1270   -5.3230 hc        1 FAF      0.104200
     41 HD1         0.2490   -2.7870   -6.6020 ha        1 FAF      0.138500
     42 HD2         0.5080   -6.0420   -3.7490 ha        1 FAF      0.138500
     43 HE1        -1.8280   -3.7790   -7.5430 ha        1 FAF      0.166000
     44 HE2        -1.5530   -7.0470   -4.7190 ha        1 FAF      0.166000
     45 HZ         -2.7260   -5.9180   -6.6160 ha        1 FAF      0.171000
     46 HW          3.6420   -2.9460   -2.6870 h4        1 FAF      0.097200
     47 HL2        -1.4070   -0.4060   -0.1380 hn        1 FAF      0.484300
     48 H2         -0.2940   -2.3380   -4.1740 hn        1 FAF      0.489800
@<TRIPOS>BOND
     1    1    2 2   
     2    1    3 1   
     3    1    4 1   
     4    3   23 1   
     5    3   24 1   
     6    3   25 1   
     7    4    5 1   
     8    4   26 1   
     9    4   47 1   
    10    5    6 1   
    11    5   10 1   
    12    5   27 1   
    13    6    7 1   
    14    6   28 1   
    15    6   29 1   
    16    7    8 1   
    17    7    9 1   
    18    7   30 1   
    19    8   31 1   
    20    8   32 1   
    21    8   33 1   
    22    9   34 1   
    23    9   35 1   
    24    9   36 1   
    25   10   11 2   
    26   10   12 1   
    27   12   13 1   
    28   12   37 1   
    29   12   48 1   
    30   13   14 1   
    31   13   21 1   
    32   13   38 1   
    33   14   15 1   
    34   14   39 1   
    35   14   40 1   
    36   15   16 ar  
    37   15   17 ar  
    38   16   18 ar  
    39   16   41 1   
    40   17   19 ar  
    41   17   42 1   
    42   18   20 ar  
    43   18   43 1   
    44   19   20 ar  
    45   19   44 1   
    46   20   45 1   
    47   21   22 2   
    48   21   46 1   
@<TRIPOS>SUBSTRUCTURE
     1 FAF         1 TEMP              0 ****  ****    0 ROOT
