@<TRIPOS>MOLECULE
FAF
   46    43     1     0     0
SMALL
bcc


@<TRIPOS>ATOM
      1 CX          1.0750    0.4470    3.7270 c1        1 FAF      0.300000
      2 OX          2.0260   -0.0650    4.2930 o         1 FAF     -0.360000
      3 CAX         0.5730    1.8580    4.1660 c2        1 FAF     -0.241000
      4 NL          0.3500   -0.3000    2.6900 n3        1 FAF     -0.376000
      5 CAL         1.0000   -0.6170    1.4250 c3        1 FAF      0.020000
      6 CBL         2.2340   -1.4940    1.6780 c3        1 FAF     -0.187000
      7 CGL         3.1230   -1.5030    0.4110 c3        1 FAF     -0.115000
      8 CDL         4.2310   -0.4200    0.5480 c3        1 FAF     -0.208000
      9 CDM         3.7750   -2.8820    0.2450 c3        1 FAF     -0.208000
     10 C           0.0370   -1.3500    0.5440 c2        1 FAF      0.297000
     11 O           0.0490   -2.5500    0.5110 o         1 FAF     -0.362000
     12 N          -0.9300   -0.6060   -0.2640 n         1 FAF     -0.349000
     13 CA         -0.8710   -0.6760   -1.6800 c3        1 FAF     -0.046000
     14 CB         -2.2930   -0.8090   -2.2600 c3        1 FAF     -0.123000
     15 CG         -2.9880    0.5530   -2.2350 c2        1 FAF     -0.089000
     16 CD1        -4.0970    0.7550   -1.4190 c2        1 FAF     -0.127000
     17 CD2        -2.5800    1.5490   -3.1070 c1        1 FAF     -0.126000
     18 CE1        -4.7950    1.9570   -1.4810 c1        1 FAF     -0.129000
     19 CE2        -3.2780    2.7500   -3.1690 c1        1 FAF     -0.124500
     20 CZ         -4.3850    2.9530   -2.3560 c1        1 FAF     -0.124500
     21 CW         -0.2290    0.5700   -2.2210 c2        1 FAF      0.166000
     22 OW         -0.2980    1.6130   -1.5940 o         1 FAF     -0.280000
     23 HAX1        1.2110    2.2500    4.7830 ha        1 FAF      0.106000
     24 HAX2       -0.2870    1.7750    4.6010 ha        1 FAF      0.106000
     25 HAX3        0.4870    2.4330    3.3760 ha        1 FAF      0.106000
     26 HL         -0.4970   -0.6040    2.8560 hn        1 FAF      0.246000
     27 HAL         1.2640    0.1750    1.0040 h1        1 FAF      0.105000
     28 HBL1        2.7360   -1.1370    2.4200 hc        1 FAF      0.103000
     29 HBL2        1.9460   -2.4190    1.8880 hc        1 FAF      0.103000
     30 HGL         2.5550   -1.3010   -0.4020 hc        1 FAF      0.104000
     31 HDL1        4.6070   -0.4380    1.4860 hc        1 FAF      0.075167
     32 HDL2        3.8360    0.4900    0.3620 hc        1 FAF      0.075167
     33 HDL3        4.9680   -0.6080   -0.1130 hc        1 FAF      0.075167
     34 HDM1        4.7190   -2.7700    0.0500 hc        1 FAF      0.075167
     35 HDM2        3.6700   -3.3990    1.0780 hc        1 FAF      0.075167
     36 HDM3        3.3530   -3.3490   -0.4770 hc        1 FAF      0.075167
     37 HN         -1.6060   -0.1460    0.1420 hn        1 FAF      0.232000
     38 HA         -0.3190   -1.4850   -1.9540 h1        1 FAF      0.152000
     39 HB1        -2.2380   -1.1230   -3.1750 hc        1 FAF      0.104000
     40 HB2        -2.8000   -1.4430   -1.7300 hc        1 FAF      0.104000
     41 HD1        -4.3790    0.0710   -0.8200 ha        1 FAF      0.139000
     42 HD2        -1.7900    1.4030   -3.6900 ha        1 FAF      0.130000
     43 HE1        -5.5710    2.0990   -0.9110 ha        1 FAF      0.134000
     44 HE2        -2.9890    3.4500   -3.7840 ha        1 FAF      0.135000
     45 HZ         -4.8800    3.8070   -2.4000 ha        1 FAF      0.135000
     46 HW          0.2750    0.5350   -3.0410 h4        1 FAF      0.097000
@<TRIPOS>BOND
     1    1    2 1   
     2    1    4 1   
     3    3   23 1   
     4    3   24 1   
     5    3   25 1   
     6    4    5 1   
     7    4   26 1   
     8    5    6 1   
     9    5   10 1   
    10    5   27 1   
    11    6    7 1   
    12    6   28 1   
    13    6   29 1   
    14    7    8 1   
    15    7    9 1   
    16    7   30 1   
    17    8   31 1   
    18    8   32 1   
    19    8   33 1   
    20    9   34 1   
    21    9   35 1   
    22    9   36 1   
    23   10   11 1   
    24   10   12 1   
    25   12   13 1   
    26   12   37 1   
    27   13   14 1   
    28   13   21 1   
    29   13   38 1   
    30   14   15 1   
    31   14   39 1   
    32   14   40 1   
    33   15   16 1   
    34   15   17 1   
    35   16   18 1   
    36   16   41 1   
    37   17   42 1   
    38   18   43 1   
    39   19   20 1   
    40   19   44 1   
    41   20   45 1   
    42   21   22 1   
    43   21   46 1   
@<TRIPOS>SUBSTRUCTURE
     1 FAF         1 TEMP              0 ****  ****    0 ROOT
