@<TRIPOS>MOLECULE
FAF
   48    48     1     0     0
SMALL
bcc


@<TRIPOS>ATOM
      1 CX          0.6070    0.0650    0.2230 c         1 FAF      0.585100
      2 OX          1.3500   -0.7830   -0.2360 o         1 FAF     -0.419100
      3 CAX         0.7670    0.9490    1.4050 c3        1 FAF     -0.192100
      4 NL         -0.7190    0.2370   -0.5420 n4        1 FAF     -0.700800
      5 CAL        -0.6320   -0.0090   -2.0230 c3        1 FAF      0.072500
      6 CBL         0.3180    0.9660   -2.7260 c3        1 FAF     -0.134400
      7 CGL         0.0760    2.4340   -2.3850 c3        1 FAF     -0.070700
      8 CDL         1.0250    3.2830   -3.2150 c3        1 FAF     -0.111100
      9 CDM        -1.3550    2.8550   -2.6420 c3        1 FAF     -0.111100
     10 C          -0.3240   -1.4960   -2.2800 c         1 FAF      0.525100
     11 O          -0.7020   -2.3830   -1.5240 o         1 FAF     -0.397100
     12 N           0.3890   -1.8890   -3.5220 n4        1 FAF     -0.655800
     13 CA          1.5030   -2.8940   -3.2840 c3        1 FAF     -0.011500
     14 CB          1.7500   -3.7370   -4.5490 c3        1 FAF     -0.045100
     15 CG          0.4890   -4.3160   -5.0820 ca        1 FAF     -0.182300
     16 CD1        -0.1750   -3.6880   -6.1460 ca        1 FAF     -0.135000
     17 CD2        -0.0060   -5.5230   -4.5730 ca        1 FAF     -0.135000
     18 CE1        -1.3240   -4.2610   -6.6880 ca        1 FAF     -0.108500
     19 CE2        -1.1570   -6.0930   -5.1190 ca        1 FAF     -0.108500
     20 CZ         -1.8170   -5.4630   -6.1740 ca        1 FAF     -0.085000
     21 CW          2.8140   -2.2220   -2.8720 c         1 FAF      0.579900
     22 OW          2.8950   -1.0020   -2.7580 o         1 FAF     -0.512100
     23 HAX1        0.8790    2.0190    1.0840 hc        1 FAF      0.134700
     24 HAX2        1.7040    0.6430    1.9520 hc        1 FAF      0.134700
     25 HAX3       -0.1000    0.8630    2.1110 hc        1 FAF      0.134700
     26 HL         -1.4040   -0.4170   -0.1350 hn        1 FAF      0.484300
     27 HAL        -1.6830    0.1610   -2.4390 hx        1 FAF      0.154700
     28 HBL1        0.1550    0.8600   -3.8350 hc        1 FAF      0.100700
     29 HBL2        1.3880    0.7060   -2.4910 hc        1 FAF      0.100700
     30 HGL         0.3290    2.6120   -1.3010 hc        1 FAF      0.033700
     31 HDL1        0.9220    4.3580   -2.9230 hc        1 FAF      0.062367
     32 HDL2        0.7890    3.1940   -4.3030 hc        1 FAF      0.062367
     33 HDL3        2.0840    2.9720   -3.0470 hc        1 FAF      0.062367
     34 HDM1       -1.6480    2.6460   -3.7000 hc        1 FAF      0.062367
     35 HDM2       -2.0700    2.3320   -1.9630 hc        1 FAF      0.062367
     36 HDM3       -1.4620    3.9570   -2.4710 hc        1 FAF      0.062367
     37 HN         -0.2910   -2.3380   -4.1750 hn        1 FAF      0.489800
     38 HA          1.1610   -3.5810   -2.4480 hx        1 FAF      0.149700
     39 HB1         2.4610   -4.5610   -4.2550 hc        1 FAF      0.104200
     40 HB2         2.2610   -3.1150   -5.3320 hc        1 FAF      0.104200
     41 HD1         0.2460   -2.7800   -6.6040 ha        1 FAF      0.138500
     42 HD2         0.5270   -6.0410   -3.7600 ha        1 FAF      0.138500
     43 HE1        -1.8300   -3.7800   -7.5410 ha        1 FAF      0.166000
     44 HE2        -1.5320   -7.0530   -4.7260 ha        1 FAF      0.166000
     45 HZ         -2.7160   -5.9240   -6.6170 ha        1 FAF      0.171000
     46 HW          3.6500   -2.9340   -2.6980 h4        1 FAF      0.097200
     47 HL2        -1.0600    1.2020   -0.4070 hn        1 FAF      0.484300
     48 H2          0.8030   -1.0650   -3.9790 hn        1 FAF      0.489800
@<TRIPOS>BOND
     1    1    2 2   
     2    1    3 1   
     3    1    4 1   
     4    3   23 1   
     5    3   24 1   
     6    3   25 1   
     7    4    5 1   
     8    4   26 1   
     9    4   47 1   
    10    5    6 1   
    11    5   10 1   
    12    5   27 1   
    13    6    7 1   
    14    6   28 1   
    15    6   29 1   
    16    7    8 1   
    17    7    9 1   
    18    7   30 1   
    19    8   31 1   
    20    8   32 1   
    21    8   33 1   
    22    9   34 1   
    23    9   35 1   
    24    9   36 1   
    25   10   11 2   
    26   10   12 1   
    27   12   13 1   
    28   12   37 1   
    29   12   48 1   
    30   13   14 1   
    31   13   21 1   
    32   13   38 1   
    33   14   15 1   
    34   14   39 1   
    35   14   40 1   
    36   15   16 ar  
    37   15   17 ar  
    38   16   18 ar  
    39   16   41 1   
    40   17   19 ar  
    41   17   42 1   
    42   18   20 ar  
    43   18   43 1   
    44   19   20 ar  
    45   19   44 1   
    46   20   45 1   
    47   21   22 2   
    48   21   46 1   
@<TRIPOS>SUBSTRUCTURE
     1 FAF         1 TEMP              0 ****  ****    0 ROOT
