@<TRIPOS>MOLECULE
FAF
   48    48     1     0     0
SMALL
bcc


@<TRIPOS>ATOM
      1 CX          0.6000    0.0720    0.2200 c         1 FAF      0.585100
      2 OX          1.3380   -0.7840   -0.2320 o         1 FAF     -0.419100
      3 CAX         0.7630    0.9590    1.4000 c3        1 FAF     -0.192100
      4 NL         -0.7210    0.2530   -0.5500 ny        1 FAF     -0.700800
      5 CAL        -0.6290    0.0020   -2.0300 c3        1 FAF      0.072500
      6 CBL         0.3320    0.9660   -2.7330 c3        1 FAF     -0.134400
      7 CGL         0.1000    2.4370   -2.3980 c3        1 FAF     -0.070700
      8 CDL         1.0590    3.2760   -3.2260 c3        1 FAF     -0.111100
      9 CDM        -1.3260    2.8680   -2.6630 c3        1 FAF     -0.111100
     10 C          -0.3320   -1.4890   -2.2810 c         1 FAF      0.525100
     11 O          -0.7210   -2.3710   -1.5250 o         1 FAF     -0.397100
     12 N           0.3850   -1.8920   -3.5180 ny        1 FAF     -0.655800
     13 CA          1.4900   -2.9050   -3.2700 c3        1 FAF     -0.011500
     14 CB          1.7360   -3.7550   -4.5300 c3        1 FAF     -0.045100
     15 CG          0.4740   -4.3250   -5.0680 ca        1 FAF     -0.182300
     16 CD1        -0.1790   -3.6970   -6.1390 ca        1 FAF     -0.135000
     17 CD2        -0.0330   -5.5260   -4.5580 ca        1 FAF     -0.135000
     18 CE1        -1.3290   -4.2620   -6.6860 ca        1 FAF     -0.108500
     19 CE2        -1.1860   -6.0880   -5.1080 ca        1 FAF     -0.108500
     20 CZ         -1.8350   -5.4580   -6.1700 ca        1 FAF     -0.085000
     21 CW          2.8040   -2.2420   -2.8530 c         1 FAF      0.579900
     22 OW          2.8930   -1.0220   -2.7430 o         1 FAF     -0.512100
     23 HAX1       -0.1070    0.8820    2.1020 hc        1 FAF      0.134700
     24 HAX2        1.6950    0.6470    1.9520 hc        1 FAF      0.134700
     25 HAX3        0.8850    2.0270    1.0760 hc        1 FAF      0.134700
     26 HL         -1.0550    1.2210   -0.4210 hn        1 FAF      0.484300
     27 HAL        -1.6770    0.1780   -2.4510 hx        1 FAF      0.154700
     28 HBL1        0.1730    0.8570   -3.8420 hc        1 FAF      0.100700
     29 HBL2        1.3990    0.6980   -2.4920 hc        1 FAF      0.100700
     30 HGL         0.3490    2.6170   -1.3130 hc        1 FAF      0.033700
     31 HDL1        0.9630    4.3530   -2.9380 hc        1 FAF      0.062367
     32 HDL2        2.1150    2.9570   -3.0530 hc        1 FAF      0.062367
     33 HDL3        0.8270    3.1850   -4.3150 hc        1 FAF      0.062367
     34 HDM1       -2.0490    2.3530   -1.9850 hc        1 FAF      0.062367
     35 HDM2       -1.6170    2.6580   -3.7210 hc        1 FAF      0.062367
     36 HDM3       -1.4260    3.9710   -2.4970 hc        1 FAF      0.062367
     37 HN          0.8080   -1.0730   -3.9750 hn        1 FAF      0.489800
     38 HA          1.1380   -3.5860   -2.4330 hx        1 FAF      0.149700
     39 HB1         2.4390   -4.5830   -4.2300 hc        1 FAF      0.104200
     40 HB2         2.2570   -3.1400   -5.3130 hc        1 FAF      0.104200
     41 HD1         0.2530   -2.7940   -6.5990 ha        1 FAF      0.138500
     42 HD2         0.4900   -6.0450   -3.7390 ha        1 FAF      0.138500
     43 HE1        -1.8250   -3.7800   -7.5440 ha        1 FAF      0.166000
     44 HE2        -1.5720   -7.0430   -4.7130 ha        1 FAF      0.166000
     45 HZ         -2.7350   -5.9130   -6.6160 ha        1 FAF      0.171000
     46 HW          3.6330   -2.9590   -2.6720 h4        1 FAF      0.097200
     47 HL2        -1.4130   -0.3940   -0.1440 hn        1 FAF      0.484300
     48 H2         -0.2950   -2.3380   -4.1730 hn        1 FAF      0.489800
@<TRIPOS>BOND
     1    1    2 2   
     2    1    3 1   
     3    1    4 1   
     4    3   23 1   
     5    3   24 1   
     6    3   25 1   
     7    4    5 1   
     8    4   26 1   
     9    4   47 1   
    10    5    6 1   
    11    5   10 1   
    12    5   27 1   
    13    6    7 1   
    14    6   28 1   
    15    6   29 1   
    16    7    8 1   
    17    7    9 1   
    18    7   30 1   
    19    8   31 1   
    20    8   32 1   
    21    8   33 1   
    22    9   34 1   
    23    9   35 1   
    24    9   36 1   
    25   10   11 2   
    26   10   12 1   
    27   12   13 1   
    28   12   37 1   
    29   12   48 1   
    30   13   14 1   
    31   13   21 1   
    32   13   38 1   
    33   14   15 1   
    34   14   39 1   
    35   14   40 1   
    36   15   16 ar  
    37   15   17 ar  
    38   16   18 ar  
    39   16   41 1   
    40   17   19 ar  
    41   17   42 1   
    42   18   20 ar  
    43   18   43 1   
    44   19   20 ar  
    45   19   44 1   
    46   20   45 1   
    47   21   22 2   
    48   21   46 1   
@<TRIPOS>SUBSTRUCTURE
     1 FAF         1 TEMP              0 ****  ****    0 ROOT
