@<TRIPOS>MOLECULE
FAH
    7     6     1     0     0
SMALL
bcc


@<TRIPOS>ATOM
      1 C           0.5960    0.0570    0.0010 c         1 FAH      0.896600
      2 F          -1.8720    0.0050   -0.0000 f         1 FAH     -0.275300
      3 O           0.5490    1.3150   -0.0000 o         1 FAH     -0.834800
      4 CH3        -0.7220   -0.7600    0.0010 c3        1 FAH      0.025900
      5 OXT         1.6580   -0.6290    0.0010 o         1 FAH     -0.834800
      6 HH3        -0.7340   -1.4180   -0.9100 h1        1 FAH      0.010700
      7 HH3A       -0.7340   -1.4160    0.9130 h1        1 FAH      0.010700
@<TRIPOS>BOND
     1    1    3 1   
     2    1    4 1   
     3    1    5 1   
     4    2    4 1   
     5    4    6 1   
     6    4    7 1   
@<TRIPOS>SUBSTRUCTURE
     1 FAH         1 TEMP              0 ****  ****    0 ROOT
