@<TRIPOS>MOLECULE
FAH
    7     6     1     0     0
SMALL
bcc


@<TRIPOS>ATOM
      1 C           0.0240    0.0020   -0.0500 c         1 FAH      0.896600
      2 F           0.0890   -0.0020    2.4180 f         1 FAH     -0.275300
      3 O           1.2830   -0.0010   -0.0610 o         1 FAH     -0.834800
      4 CH3        -0.7290    0.0000    1.3060 c3        1 FAH      0.025900
      5 OXT        -0.7120    0.0050   -1.0780 o         1 FAH     -0.834800
      6 HH3        -1.3860   -0.9110    1.3480 h1        1 FAH      0.010700
      7 HH3A       -1.3850    0.9120    1.3500 h1        1 FAH      0.010700
@<TRIPOS>BOND
     1    1    3 1   
     2    1    4 1   
     3    1    5 1   
     4    2    4 1   
     5    4    6 1   
     6    4    7 1   
@<TRIPOS>SUBSTRUCTURE
     1 FAH         1 TEMP              0 ****  ****    0 ROOT
