@<TRIPOS>MOLECULE
FAH
    7     5     1     0     0
SMALL
bcc


@<TRIPOS>ATOM
      1 C           0.4640    0.0000   -0.7040 c1        1 FAH      0.316000
      2 F          -1.6130   -0.0010    0.3610 f         1 FAH     -0.204000
      3 O           1.7230    0.0000   -0.7040 o         1 FAH     -0.585000
      4 CH3        -0.2930    0.0000    0.6060 c3        1 FAH     -0.074000
      5 OXT        -0.1660    0.0000   -1.7940 os        1 FAH     -0.554000
      6 HH3        -0.0570   -0.7970    1.1180 h1        1 FAH      0.050000
      7 HH3A       -0.0580    0.7970    1.1180 h1        1 FAH      0.050000
@<TRIPOS>BOND
     1    1    3 1   
     2    1    4 1   
     3    2    4 1   
     4    4    6 1   
     5    4    7 1   
@<TRIPOS>SUBSTRUCTURE
     1 FAH         1 TEMP              0 ****  ****    0 ROOT
