@<TRIPOS>MOLECULE
FAI
   37    35     1     0     0
SMALL
bcc


@<TRIPOS>ATOM
      1 OP2        -0.4700    3.5500    3.3340 o         1 FAI     -0.926833
      2 P           0.6370    4.3380    2.6760 p5        1 FAI      1.352900
      3 OP1         1.7080    4.6470    3.6940 o         1 FAI     -0.926833
      4 OP3         0.0780    5.6280    2.1260 o         1 FAI     -0.926833
      5 O3          1.2600    3.4880    1.4980 os        1 FAI     -0.568200
      6 C4          0.4000    2.9960    0.4970 c3        1 FAI      0.234400
      7 C           1.1030    1.8950   -0.2800 c3        1 FAI      0.065100
      8 O           0.9370    0.7680    0.3080 os        1 FAI     -0.439600
      9 C3          0.4470    1.7460   -1.7440 c3        1 FAI      0.086100
     10 O3'         1.0410    2.7150   -2.6620 oh        1 FAI     -0.673800
     11 C2          0.7160    0.5400   -2.1360 c3        1 FAI      0.109100
     12 O2'         1.9920    0.5200   -2.9090 oh        1 FAI     -0.625800
     13 C1          0.8660   -0.2730   -0.8360 c3        1 FAI      0.221800
     14 N          -0.1620   -1.0560   -0.6710 n3        1 FAI     -0.097400
     15 C5         -1.4050   -0.8550   -1.1720 c1        1 FAI      0.100400
     16 N1         -2.1950   -1.8740   -0.7560 ne        1 FAI     -0.395400
     17 C3A        -1.4520   -2.6940   -0.0080 cg        1 FAI     -0.148000
     18 C6         -1.9330   -3.9540    0.6780 c1        1 FAI      0.633500
     19 O5         -1.1590   -4.6220    1.3340 o         1 FAI     -0.643500
     20 N2         -3.2700   -4.3930    0.4970 n3        1 FAI     -0.528400
     21 C7A        -0.1830   -2.1840    0.0450 c1        1 FAI      0.049700
     22 N3          0.9060   -2.7320    0.7690 n2        1 FAI     -0.572400
     23 C8          0.8170   -2.8860    2.1760 c2        1 FAI      0.621100
     24 O6         -0.1950   -2.5470    2.7620 o         1 FAI     -0.724300
     25 H41         0.1600    3.7240   -0.1140 h1        1 FAI     -0.001800
     26 H42        -0.4110    2.6370    0.9110 h1        1 FAI     -0.001800
     27 H           2.0570    2.0960   -0.3580 h1        1 FAI      0.046700
     28 H3         -0.5200    1.8760   -1.6950 h1        1 FAI      0.151700
     29 HO3'        0.3990    3.1110   -3.1320 ho        1 FAI      0.507000
     30 H2         -0.0170    0.1860   -2.6770 h1        1 FAI      0.082700
     31 HO2'        2.0020   -0.1880   -3.4470 ho        1 FAI      0.429000
     32 H1          1.6900   -0.8000   -0.8620 h2        1 FAI      0.063700
     33 H5         -1.6830   -0.1060   -1.7340 DU        1 FAI      0.180000
     34 HN21       -3.5710   -5.1350    0.9370 hn        1 FAI      0.275200
     35 HN22       -3.8310   -3.9300   -0.0550 hn        1 FAI      0.275200
     36 HN3         1.6700   -2.9740    0.3310 hn        1 FAI      0.562400
     37 H8          1.5690   -3.2590    2.6760 h5        1 FAI      0.155200
@<TRIPOS>BOND
     1    1    2 1   
     2    2    3 1   
     3    2    4 1   
     4    2    5 1   
     5    5    6 1   
     6    6    7 1   
     7    6   25 1   
     8    6   26 1   
     9    7    8 1   
    10    7    9 1   
    11    7   27 1   
    12    8   13 1   
    13    9   10 1   
    14    9   11 1   
    15    9   28 1   
    16   10   29 1   
    17   11   12 1   
    18   11   13 1   
    19   11   30 1   
    20   12   31 1   
    21   13   14 1   
    22   13   32 1   
    23   14   15 2   
    24   14   21 1   
    25   15   16 2   
    26   16   17 1   
    27   17   21 3   
    28   18   19 2   
    29   18   20 2   
    30   20   34 1   
    31   20   35 1   
    32   22   23 2   
    33   22   36 1   
    34   23   24 1   
    35   23   37 1   
@<TRIPOS>SUBSTRUCTURE
     1 FAI         1 TEMP              0 ****  ****    0 ROOT
