@<TRIPOS>MOLECULE
FAI
   37    38     1     0     0
SMALL
bcc


@<TRIPOS>ATOM
      1 OP2         5.7690    0.1260   -1.3040 o         1 FAI     -0.929167
      2 P           4.2960    0.1440   -1.5580 p5        1 FAI      1.334900
      3 OP1         3.7220    1.2550   -2.3880 o         1 FAI     -0.929167
      4 OP3         3.6200   -1.1980   -1.7730 o         1 FAI     -0.929167
      5 O3          3.6100    0.4970    0.0100 os        1 FAI     -0.554200
      6 C4          2.2480    0.5910    0.0060 c3        1 FAI      0.229400
      7 C           1.6140   -0.7030    0.5730 c3        1 FAI      0.051100
      8 O           0.4360   -0.3790    1.3570 os        1 FAI     -0.428600
      9 C3          1.2030   -1.7180   -0.5100 c3        1 FAI      0.131100
     10 O3'         1.9780   -2.8900   -0.4240 oh        1 FAI     -0.684800
     11 C2         -0.2710   -2.0740   -0.2140 c3        1 FAI      0.101100
     12 O2'        -0.4820   -3.3540    0.3410 oh        1 FAI     -0.619800
     13 C1         -0.7220   -1.0050    0.8400 c3        1 FAI      0.203800
     14 N          -1.6130    0.0130    0.2820 na        1 FAI     -0.187900
     15 C5         -1.2310    1.2940   -0.1600 cc        1 FAI      0.442400
     16 N1         -2.2690    2.0000   -0.6470 nd        1 FAI     -0.680000
     17 C3A        -3.3860    1.1650   -0.5280 cd        1 FAI      0.169800
     18 C6         -4.7400    1.4810   -0.9810 c         1 FAI      0.618600
     19 O5         -5.6690    0.6300   -0.9710 o         1 FAI     -0.701100
     20 N2         -5.0110    2.7560   -1.4180 n         1 FAI     -0.660000
     21 C7A        -2.9910   -0.0850    0.0570 cc        1 FAI     -0.018000
     22 N3         -3.8170   -1.1910    0.2710 n         1 FAI     -0.445100
     23 C8         -3.9700   -1.8590    1.4700 c         1 FAI      0.664900
     24 O6         -3.3220   -1.6440    2.5050 o         1 FAI     -0.590100
     25 H41         1.9220    1.4350    0.6860 h1        1 FAI     -0.002800
     26 H42         1.8560    0.7870   -1.0330 h1        1 FAI     -0.002800
     27 H           2.3270   -1.1750    1.3010 h1        1 FAI      0.081700
     28 H3          1.3050   -1.2710   -1.5390 h1        1 FAI      0.118700
     29 HO3'        2.8360   -2.6640   -0.8620 ho        1 FAI      0.515000
     30 H2         -0.8970   -2.0430   -1.1440 h1        1 FAI      0.066700
     31 HO2'        0.3650   -3.6710    0.6820 ho        1 FAI      0.432000
     32 H1         -1.2580   -1.4840    1.7140 h2        1 FAI      0.103700
     33 H5         -0.1760    1.6180   -0.1020 h5        1 FAI      0.114100
     34 HN21       -4.2810    3.4130   -1.5330 hn        1 FAI      0.309000
     35 HN22       -5.8930    2.9460   -1.8200 hn        1 FAI      0.309000
     36 HN3        -4.5820   -1.2210   -0.3780 hn        1 FAI      0.347500
     37 H8         -4.7380   -2.6670    1.4010 h5        1 FAI      0.017200
@<TRIPOS>BOND
     1    1    2 1   
     2    2    3 1   
     3    2    4 1   
     4    2    5 1   
     5    5    6 1   
     6    6    7 1   
     7    6   25 1   
     8    6   26 1   
     9    7    8 1   
    10    7    9 1   
    11    7   27 1   
    12    8   13 1   
    13    9   10 1   
    14    9   11 1   
    15    9   28 1   
    16   10   29 1   
    17   11   12 1   
    18   11   13 1   
    19   11   30 1   
    20   12   31 1   
    21   13   14 1   
    22   13   32 1   
    23   14   15 1   
    24   14   21 1   
    25   15   16 2   
    26   15   33 1   
    27   16   17 1   
    28   17   18 1   
    29   17   21 2   
    30   18   19 2   
    31   18   20 1   
    32   20   34 1   
    33   20   35 1   
    34   21   22 1   
    35   22   23 1   
    36   22   36 1   
    37   23   24 2   
    38   23   37 1   
@<TRIPOS>SUBSTRUCTURE
     1 FAI         1 TEMP              0 ****  ****    0 ROOT
