@<TRIPOS>MOLECULE
FAL
   53    46     1     0     0
SMALL
bcc


@<TRIPOS>ATOM
      1 C22         4.2960    1.1170    0.5350 c3        1 FAL      0.124400
      2 N1         -2.4020   -1.5830   -1.2130 n1        1 FAL     -0.574800
      3 C2         -3.2500   -2.5730   -1.5840 c1        1 FAL     -0.082250
      4 C6         -2.8750   -0.3210   -1.0090 c1        1 FAL      0.559600
      5 C4         -5.1050   -0.9910   -1.5480 c1        1 FAL      0.559600
      6 C3         -4.6170   -2.2980   -1.7590 c1        1 FAL     -0.082250
      7 N5         -4.2820   -0.0380   -1.1890 n1        1 FAL     -0.574800
      8 C11        -9.5990   -2.0280    0.3900 c1        1 FAL     -0.059500
      9 C10        -9.0940   -2.8230   -0.6010 c1        1 FAL     -0.059500
     10 C9         -8.0650   -2.3870   -1.3660 c1        1 FAL      0.020900
     11 C8         -7.5160   -1.1160   -1.1400 c1        1 FAL      0.103300
     12 C12        -9.0550   -0.7640    0.6160 c1        1 FAL      0.020900
     13 C17         1.6140    0.4250   -1.3560 c1        1 FAL     -0.089500
     14 C16         0.2420    0.6100   -1.5180 c1        1 FAL     -0.092500
     15 C13        -8.0240   -0.3190   -0.1450 c1        1 FAL     -0.092500
     16 C15        -0.6160    0.4800   -0.4230 c1        1 FAL      0.103300
     17 C18         2.1460    0.1030   -0.0720 c1        1 FAL      0.106600
     18 C19         1.3180   -0.0250    0.9990 c1        1 FAL     -0.082250
     19 C20        -0.0860    0.1620    0.8430 c1        1 FAL     -0.082250
     20 O21         3.5540   -0.1010    0.0910 os        1 FAL     -0.318400
     21 N7         -6.4190   -0.6660   -1.9260 n3        1 FAL     -0.552900
     22 N14        -1.9690    0.7400   -0.5660 n3        1 FAL     -0.552900
     23 CL29       -7.5140   -3.3720   -2.7960 cl        1 FAL     -0.093400
     24 CL30      -10.0670    0.3600    1.5440 cl        1 FAL     -0.093400
     25 C23         5.7570    0.8800    0.3970 c3        1 FAL      0.141100
     26 C24         6.5380    1.8090    1.3590 c3        1 FAL      0.138800
     27 N25         7.9400    1.4130    1.3790 n3        1 FAL     -0.761600
     28 C26         8.7040    2.3920    0.7660 c3        1 FAL      0.162600
     29 C27         8.3800    1.2500    2.7510 c3        1 FAL      0.162600
     30 O28         6.0530   -0.5160    0.7280 oh        1 FAL     -0.606800
     31 H221        4.0800    1.3070    1.4810 h1        1 FAL      0.055200
     32 H222        4.0420    1.8530   -0.0000 h1        1 FAL      0.055200
     33 H2         -2.9330   -3.4210   -1.7220 ha        1 FAL      0.100500
     34 H3         -5.2690   -3.0570   -2.0440 ha        1 FAL      0.100500
     35 H11       -10.3820   -2.3640    0.9670 ha        1 FAL      0.097500
     36 H10        -9.4580   -3.6620   -0.7480 ha        1 FAL      0.097500
     37 H17         2.2390    0.5180   -2.1510 ha        1 FAL      0.092500
     38 H16        -0.0920    0.8130   -2.3280 ha        1 FAL      0.092500
     39 H13        -7.6010    0.6680    0.0350 ha        1 FAL      0.092500
     40 H19         1.6690   -0.2340    1.8270 ha        1 FAL      0.100500
     41 H20        -0.6610    0.0740    1.5910 ha        1 FAL      0.100500
     42 H7         -6.5650   -0.1030   -2.6410 hn        1 FAL      0.443800
     43 H14        -2.3190    1.6970   -0.4570 hn        1 FAL      0.443800
     44 H23         6.0210    1.0560   -0.4930 h1        1 FAL      0.061700
     45 H241        6.4770    2.6040    1.0930 h1        1 FAL      0.051200
     46 H242        6.1580    1.7360    2.2700 h1        1 FAL      0.051200
     47 H261        9.5410    2.1020    0.6770 h1        1 FAL      0.032533
     48 H262        8.3010    2.6050   -0.1860 h1        1 FAL      0.032533
     49 H263        8.6940    3.2250    1.3290 h1        1 FAL      0.032533
     50 H271        7.8400    0.5080    3.1970 h1        1 FAL      0.032533
     51 H272        8.2390    2.1260    3.2590 h1        1 FAL      0.032533
     52 H273        9.4010    0.9970    2.7630 h1        1 FAL      0.032533
     53 H28         6.5890   -0.8680    0.1010 ho        1 FAL      0.418000
@<TRIPOS>BOND
     1    1   20 1   
     2    1   25 1   
     3    1   31 1   
     4    1   32 1   
     5    2    4 3   
     6    3    6 3   
     7    3   33 1   
     8    4   22 1   
     9    5    7 3   
    10    5   21 1   
    11    6   34 1   
    12    8   12 3   
    13    8   35 1   
    14    9   10 3   
    15    9   36 1   
    16   10   23 1   
    17   11   15 3   
    18   11   21 1   
    19   12   24 1   
    20   13   17 3   
    21   13   37 1   
    22   14   16 3   
    23   14   38 1   
    24   15   39 1   
    25   16   22 1   
    26   17   20 1   
    27   18   19 3   
    28   18   40 1   
    29   19   41 1   
    30   21   42 1   
    31   22   43 1   
    32   25   26 1   
    33   25   30 1   
    34   25   44 1   
    35   26   27 1   
    36   26   45 1   
    37   26   46 1   
    38   27   28 1   
    39   27   29 1   
    40   28   47 1   
    41   28   48 1   
    42   28   49 1   
    43   29   50 1   
    44   29   51 1   
    45   29   52 1   
    46   30   53 1   
@<TRIPOS>SUBSTRUCTURE
     1 FAL         1 TEMP              0 ****  ****    0 ROOT
