@<TRIPOS>MOLECULE
FAL
   53    55     1     0     0
SMALL
bcc


@<TRIPOS>ATOM
      1 C22        -0.1060   -1.4570    5.7030 c3        1 FAL      0.094400
      2 N1          1.7460    1.5160   -0.6910 nb        1 FAL     -0.751000
      3 C2          2.6860    1.8830   -1.5760 ca        1 FAL      0.481200
      4 C6          0.6130    0.9180   -1.2260 ca        1 FAL      0.893900
      5 C4          1.3870    1.0670   -3.4330 ca        1 FAL      0.707200
      6 C3          2.5820    1.6950   -2.9580 ca        1 FAL     -0.457600
      7 N5          0.4100    0.6550   -2.5720 nb        1 FAL     -0.800000
      8 C11        -1.9120   -1.2200   -6.6930 ca        1 FAL     -0.133000
      9 C10        -0.5880   -1.5200   -6.9920 ca        1 FAL     -0.099000
     10 C9          0.4520   -0.8420   -6.3540 ca        1 FAL     -0.029600
     11 C8          0.1820    0.1730   -5.4010 ca        1 FAL      0.158600
     12 C12        -2.1900   -0.2220   -5.7530 ca        1 FAL      0.030400
     13 C17         0.2970    1.1880    3.2260 ca        1 FAL     -0.171000
     14 C16         0.1720    1.4040    1.8620 ca        1 FAL     -0.097500
     15 C13        -1.1660    0.4770   -5.1150 ca        1 FAL     -0.106000
     16 C15        -0.2620    0.3640    1.0100 ca        1 FAL      0.088600
     17 C18        -0.0210   -0.0700    3.7680 ca        1 FAL      0.121100
     18 C19        -0.4590   -1.1080    2.9410 ca        1 FAL     -0.171000
     19 C20        -0.5710   -0.8920    1.5700 ca        1 FAL     -0.097500
     20 O21         0.1250   -0.1630    5.1400 os        1 FAL     -0.329900
     21 N7          1.2290    0.9150   -4.8210 nh        1 FAL     -0.726300
     22 CL30       -3.8060    0.1550   -5.3870 cl        1 FAL     -0.084400
     23 C23         0.2400   -1.3370    7.1960 c3        1 FAL      0.140100
     24 C24        -0.8060   -0.4550    7.8930 c3        1 FAL      0.134800
     25 N25        -0.7480   -0.4620    9.3470 n3        1 FAL     -0.739600
     26 C26         0.5810   -0.2850    9.8840 c3        1 FAL      0.152100
     27 C27        -1.7170    0.4450    9.9230 c3        1 FAL      0.152100
     28 O28         0.3500   -2.6400    7.7330 oh        1 FAL     -0.589800
     29 H221        0.5630   -2.2170    5.2210 h1        1 FAL      0.049200
     30 H222       -1.1790   -1.7480    5.5560 h1        1 FAL      0.049200
     31 H2          3.5840    2.3570   -1.1370 h4        1 FAL      0.028100
     32 H3          3.3760    2.0210   -3.6360 ha        1 FAL      0.155000
     33 H11        -2.7290   -1.7620   -7.1920 ha        1 FAL      0.154000
     34 H10        -0.3590   -2.3030   -7.7330 ha        1 FAL      0.154000
     35 H17         0.6400    1.9930    3.8930 ha        1 FAL      0.145500
     36 H16         0.4190    2.3960    1.4500 ha        1 FAL      0.146000
     37 H13        -1.4130    1.2660   -4.3860 ha        1 FAL      0.174000
     38 H19        -0.7130   -2.0960    3.3510 ha        1 FAL      0.145500
     39 H20        -0.9130   -1.7200    0.9300 ha        1 FAL      0.146000
     40 H7          2.0960    0.8870   -5.3210 hn        1 FAL      0.440800
     41 H23         1.2700   -0.8920    7.3030 h1        1 FAL      0.086700
     42 H241       -1.8330   -0.8280    7.6110 h1        1 FAL      0.045700
     43 H242       -0.6900    0.5830    7.4630 h1        1 FAL      0.045700
     44 H261        0.5250   -0.2610   11.0040 h1        1 FAL      0.034700
     45 H262        1.2080   -1.1650    9.5770 h1        1 FAL      0.034700
     46 H263        1.0820    0.6580    9.5320 h1        1 FAL      0.034700
     47 H271       -2.7360    0.1910    9.5300 h1        1 FAL      0.034700
     48 H272       -1.7180    0.3090   11.0360 h1        1 FAL      0.034700
     49 H273       -1.5060    1.5250    9.6940 h1        1 FAL      0.034700
     50 H28        -0.5290   -2.9170    8.0190 ho        1 FAL      0.412000
     51 N14        -0.4680    0.5940   -0.3740 nh        1 FAL     -0.697300
     52 CL29        2.0570   -1.2540   -6.7530 cl        1 FAL     -0.094400
     53 H14        -1.1450   -0.0190   -0.7860 hn        1 FAL      0.434800
@<TRIPOS>BOND
     1    1   20 1   
     2    1   23 1   
     3    1   29 1   
     4    1   30 1   
     5    2    3 ar  
     6    2    4 ar  
     7    3    6 ar  
     8    3   31 1   
     9    4    7 ar  
    10    4   51 1   
    11    5    6 ar  
    12    5    7 ar  
    13    5   21 1   
    14    6   32 1   
    15    8    9 ar  
    16    8   12 ar  
    17    8   33 1   
    18    9   10 ar  
    19    9   34 1   
    20   10   11 ar  
    21   10   52 1   
    22   11   15 ar  
    23   11   21 1   
    24   12   15 ar  
    25   12   22 1   
    26   13   14 ar  
    27   13   17 ar  
    28   13   35 1   
    29   14   16 ar  
    30   14   36 1   
    31   15   37 1   
    32   16   19 ar  
    33   16   51 1   
    34   17   18 ar  
    35   17   20 1   
    36   18   19 ar  
    37   18   38 1   
    38   19   39 1   
    39   21   40 1   
    40   23   24 1   
    41   23   28 1   
    42   23   41 1   
    43   24   25 1   
    44   24   42 1   
    45   24   43 1   
    46   25   26 1   
    47   25   27 1   
    48   26   44 1   
    49   26   45 1   
    50   26   46 1   
    51   27   47 1   
    52   27   48 1   
    53   27   49 1   
    54   28   50 1   
    55   51   53 1   
@<TRIPOS>SUBSTRUCTURE
     1 FAL         1 TEMP              0 ****  ****    0 ROOT
