@<TRIPOS>MOLECULE
FAL
   54    53     1     0     0
SMALL
bcc


@<TRIPOS>ATOM
      1 C22        -0.6220   -0.0430    1.5310 c3        1 FAL     -0.101000
      2 N1         -6.4890   -3.4380   -1.9390 n8        1 FAL     -0.349000
      3 C2         -7.1860   -2.8600   -5.1330 c1        1 FAL      0.131000
      4 C6         -6.7790   -2.2030   -1.4300 c2        1 FAL      0.308000
      5 C4         -8.0540   -1.2640   -3.2350 c2        1 FAL      0.421000
      6 C3         -7.5950   -2.1190   -4.2100 c1        1 FAL     -0.755000
      7 N5         -7.5220   -1.2180   -1.9400 n2        1 FAL     -0.340000
      8 C11       -11.1230    2.4720   -1.1730 c2        1 FAL     -0.230000
      9 C10       -11.8150    1.8620   -2.2370 c1        1 FAL     -0.027000
     10 C9        -11.1620    0.8170   -3.0250 c3        1 FAL     -0.112000
     11 C8         -9.6820    0.5860   -2.7760 c2        1 FAL      0.054000
     12 C12        -9.7760    2.2750   -1.0150 c2        1 FAL      0.057000
     13 C17        -3.0880   -0.1000   -0.9520 c2        1 FAL      0.072000
     14 C16        -4.3030   -0.8100   -1.0390 c2        1 FAL     -0.305000
     15 C13        -9.0460    1.3250   -1.8160 c2        1 FAL     -0.196000
     16 C15        -5.1210   -1.1350    0.0330 c2        1 FAL      0.219000
     17 C18        -2.4820    0.3650    0.1240 c1        1 FAL      0.053000
     18 C19        -4.8910   -1.3720    2.4980 c2        1 FAL     -0.112000
     19 C20        -4.7970   -0.6460    1.3830 c2        1 FAL     -0.248000
     20 O21        -1.7800    0.7750    1.0800 os        1 FAL      0.048000
     21 N7         -9.0700   -0.3940   -3.5660 n7        1 FAL     -0.225000
     22 Cl30       -8.8800    3.1530    0.1240 cl        1 FAL      0.015000
     23 C23         0.4950    0.1250    0.5030 c3        1 FAL     -0.016000
     24 C24         1.7660   -0.5740    1.0070 c3        1 FAL     -0.158000
     25 N25         2.9180   -0.3530    0.1450 n7        1 FAL     -0.188000
     26 C26         5.1960    3.1510   -0.5210 c3        1 FAL     -0.276000
     27 C27         4.1160    0.0020    0.4920 c1        1 FAL     -0.118000
     28 O28         0.0410   -0.3680   -0.7440 oh        1 FAL     -0.340000
     29 H221       -0.9510   -1.1020    1.6510 h1        1 FAL      0.148000
     30 H222       -4.6520   -0.9470    3.4860 ha        1 FAL      0.145500
     31 H2         -5.9820   -4.1110   -1.4160 hn        1 FAL      0.273500
     32 H3         -6.8140   -3.6850   -2.8560 hn        1 FAL      0.273500
     33 H10       -11.7270   -0.1400   -2.7940 h1        1 FAL      0.187000
     34 H17        -2.5940    0.1980   -1.9150 ha        1 FAL      0.240000
     35 H16        -4.6000   -1.0890   -2.0690 ha        1 FAL      0.189000
     36 H13        -7.9670    1.2270   -1.6200 ha        1 FAL      0.165000
     37 H19        -5.2010   -2.4280    2.5130 ha        1 FAL      0.145500
     38 H20        -4.4990    0.4210    1.4110 ha        1 FAL      0.162000
     39 H7         -9.4240   -0.4880   -4.5050 hn        1 FAL      0.287000
     40 H23        -0.3800    0.4430    2.5130 h1        1 FAL      0.148000
     41 H241        1.5640   -1.6810    1.0770 h1        1 FAL      0.110500
     42 H242        0.6800    1.2260    0.3240 h1        1 FAL      0.159000
     43 H261        2.0020   -0.1940    2.0400 h1        1 FAL      0.110500
     44 H262        4.6250    3.4510   -1.4260 hc        1 FAL      0.069000
     45 H263        4.8540    3.7520    0.3490 hc        1 FAL      0.069000
     46 H271        5.0310    2.0670   -0.3170 hc        1 FAL      0.069000
     47 H272        6.2790    3.3330   -0.6920 hc        1 FAL      0.069000
     48 H273        4.3320    0.1830    1.5640 ha        1 FAL      0.065000
     49 H28         0.2980   -1.2970   -0.8240 ho        1 FAL      0.226000
     50 Cl29      -11.4460    1.1450   -4.7340 cl        1 FAL     -0.022000
     51 H251        2.7300   -0.5040   -0.8270 hn        1 FAL      0.246000
     52 N14        -6.2310   -1.9390   -0.0970 n7        1 FAL     -0.261000
     53 H11       -11.6850    3.1670   -0.5260 ha        1 FAL      0.181000
     54 H14        -6.9180   -1.8990    0.6330 hn        1 FAL      0.266000
@<TRIPOS>BOND
     1    1   20 1   
     2    1   23 1   
     3    1   29 1   
     4    1   40 1   
     5    2    4 1   
     6    2   31 1   
     7    2   32 1   
     8    3    6 1   
     9    4    7 1   
    10    4   52 1   
    11    5    6 1   
    12    5    7 1   
    13    5   21 1   
    14    8    9 1   
    15    8   12 1   
    16    8   53 1   
    17    9   10 1   
    18   10   11 1   
    19   10   33 1   
    20   10   50 1   
    21   11   15 1   
    22   11   21 1   
    23   12   15 1   
    24   12   22 1   
    25   13   14 1   
    26   13   17 1   
    27   13   34 1   
    28   14   16 1   
    29   14   35 1   
    30   15   36 1   
    31   16   19 1   
    32   16   52 1   
    33   17   20 1   
    34   18   19 1   
    35   18   30 1   
    36   18   37 1   
    37   19   38 1   
    38   21   39 1   
    39   23   24 1   
    40   23   28 1   
    41   23   42 1   
    42   24   25 1   
    43   24   41 1   
    44   24   43 1   
    45   25   27 1   
    46   25   51 1   
    47   26   44 1   
    48   26   45 1   
    49   26   46 1   
    50   26   47 1   
    51   27   48 1   
    52   28   49 1   
    53   52   54 1   
@<TRIPOS>SUBSTRUCTURE
     1 FAL         1 TEMP              0 ****  ****    0 ROOT
