@<TRIPOS>MOLECULE
FAL
   53    50     1     0     0
SMALL
bcc


@<TRIPOS>ATOM
      1 C22         0.3810   -0.5850   -2.3740 c2        1 FAL     -0.167000
      2 N1         -4.9360   -0.8170   -2.2150 n3        1 FAL     -0.369000
      3 C2         -6.1580   -2.6410   -4.7120 c1        1 FAL      0.025000
      4 C6         -6.0380   -0.0880   -1.8510 c2        1 FAL      0.353000
      5 C4         -7.7240   -1.3050   -3.0700 c2        1 FAL      0.430000
      6 C3         -6.8800   -2.0050   -3.9250 c1        1 FAL     -0.742000
      7 N5         -7.3460   -0.3830   -2.1320 n2        1 FAL     -0.391000
      8 C11       -10.8360   -0.3150    0.3600 c2        1 FAL     -0.467000
      9 C10       -11.4310   -0.1070    1.5180 c1        1 FAL      0.247000
     10 C9        -11.3240   -1.7130   -2.3400 c2        1 FAL     -0.236000
     11 C8        -10.1480   -1.0440   -2.4790 c2        1 FAL      0.075000
     12 C12       -10.3700    0.6150   -0.6380 c2        1 FAL      0.005000
     13 C17        -2.4210    0.9700   -1.2630 c1        1 FAL     -0.234000
     14 C16        -3.5090    1.8970   -1.1810 c3        1 FAL      0.006000
     15 C13       -10.0360    0.3040   -1.9050 c2        1 FAL     -0.102000
     16 C15        -4.6710    1.3620   -0.3750 c2        1 FAL     -0.047000
     17 C18        -1.4930    0.2180   -1.3150 c1        1 FAL     -0.025000
     18 C19        -3.4560    1.6260    1.7990 c3        1 FAL     -0.199000
     19 C20        -4.6180    1.2550    0.9730 c2        1 FAL     -0.138000
     20 O21        -0.5130   -0.6820   -1.2860 os        1 FAL     -0.066000
     21 N7         -9.0800   -1.5720   -3.2180 n3        1 FAL     -0.250000
     22 CL30      -10.2300    2.2440   -0.1250 cl        1 FAL     -0.028000
     23 C23         1.6590   -0.2210   -2.1460 c2        1 FAL      0.013000
     24 C24         0.0340   -0.0460    2.6220 c1        1 FAL     -0.191000
     25 N25         0.7870   -0.5000    1.6610 n3        1 FAL     -0.190000
     26 C26         4.6060    0.0350    0.0110 c1        1 FAL     -0.050000
     27 C27         2.0460   -1.1430    1.9380 c3        1 FAL     -0.080000
     28 O28         2.0390    0.2100   -0.9130 oh        1 FAL     -0.316000
     29 H221       -3.6350    2.6240    2.2760 hc        1 FAL      0.098000
     30 H222       -3.3080    0.8720    2.6140 hc        1 FAL      0.098000
     31 H2         -4.0200   -0.5390   -1.9480 hn        1 FAL      0.268500
     32 H3         -5.0330   -1.5610   -2.8780 hn        1 FAL      0.268500
     33 H11       -10.6610   -1.3910    0.1060 ha        1 FAL      0.215000
     34 H10       -12.1810   -1.2680   -1.8190 h4        1 FAL      0.170000
     35 H17        -3.1580    2.8490   -0.6870 hc        1 FAL      0.117000
     36 H16        -3.8350    2.1710   -2.2260 hc        1 FAL      0.117000
     37 H13        -9.6450    1.0760   -2.5920 ha        1 FAL      0.169000
     38 H19        -2.5100    1.6830    1.2040 hc        1 FAL      0.098000
     39 H20        -5.4900    0.8880    1.5440 ha        1 FAL      0.133000
     40 H7         -9.2990   -2.3010   -3.8700 hn        1 FAL      0.268000
     41 H23        -0.0380   -0.8850   -3.3390 h4        1 FAL      0.163000
     42 H241       -0.9160    0.4300    2.2900 ha        1 FAL      0.032000
     43 H242        2.4230   -0.2680   -2.9380 h4        1 FAL      0.138000
     44 H261        4.9630    0.8730    0.6240 ha        1 FAL      0.047500
     45 H262        0.5830   -0.4370    0.6760 hn        1 FAL      0.196000
     46 H263        5.1770   -0.8900    0.1620 ha        1 FAL      0.047500
     47 H271        2.2740   -1.0940    3.0350 h1        1 FAL      0.079667
     48 H272        2.8650   -0.6250    1.3610 h1        1 FAL      0.079667
     49 H273        2.0070   -2.2160    1.6110 h1        1 FAL      0.079667
     50 H28         3.0380    0.1960   -0.8470 ho        1 FAL      0.279000
     51 N14        -5.8670    1.0910   -1.0940 n3        1 FAL     -0.267000
     52 CL29      -11.6370   -3.2450   -2.9710 cl        1 FAL     -0.011000
     53 H14        -6.7010    1.4540   -0.6740 hn        1 FAL      0.251000
@<TRIPOS>BOND
     1    1   20 1   
     2    1   23 1   
     3    1   41 1   
     4    2    4 1   
     5    2   31 1   
     6    2   32 1   
     7    3    6 1   
     8    4    7 1   
     9    4   51 1   
    10    5    6 1   
    11    5    7 1   
    12    5   21 1   
    13    8    9 1   
    14    8   12 1   
    15    8   33 1   
    16   10   11 1   
    17   10   34 1   
    18   10   52 1   
    19   11   15 1   
    20   11   21 1   
    21   12   15 1   
    22   12   22 1   
    23   13   14 1   
    24   13   17 1   
    25   14   16 1   
    26   14   35 1   
    27   14   36 1   
    28   15   37 1   
    29   16   19 1   
    30   16   51 1   
    31   17   20 1   
    32   18   19 1   
    33   18   29 1   
    34   18   30 1   
    35   18   38 1   
    36   19   39 1   
    37   21   40 1   
    38   23   28 1   
    39   23   43 1   
    40   24   25 1   
    41   24   42 1   
    42   25   27 1   
    43   25   45 1   
    44   26   44 1   
    45   26   46 1   
    46   27   47 1   
    47   27   48 1   
    48   27   49 1   
    49   28   50 1   
    50   51   53 1   
@<TRIPOS>SUBSTRUCTURE
     1 FAL         1 TEMP              0 ****  ****    0 ROOT
