@<TRIPOS>MOLECULE
FAN
   16    12     1     0     0
SMALL
bcc


@<TRIPOS>ATOM
      1 C1         -1.6380    0.0540   -1.2330 c1        1 FAN     -0.129750
      2 C2         -0.2530    0.0810   -1.2720 c1        1 FAN     -0.184000
      3 C3          0.4710    0.2550   -0.1030 c1        1 FAN      0.067000
      4 C4         -0.1910    0.4000    1.1060 c1        1 FAN     -0.129750
      5 C5         -1.5760    0.3730    1.1460 c1        1 FAN     -0.129750
      6 C6         -2.3000    0.1990   -0.0240 c1        1 FAN     -0.129750
      7 C7          2.6060   -0.8990    0.2830 c1        1 FAN      0.267000
      8 N1          1.8890    0.2500   -0.1390 n2        1 FAN     -0.336000
      9 O1          2.0040   -1.8810    0.6760 o         1 FAN     -0.345000
     10 H1         -2.1480   -0.0680   -2.0560 ha        1 FAN      0.142750
     11 H2          0.2130   -0.0210   -2.1240 ha        1 FAN      0.127000
     12 H4          0.3180    0.5220    1.9300 ha        1 FAN      0.142750
     13 H5         -2.0420    0.4750    1.9970 ha        1 FAN      0.142750
     14 H6         -3.2750    0.1800    0.0040 ha        1 FAN      0.142750
     15 H7          3.5830   -0.9050    0.2490 ha        1 FAN      0.122000
     16 HN1         2.3400    0.9840   -0.4410 hn        1 FAN      0.229000
@<TRIPOS>BOND
     1    1    6 1   
     2    1   10 1   
     3    2    3 1   
     4    2   11 1   
     5    3    8 1   
     6    4    5 1   
     7    4   12 1   
     8    5   13 1   
     9    6   14 1   
    10    7    9 1   
    11    7   15 1   
    12    8   16 1   
@<TRIPOS>SUBSTRUCTURE
     1 FAN         1 TEMP              0 ****  ****    0 ROOT
