@<TRIPOS>MOLECULE
FAN
   17    17     1     0     0
SMALL
bcc


@<TRIPOS>ATOM
      1 C1          0.1320    0.2420   -0.0400 ca        1 FAN     -0.099000
      2 C2          1.5150    0.1360    0.0870 ca        1 FAN     -0.102000
      3 C3          2.0650   -0.1420    1.3520 ca        1 FAN     -0.072400
      4 C4          1.2370   -0.3190    2.4750 ca        1 FAN     -0.102000
      5 C5         -0.1430   -0.2080    2.3210 ca        1 FAN     -0.099000
      6 C6         -0.6970    0.0720    1.0710 ca        1 FAN     -0.064000
      7 C7          4.1360    1.0590    1.8980 c         1 FAN      0.554900
      8 N1          3.5180   -0.2650    1.5000 n4        1 FAN     -0.563200
      9 O1          4.8730    1.0590    2.8610 o         1 FAN     -0.374100
     10 H1         -0.3060    0.4590   -1.0300 ha        1 FAN      0.176500
     11 H2          2.1520    0.2630   -0.8030 ha        1 FAN      0.158500
     12 H4          1.6550   -0.5470    3.4700 ha        1 FAN      0.158500
     13 H5         -0.7990   -0.3470    3.1990 ha        1 FAN      0.176500
     14 H6         -1.7920    0.1560    0.9590 ha        1 FAN      0.176000
     15 H7          3.8140    1.8960    1.2400 hx        1 FAN      0.142200
     16 HN1         3.7270   -0.9840    2.2090 hn        1 FAN      0.466800
     17 H12         3.9230   -0.5680    0.6050 hn        1 FAN      0.466800
@<TRIPOS>BOND
     1    1    2 ar  
     2    1    6 ar  
     3    1   10 1   
     4    2    3 ar  
     5    2   11 1   
     6    3    4 ar  
     7    3    8 1   
     8    4    5 ar  
     9    4   12 1   
    10    5    6 ar  
    11    5   13 1   
    12    6   14 1   
    13    7    8 1   
    14    7    9 2   
    15    7   15 1   
    16    8   16 1   
    17    8   17 1   
@<TRIPOS>SUBSTRUCTURE
     1 FAN         1 TEMP              0 ****  ****    0 ROOT
