@<TRIPOS>MOLECULE
FAN
   16    16     1     0     0
SMALL
bcc


@<TRIPOS>ATOM
      1 C1         -0.0080   -0.2030   -0.0220 ca        1 FAN     -0.104000
      2 C2          1.3790   -0.1170    0.0120 ca        1 FAN     -0.169500
      3 C3          2.0510    0.1250    1.2350 ca        1 FAN      0.059600
      4 C4          1.2840    0.2760    2.4100 ca        1 FAN     -0.169500
      5 C5         -0.1040    0.1860    2.3510 ca        1 FAN     -0.104000
      6 C6         -0.7570   -0.0530    1.1440 ca        1 FAN     -0.156000
      7 C7          4.2980    0.4330    2.2950 c         1 FAN      0.665900
      8 N1          3.4550    0.2050    1.2260 n         1 FAN     -0.482100
      9 O1          3.9420    0.6090    3.4690 o         1 FAN     -0.584100
     10 H1         -0.5140   -0.3920   -0.9800 ha        1 FAN      0.133000
     11 H2          1.9470   -0.2400   -0.9230 ha        1 FAN      0.149500
     12 H4          1.7730    0.4660    3.3800 ha        1 FAN      0.149500
     13 H5         -0.6880    0.3060    3.2770 ha        1 FAN      0.133000
     14 H6         -1.8530   -0.1220    1.1100 ha        1 FAN      0.133000
     15 H7          5.3730    0.4440    1.9890 h5        1 FAN      0.029200
     16 HN1         3.8790    0.0800    0.3340 hn        1 FAN      0.315500
@<TRIPOS>BOND
     1    1    2 ar  
     2    1    6 ar  
     3    1   10 1   
     4    2    3 ar  
     5    2   11 1   
     6    3    4 ar  
     7    3    8 1   
     8    4    5 ar  
     9    4   12 1   
    10    5    6 ar  
    11    5   13 1   
    12    6   14 1   
    13    7    8 1   
    14    7    9 2   
    15    7   15 1   
    16    8   16 1   
@<TRIPOS>SUBSTRUCTURE
     1 FAN         1 TEMP              0 ****  ****    0 ROOT
