@<TRIPOS>MOLECULE
FAN
   16    16     1     0     0
SMALL
bcc


@<TRIPOS>ATOM
      1 C1          0.8770   -0.1110    2.2400 ca        1 FAN     -0.104000
      2 C2          1.3210   -0.0610    0.9240 ca        1 FAN     -0.169500
      3 C3          0.3930    0.0580   -0.1400 ca        1 FAN      0.059600
      4 C4         -0.9830    0.1240    0.1670 ca        1 FAN     -0.169500
      5 C5         -1.4030    0.0710    1.4930 ca        1 FAN     -0.104000
      6 C6         -0.4840   -0.0460    2.5330 ca        1 FAN     -0.156000
      7 C7          0.1610    0.2190   -2.6270 c         1 FAN      0.665900
      8 N1          0.8840    0.1060   -1.4570 n         1 FAN     -0.482100
      9 O1         -1.0730    0.2990   -2.7070 o         1 FAN     -0.584100
     10 H1          1.6110   -0.2040    3.0550 ha        1 FAN      0.133000
     11 H2          2.4010   -0.1140    0.7200 ha        1 FAN      0.149500
     12 H4         -1.7340    0.2160   -0.6350 ha        1 FAN      0.149500
     13 H5         -2.4800    0.1230    1.7150 ha        1 FAN      0.133000
     14 H6         -0.8280   -0.0870    3.5760 ha        1 FAN      0.133000
     15 H7          0.8190    0.2320   -3.5300 h5        1 FAN      0.029200
     16 HN1         1.8750    0.0510   -1.5400 hn        1 FAN      0.315500
@<TRIPOS>BOND
     1    1    2 ar  
     2    1    6 ar  
     3    1   10 1   
     4    2    3 ar  
     5    2   11 1   
     6    3    4 ar  
     7    3    8 1   
     8    4    5 ar  
     9    4   12 1   
    10    5    6 ar  
    11    5   13 1   
    12    6   14 1   
    13    7    8 1   
    14    7    9 2   
    15    7   15 1   
    16    8   16 1   
@<TRIPOS>SUBSTRUCTURE
     1 FAN         1 TEMP              0 ****  ****    0 ROOT
