@<TRIPOS>MOLECULE
FAP
   54    55     1     0     0
SMALL
bcc


@<TRIPOS>ATOM
      1 C22         0.2540   -0.4130    0.0680 c3        1 FAP     -0.178000
      2 C1          5.8020    1.3080   -0.3040 c2        1 FAP      0.035000
      3 C5          3.7800    0.4980   -1.0610 c2        1 FAP      0.174000
      4 C4          4.3570    0.3160   -2.3510 c2        1 FAP     -0.322000
      5 C3          5.7280    0.6590   -2.5230 c2        1 FAP      0.191000
      6 C17         1.6030    0.2680    0.1860 c2        1 FAP      0.130000
      7 C18         1.8930    0.9810    1.3420 c2        1 FAP     -0.264000
      8 C19         0.9670    1.0650    2.4020 c2        1 FAP      0.050000
      9 C20        -0.2660    0.4350    2.3040 c2        1 FAP     -0.110000
     10 N2          6.4600    1.1800   -1.4730 n2        1 FAP     -0.225000
     11 N6          4.5110    1.0010   -0.0190 n2        1 FAP     -0.241000
     12 N7          6.4020    0.4350   -3.7280 nh        1 FAP     -0.235000
     13 N16         2.4310    0.1250   -0.9030 nh        1 FAP     -0.246000
     14 C21        -0.6640   -0.2890    1.1850 c1        1 FAP     -0.211000
     15 O23        -1.1170    0.5730    3.4090 os        1 FAP     -0.242000
     16 C24        -2.3310   -0.1650    3.2560 c3        1 FAP     -0.031000
     17 C11         3.7840   -1.2570   -7.5240 c1        1 FAP     -0.107000
     18 C10         6.3540    1.0430   -7.2260 c2        1 FAP     -0.214000
     19 C9          5.9030    1.2960   -5.9840 c2        1 FAP      0.050000
     20 C8          5.7310    0.2380   -4.9500 c2        1 FAP     -0.022000
     21 C12         4.3660   -1.0840   -6.4920 c1        1 FAP     -0.193000
     22 C13         5.0360   -0.9080   -5.2560 c2        1 FAP      0.190000
     23 F15         4.9200   -1.9320   -4.3740 f         1 FAP     -0.083000
     24 C25        -3.1310    0.1490    4.5250 c3        1 FAP      0.008000
     25 C26        -4.4970   -0.5560    4.4210 c3        1 FAP     -0.137000
     26 N27        -5.4590   -0.1150    5.4850 n4        1 FAP      0.004000
     27 C28        -6.8530   -0.4580    5.1080 c3        1 FAP     -0.192500
     28 C29        -5.1100   -0.6930    6.8070 c3        1 FAP     -0.192500
     29 O30        -3.3910    1.5350    4.6720 oh        1 FAP     -0.371000
     30 H22        -0.2910   -0.0220   -0.8430 hc        1 FAP      0.165000
     31 H4          3.7740   -0.0850   -3.1890 ha        1 FAP      0.159000
     32 H18         2.8510    1.5070    1.4820 ha        1 FAP      0.185000
     33 H19         1.2410    1.6420    3.3010 ha        1 FAP      0.150000
     34 H7          7.2950    0.8820   -3.8210 hn        1 FAP      0.255000
     35 H16         2.0490   -0.3600   -1.6900 hn        1 FAP      0.247000
     36 H21         0.4100   -1.5220   -0.0980 hc        1 FAP      0.165000
     37 H241       -2.8690    0.1770    2.3330 h1        1 FAP      0.112500
     38 H242       -2.1070   -1.2600    3.1790 h1        1 FAP      0.112500
     39 H11         3.2740   -1.4040   -8.4440 ha        1 FAP      0.239000
     40 H10         6.4850    1.8390   -7.9700 ha        1 FAP      0.146000
     41 H12         6.6050    0.0240   -7.5450 ha        1 FAP      0.146000
     42 H25        -2.5660   -0.2050    5.4330 h1        1 FAP      0.110000
     43 H261       -4.3500   -1.6690    4.5010 hx        1 FAP      0.148000
     44 H262       -4.9590   -0.3120    3.4220 hx        1 FAP      0.148000
     45 H281       -6.9410   -1.5670    4.9620 hx        1 FAP      0.143000
     46 H282       -7.5490   -0.1300    5.9260 hx        1 FAP      0.143000
     47 H283       -7.1230    0.0700    4.1540 hx        1 FAP      0.143000
     48 H291       -5.8190   -0.2980    7.5830 hx        1 FAP      0.143000
     49 H292       -4.0600   -0.3950    7.0730 hx        1 FAP      0.143000
     50 H293       -5.1870   -1.8120    6.7640 hx        1 FAP      0.143000
     51 H30        -2.6270    2.0190    4.3210 ho        1 FAP      0.268000
     52 F14         5.6080    2.5580   -5.5740 f         1 FAP     -0.103000
     53 H271       -5.3770    0.9150    5.5520 hn        1 FAP      0.272000
     54 H1L         6.3940    1.7220    0.5420 h5        1 FAP      0.201000
@<TRIPOS>BOND
     1    1    6 1   
     2    1   14 1   
     3    1   30 1   
     4    1   36 1   
     5    2   10 1   
     6    2   11 1   
     7    2   54 1   
     8    3    4 1   
     9    3   11 1   
    10    3   13 1   
    11    4    5 1   
    12    4   31 1   
    13    5   10 1   
    14    5   12 1   
    15    6    7 1   
    16    6   13 1   
    17    7    8 1   
    18    7   32 1   
    19    8    9 1   
    20    8   33 1   
    21    9   14 1   
    22    9   15 1   
    23   12   20 1   
    24   12   34 1   
    25   13   35 1   
    26   15   16 1   
    27   16   24 1   
    28   16   37 1   
    29   16   38 1   
    30   17   21 1   
    31   17   39 1   
    32   18   19 1   
    33   18   40 1   
    34   18   41 1   
    35   19   20 1   
    36   19   52 1   
    37   20   22 1   
    38   21   22 1   
    39   22   23 1   
    40   24   25 1   
    41   24   29 1   
    42   24   42 1   
    43   25   26 1   
    44   25   43 1   
    45   25   44 1   
    46   26   27 1   
    47   26   28 1   
    48   26   53 1   
    49   27   45 1   
    50   27   46 1   
    51   27   47 1   
    52   28   48 1   
    53   28   49 1   
    54   28   50 1   
    55   29   51 1   
@<TRIPOS>SUBSTRUCTURE
     1 FAP         1 TEMP              0 ****  ****    0 ROOT
