@<TRIPOS>MOLECULE
FAP
   53    54     1     0     0
SMALL
bcc


@<TRIPOS>ATOM
      1 C22        -0.2660    1.0590   -0.3820 c3        1 FAP     -0.185000
      2 C1          5.4770    1.4360   -0.1140 c1        1 FAP     -0.014000
      3 C5          3.4090    0.8070   -1.1970 c2        1 FAP      0.194000
      4 C4          4.1550    0.4800   -2.3480 c2        1 FAP     -0.359000
      5 C3          5.5840    0.6500   -2.3130 c2        1 FAP      0.232000
      6 C17         1.1540    0.6040   -0.1520 c2        1 FAP      0.053000
      7 C18         1.5100    0.1140    1.0830 c2        1 FAP     -0.239000
      8 C19         0.5830    0.0920    2.1660 c2        1 FAP     -0.030000
      9 C20        -0.7030    0.5590    1.9940 c2        1 FAP     -0.044000
     10 N2          6.2080    1.1440   -1.1940 n2        1 FAP     -0.283000
     11 N6          4.0990    1.2800   -0.0860 n3        1 FAP     -0.224000
     12 N7          6.3760    0.2950   -3.4010 n3        1 FAP     -0.250000
     13 N16         2.0140    0.7030   -1.2400 n3        1 FAP     -0.292000
     14 C21        -1.1840    0.9940    0.7380 c1        1 FAP     -0.130000
     15 O23        -1.5240    0.5290    3.1080 os        1 FAP     -0.222000
     16 C24        -2.8280    1.0930    2.8820 c3        1 FAP     -0.007000
     17 C11         4.1510   -1.7810   -7.2540 c1        1 FAP     -0.125000
     18 C10         6.9270    0.2770   -6.8980 c2        1 FAP     -0.227000
     19 C9          6.3150    0.7800   -5.8110 c2        1 FAP      0.061000
     20 C8          5.8800   -0.0650   -4.6630 c2        1 FAP     -0.006000
     21 C12         4.6080   -1.4980   -6.1840 c1        1 FAP     -0.180000
     22 C13         5.1200   -1.1870   -4.9000 c2        1 FAP      0.171000
     23 F15         4.7800   -2.0460   -3.9060 f         1 FAP     -0.081000
     24 C25        -3.5410    1.0120    4.2380 c3        1 FAP      0.028000
     25 C26        -4.2250   -0.3610    4.3860 c3        1 FAP     -0.106000
     26 N27        -4.7940   -0.5690    5.7100 n3        1 FAP     -0.277000
     27 C28        -5.9660   -1.4150    5.6960 c3        1 FAP     -0.118500
     28 C29        -3.8170   -0.9850    6.6910 c3        1 FAP     -0.118500
     29 O30        -4.4870    2.0690    4.2330 oh        1 FAP     -0.331000
     30 H22        -0.2670    2.1380   -0.7290 hc        1 FAP      0.168500
     31 H1L         3.6120    1.5320    0.7470 hn        1 FAP      0.259000
     32 H4          3.6590    0.0960   -3.2470 ha        1 FAP      0.153000
     33 H18         2.5070   -0.3070    1.2850 ha        1 FAP      0.151000
     34 H19         0.9170   -0.3140    3.1340 ha        1 FAP      0.154000
     35 H7          7.3250    0.6150   -3.3930 hn        1 FAP      0.261000
     36 H16         1.6070    0.6410   -2.1480 hn        1 FAP      0.252000
     37 H21        -0.7350    0.4560   -1.2170 hc        1 FAP      0.168500
     38 H241       -3.3580    0.5040    2.0920 h1        1 FAP      0.105000
     39 H242       -2.7280    2.1580    2.5510 h1        1 FAP      0.105000
     40 H11         3.7520   -2.0260   -8.2070 ha        1 FAP      0.235000
     41 H10         7.2500    0.9150   -7.7300 ha        1 FAP      0.142500
     42 H12         7.1210   -0.7970   -6.9960 ha        1 FAP      0.142500
     43 H25        -2.7960    1.1780    5.0670 h1        1 FAP      0.091000
     44 H261       -3.4590   -1.1490    4.1280 h1        1 FAP      0.087500
     45 H262       -5.0490   -0.4130    3.6190 h1        1 FAP      0.087500
     46 H281       -6.7400   -0.9580    5.0250 h1        1 FAP      0.071833
     47 H282       -5.7550   -2.4600    5.3380 h1        1 FAP      0.071833
     48 H283       -6.3830   -1.4740    6.7350 h1        1 FAP      0.071833
     49 H291       -3.4080   -2.0150    6.4980 h1        1 FAP      0.071833
     50 H292       -4.2950   -0.9760    7.7050 h1        1 FAP      0.071833
     51 H293       -2.9610   -0.2600    6.6890 h1        1 FAP      0.071833
     52 H30        -5.0050    1.9840    5.0430 ho        1 FAP      0.218000
     53 F14         6.0850    2.1110   -5.6720 f         1 FAP     -0.101000
@<TRIPOS>BOND
     1    1    6 1   
     2    1   14 1   
     3    1   30 1   
     4    1   37 1   
     5    2   10 1   
     6    2   11 1   
     7    3    4 1   
     8    3   11 1   
     9    3   13 1   
    10    4    5 1   
    11    4   32 1   
    12    5   10 1   
    13    5   12 1   
    14    6    7 1   
    15    6   13 1   
    16    7    8 1   
    17    7   33 1   
    18    8    9 1   
    19    8   34 1   
    20    9   14 1   
    21    9   15 1   
    22   11   31 1   
    23   12   20 1   
    24   12   35 1   
    25   13   36 1   
    26   15   16 1   
    27   16   24 1   
    28   16   38 1   
    29   16   39 1   
    30   17   21 1   
    31   17   40 1   
    32   18   19 1   
    33   18   41 1   
    34   18   42 1   
    35   19   20 1   
    36   19   53 1   
    37   20   22 1   
    38   21   22 1   
    39   22   23 1   
    40   24   25 1   
    41   24   29 1   
    42   24   43 1   
    43   25   26 1   
    44   25   44 1   
    45   25   45 1   
    46   26   27 1   
    47   26   28 1   
    48   27   46 1   
    49   27   47 1   
    50   27   48 1   
    51   28   49 1   
    52   28   50 1   
    53   28   51 1   
    54   29   52 1   
@<TRIPOS>SUBSTRUCTURE
     1 FAP         1 TEMP              0 ****  ****    0 ROOT
