@<TRIPOS>MOLECULE
FAP
   53    46     1     0     0
SMALL
bcc


@<TRIPOS>ATOM
      1 C22        -0.6260   -1.5120   -0.5020 c1        1 FAP     -0.148000
      2 C1          2.0730    1.8080   -2.6920 c1        1 FAP      0.411300
      3 C5          1.9790   -0.5240   -2.4280 c1        1 FAP      0.149800
      4 C4          2.5350   -0.6760   -3.6700 c1        1 FAP     -0.148000
      5 C3          2.8550    0.4260   -4.4150 c1        1 FAP      0.547600
      6 C17         0.7630   -1.5030   -0.4900 c1        1 FAP      0.149800
      7 C18         1.4450   -1.4700    0.7180 c1        1 FAP     -0.077750
      8 C19         0.7410   -1.4460    1.9130 c1        1 FAP     -0.077750
      9 C20        -0.6540   -1.4550    1.9000 c1        1 FAP      0.101600
     10 N2          2.6260    1.6560   -3.9280 n1        1 FAP     -0.559800
     11 N6          1.7510    0.7060   -1.9440 n1        1 FAP     -0.562800
     12 N7          3.8650    0.7500   -5.3810 n3        1 FAP     -0.539400
     13 N16         1.4900   -1.6740   -1.7170 n3        1 FAP     -0.554400
     14 C21        -1.3330   -1.4880    0.6980 c1        1 FAP     -0.132500
     15 O23        -1.0930   -1.7520    3.2290 os        1 FAP     -0.319400
     16 C24        -2.2030   -0.9590    3.6660 c3        1 FAP      0.125400
     17 C11         2.9930    2.7190   -9.0080 c1        1 FAP     -0.077750
     18 C10         3.1960    3.4560   -7.8510 c1        1 FAP     -0.110500
     19 C9          3.4510    2.8070   -6.6480 c1        1 FAP      0.080100
     20 C8          3.5030    1.4190   -6.6050 c1        1 FAP      0.028800
     21 C12         3.0440    1.3320   -8.9670 c1        1 FAP     -0.077750
     22 C13         3.3000    0.6810   -7.7650 c1        1 FAP      0.148100
     23 F14         3.7510    3.5180   -5.5570 f         1 FAP     -0.109100
     24 F15         3.4600   -0.6490   -7.7460 f         1 FAP     -0.083100
     25 C25        -2.3770   -1.1140    5.1770 c3        1 FAP      0.144100
     26 C26        -3.6140   -0.3550    5.6250 c3        1 FAP      0.129800
     27 N27        -3.6840   -0.3550    7.0750 n3        1 FAP     -0.751600
     28 C28        -3.9370    0.9940    7.5460 c3        1 FAP      0.157100
     29 C29        -4.7590   -1.2300    7.5100 c3        1 FAP      0.157100
     30 O30        -1.2550   -0.6000    5.8280 oh        1 FAP     -0.605800
     31 H22        -1.1070   -1.5350   -1.3540 ha        1 FAP      0.096000
     32 H1L         1.9070    2.7010   -2.3400 ha        1 FAP      0.134500
     33 H4          2.7020   -1.5710   -4.0240 ha        1 FAP      0.096000
     34 H18         2.4220   -1.4640    0.7270 ha        1 FAP      0.087750
     35 H19         1.2220   -1.4230    2.7630 ha        1 FAP      0.087750
     36 H7          4.7310    0.5490   -5.2150 hn        1 FAP      0.428800
     37 H16         1.6610   -2.5110   -2.0330 hn        1 FAP      0.425800
     38 H21        -2.3140   -1.4940    0.6890 ha        1 FAP      0.086500
     39 H241       -2.0370   -0.0150    3.4510 h1        1 FAP      0.055700
     40 H242       -3.0220   -1.2610    3.2090 h1        1 FAP      0.055700
     41 H11         2.8130    3.1760   -9.8540 ha        1 FAP      0.087750
     42 H10         3.1600    4.4310   -7.8810 ha        1 FAP      0.096500
     43 H12         2.9010    0.8120   -9.7840 ha        1 FAP      0.087750
     44 H25        -2.4770   -2.0600    5.3990 h1        1 FAP      0.055700
     45 H261       -3.5660    0.5670    5.3010 h1        1 FAP      0.050200
     46 H262       -4.4090   -0.7860    5.2620 h1        1 FAP      0.050200
     47 H281       -4.7510    1.3430    7.1190 h1        1 FAP      0.033533
     48 H282       -4.0590    0.9840    8.5260 h1        1 FAP      0.033533
     49 H283       -3.1710    1.5730    7.3160 h1        1 FAP      0.033533
     50 H291       -4.7710   -1.2720    8.4960 h1        1 FAP      0.033533
     51 H292       -5.6210   -0.8770    7.1860 h1        1 FAP      0.033533
     52 H293       -4.6150   -2.1380    7.1430 h1        1 FAP      0.033533
     53 H30        -0.8840   -1.2360    6.3250 ho        1 FAP      0.423000
@<TRIPOS>BOND
     1    1    6 3   
     2    1   31 1   
     3    2   11 3   
     4    2   32 1   
     5    3    4 3   
     6    3   13 1   
     7    4   33 1   
     8    5   10 3   
     9    5   12 1   
    10    6   13 1   
    11    7    8 3   
    12    7   34 1   
    13    8   35 1   
    14    9   14 3   
    15    9   15 1   
    16   12   20 1   
    17   12   36 1   
    18   13   37 1   
    19   14   38 1   
    20   15   16 1   
    21   16   25 1   
    22   16   39 1   
    23   16   40 1   
    24   17   21 3   
    25   17   41 1   
    26   18   19 3   
    27   18   42 1   
    28   19   23 1   
    29   20   22 3   
    30   21   43 1   
    31   22   24 1   
    32   25   26 1   
    33   25   30 1   
    34   25   44 1   
    35   26   27 1   
    36   26   45 1   
    37   26   46 1   
    38   27   28 1   
    39   27   29 1   
    40   28   47 1   
    41   28   48 1   
    42   28   49 1   
    43   29   50 1   
    44   29   51 1   
    45   29   52 1   
    46   30   53 1   
@<TRIPOS>SUBSTRUCTURE
     1 FAP         1 TEMP              0 ****  ****    0 ROOT
