@<TRIPOS>MOLECULE
FAP
   54    55     1     0     0
SMALL
bcc


@<TRIPOS>ATOM
      1 C22        -0.3950    1.1990   -0.3970 c3        1 FAP     -0.156000
      2 C1          5.2260    2.4930   -0.6000 c2        1 FAP      0.043000
      3 C5          3.2820    1.5300   -1.3570 c2        1 FAP      0.097000
      4 C4          3.9860    0.8780   -2.3860 c2        1 FAP     -0.273000
      5 C3          5.4080    1.0970   -2.4450 c2        1 FAP      0.207000
      6 C17         1.1030    1.1870   -0.2200 c2        1 FAP      0.243000
      7 C18         1.6420    0.9450    1.0940 c2        1 FAP     -0.224000
      8 C19         0.8330    0.7500    2.1690 c2        1 FAP      0.060000
      9 C20        -0.6110    0.7690    2.0330 c2        1 FAP      0.058000
     10 N2          6.0210    1.9350   -1.5340 n2        1 FAP     -0.198000
     11 N6          3.8840    2.3470   -0.4410 n2        1 FAP     -0.224000
     12 N7          6.2040    0.4500   -3.3720 nu        1 FAP     -0.231000
     13 N16         1.8540    1.3710   -1.3110 nu        1 FAP     -0.156000
     14 C21        -1.1890    0.9710    0.8230 c2        1 FAP     -0.213000
     15 O23        -1.2570    0.5600    3.2240 os        1 FAP     -0.200000
     16 C24        -2.6940    0.4940    3.1660 c3        1 FAP     -0.060000
     17 C11         4.1160   -2.7590   -6.4490 c1        1 FAP     -0.074000
     18 C10         6.6960   -0.3550   -6.7610 c2        1 FAP     -0.199000
     19 C9          6.0040    0.3150   -5.8220 c2        1 FAP      0.045000
     20 C8          5.6940   -0.2550   -4.4820 c2        1 FAP     -0.043000
     21 C12         4.5380   -2.1500   -5.5080 c1        1 FAP     -0.214000
     22 C13         5.0270   -1.4530   -4.3780 c2        1 FAP      0.215000
     23 F15         4.7710   -2.0220   -3.1740 f         1 FAP     -0.083000
     24 C25        -3.1250    0.1670    4.6010 c3        1 FAP      0.021000
     25 C26        -4.6210   -0.1540    4.6270 c3        1 FAP     -0.193000
     26 N27        -4.9920   -0.8310    5.9440 nx        1 FAP      0.219000
     27 C28        -6.4700   -1.0060    5.9490 c3        1 FAP     -0.181000
     28 C29        -4.2990   -2.0190    6.1570 c2        1 FAP     -0.837000
     29 O30        -2.9420    1.3000    5.4340 oh        1 FAP     -0.328000
     30 H22        -0.6970    2.2040   -0.8270 hc        1 FAP      0.167000
     31 H4          3.4950    0.2200   -3.1150 ha        1 FAP      0.173000
     32 H18         2.7370    0.9130    1.2360 ha        1 FAP      0.197000
     33 H19         1.2500    0.5630    3.1770 ha        1 FAP      0.194000
     34 H7          7.1570    0.7500   -3.4600 hn        1 FAP      0.274000
     35 H16         1.4050    1.4780   -2.2040 hn        1 FAP      0.274000
     36 H21        -0.6890    0.4170   -1.1620 hc        1 FAP      0.167000
     37 H241       -2.2810    0.9780    0.6830 ha        1 FAP      0.176000
     38 H242       -3.0940    1.4880    2.8370 h1        1 FAP      0.100000
     39 H11         3.7480   -3.2960   -7.2910 ha        1 FAP      0.246000
     40 H10         6.9230    0.0870   -7.7410 ha        1 FAP      0.150500
     41 H12         7.0580   -1.3750   -6.5850 ha        1 FAP      0.150500
     42 H25        -3.0040   -0.3180    2.4600 h1        1 FAP      0.100000
     43 H261       -2.5310   -0.7160    4.9840 h1        1 FAP      0.146000
     44 H262       -5.2160    0.7900    4.5080 hx        1 FAP      0.108000
     45 H281       -4.8630   -0.8720    3.8010 hx        1 FAP      0.108000
     46 H282       -6.9780   -0.0180    5.8110 hx        1 FAP      0.110333
     47 H283       -6.7630   -1.7060    5.1250 hx        1 FAP      0.110333
     48 H291       -6.7640   -1.4590    6.9310 hx        1 FAP      0.110333
     49 H292       -3.4640   -2.0140    6.8470 hx        1 FAP      0.135000
     50 H293       -4.6210   -2.9130    5.6370 hx        1 FAP      0.135000
     51 H30        -1.9960    1.3720    5.6070 ho        1 FAP      0.217000
     52 F14         5.5640    1.5850   -6.0190 f         1 FAP     -0.102000
     53 H271       -4.7390   -0.1540    6.6720 hn        1 FAP      0.209000
     54 H1L         5.7290    3.1670    0.1330 h5        1 FAP      0.221000
@<TRIPOS>BOND
     1    1    6 1   
     2    1   14 1   
     3    1   30 1   
     4    1   36 1   
     5    2   10 1   
     6    2   11 1   
     7    2   54 1   
     8    3    4 1   
     9    3   11 1   
    10    3   13 1   
    11    4    5 1   
    12    4   31 1   
    13    5   10 1   
    14    5   12 1   
    15    6    7 1   
    16    6   13 1   
    17    7    8 1   
    18    7   32 1   
    19    8    9 1   
    20    8   33 1   
    21    9   14 1   
    22    9   15 1   
    23   12   20 1   
    24   12   34 1   
    25   13   35 1   
    26   14   37 1   
    27   15   16 1   
    28   16   24 1   
    29   16   38 1   
    30   16   42 1   
    31   17   21 1   
    32   17   39 1   
    33   18   19 1   
    34   18   40 1   
    35   18   41 1   
    36   19   20 1   
    37   19   52 1   
    38   20   22 1   
    39   21   22 1   
    40   22   23 1   
    41   24   25 1   
    42   24   29 1   
    43   24   43 1   
    44   25   26 1   
    45   25   44 1   
    46   25   45 1   
    47   26   27 1   
    48   26   28 1   
    49   26   53 1   
    50   27   46 1   
    51   27   47 1   
    52   27   48 1   
    53   28   49 1   
    54   28   50 1   
    55   29   51 1   
@<TRIPOS>SUBSTRUCTURE
     1 FAP         1 TEMP              0 ****  ****    0 ROOT
