@<TRIPOS>MOLECULE
FAP
   53    55     1     0     0
SMALL
bcc


@<TRIPOS>ATOM
      1 C22         1.1280   -0.6470    1.1910 ca        1 FAP     -0.105000
      2 C1         -2.7520    0.9100   -2.2130 ca        1 FAP      0.688900
      3 C5         -0.5120    0.7010   -1.6960 ca        1 FAP      0.696200
      4 C4         -0.2170    0.7000   -3.0950 ca        1 FAP     -0.459600
      5 C3         -1.2970    0.8330   -4.0050 ca        1 FAP      0.686200
      6 C17         0.4020    0.3970    0.5830 ca        1 FAP      0.099600
      7 C18        -0.4160    1.2200    1.3890 ca        1 FAP     -0.105000
      8 C19        -0.5070    0.9960    2.7550 ca        1 FAP     -0.166000
      9 C20         0.2280   -0.0490    3.3450 ca        1 FAP      0.116100
     10 N2         -2.5980    0.9250   -3.5550 nb        1 FAP     -0.770000
     11 N6         -1.8080    0.8000   -1.2490 nb        1 FAP     -0.764000
     12 N7         -1.0750    0.9490   -5.3950 nh        1 FAP     -0.702300
     13 N16         0.5630    0.6540   -0.7990 nh        1 FAP     -0.718300
     14 C21         1.0490   -0.8660    2.5640 ca        1 FAP     -0.166000
     15 O23         0.0730   -0.1640    4.7140 os        1 FAP     -0.329900
     16 C24         0.7260   -1.2820    5.3210 c3        1 FAP      0.095400
     17 C11         2.2920   -0.8220   -7.2880 ca        1 FAP     -0.081000
     18 C10         1.0620   -1.4680   -7.3300 ca        1 FAP     -0.175000
     19 C9         -0.0470   -0.9020   -6.6810 ca        1 FAP      0.143400
     20 C8          0.0570    0.3350   -5.9780 ca        1 FAP      0.035600
     21 C12         2.4330    0.3860   -6.6180 ca        1 FAP     -0.175000
     22 C13         1.3290    0.9730   -5.9720 ca        1 FAP      0.143400
     23 F15         1.5050    2.1570   -5.3430 f         1 FAP     -0.123900
     24 C25         0.2920   -1.2790    6.7950 c3        1 FAP      0.140100
     25 C26         0.9050   -0.0630    7.5050 c3        1 FAP      0.134800
     26 N27         0.7880   -0.0720    8.9560 n3        1 FAP     -0.739600
     27 C28         1.3240    1.1370    9.5410 c3        1 FAP      0.152100
     28 C29        -0.5360   -0.3950    9.4380 c3        1 FAP      0.152100
     29 O30         0.6470   -2.5230    7.3650 oh        1 FAP     -0.589800
     30 H22         1.7750   -1.3040    0.5890 ha        1 FAP      0.144500
     31 H1L        -3.8000    0.9890   -1.8490 h5        1 FAP      0.054100
     32 H4          0.8160    0.6300   -3.4560 ha        1 FAP      0.153000
     33 H18        -0.9920    2.0450    0.9420 ha        1 FAP      0.144500
     34 H19        -1.1480    1.6290    3.3860 ha        1 FAP      0.145500
     35 H7         -1.9010    0.8480   -5.9580 hn        1 FAP      0.438800
     36 H16         1.4010    0.2800   -1.1940 hn        1 FAP      0.425800
     37 H21         1.6310   -1.6840    3.0110 ha        1 FAP      0.145500
     38 H241        1.8370   -1.1680    5.2240 h1        1 FAP      0.048200
     39 H242        0.3980   -2.2370    4.8340 h1        1 FAP      0.048200
     40 H11         3.1620   -1.2710   -7.7940 ha        1 FAP      0.149000
     41 H10         0.9410   -2.4220   -7.8650 ha        1 FAP      0.158000
     42 H12         3.4030    0.9050   -6.5900 ha        1 FAP      0.158000
     43 H25        -0.8340   -1.2460    6.8500 h1        1 FAP      0.086700
     44 H261        0.4320    0.8530    7.0410 h1        1 FAP      0.045200
     45 H262        2.0080   -0.0310    7.2730 h1        1 FAP      0.045200
     46 H281        1.3240    1.0260   10.6570 h1        1 FAP      0.034867
     47 H282        2.3820    1.2750    9.1940 h1        1 FAP      0.034867
     48 H283        0.7390    2.0590    9.2730 h1        1 FAP      0.034867
     49 H291       -0.7780   -1.4480    9.1320 h1        1 FAP      0.034867
     50 H292       -0.5430   -0.3370   10.5570 h1        1 FAP      0.034867
     51 H293       -1.3340    0.2910    9.0400 h1        1 FAP      0.034867
     52 H30         1.5510   -2.4500    7.6940 ho        1 FAP      0.412000
     53 F14        -1.2410   -1.5390   -6.7420 f         1 FAP     -0.123900
@<TRIPOS>BOND
     1    1    6 ar  
     2    1   14 ar  
     3    1   30 1   
     4    2   10 ar  
     5    2   11 ar  
     6    2   31 1   
     7    3    4 ar  
     8    3   11 ar  
     9    3   13 1   
    10    4    5 ar  
    11    4   32 1   
    12    5   10 ar  
    13    5   12 1   
    14    6    7 ar  
    15    6   13 1   
    16    7    8 ar  
    17    7   33 1   
    18    8    9 ar  
    19    8   34 1   
    20    9   14 ar  
    21    9   15 1   
    22   12   20 1   
    23   12   35 1   
    24   13   36 1   
    25   14   37 1   
    26   15   16 1   
    27   16   24 1   
    28   16   38 1   
    29   16   39 1   
    30   17   18 ar  
    31   17   21 ar  
    32   17   40 1   
    33   18   19 ar  
    34   18   41 1   
    35   19   20 ar  
    36   19   53 1   
    37   20   22 ar  
    38   21   22 ar  
    39   21   42 1   
    40   22   23 1   
    41   24   25 1   
    42   24   29 1   
    43   24   43 1   
    44   25   26 1   
    45   25   44 1   
    46   25   45 1   
    47   26   27 1   
    48   26   28 1   
    49   27   46 1   
    50   27   47 1   
    51   27   48 1   
    52   28   49 1   
    53   28   50 1   
    54   28   51 1   
    55   29   52 1   
@<TRIPOS>SUBSTRUCTURE
     1 FAP         1 TEMP              0 ****  ****    0 ROOT
