@<TRIPOS>MOLECULE
FAR
   41    40     1     0     0
SMALL
bcc


@<TRIPOS>ATOM
      1 C1         -0.5890   -0.3470    0.5500 c3        1 FAR     -0.061900
      2 C2          0.8630   -0.4580    0.7850 c2        1 FAR     -0.174200
      3 C3          1.5780    0.4160    1.5120 c2        1 FAR     -0.122400
      4 C5          3.0440    0.2370    1.7200 c3        1 FAR     -0.040200
      5 C6          3.8540    1.1710    0.8380 c3        1 FAR     -0.043200
      6 C7          5.3100    1.0170    1.0590 c2        1 FAR     -0.174200
      7 C8          6.2410    1.6160    0.2980 c2        1 FAR     -0.124400
      8 C9          7.6960    1.4450    0.5730 c3        1 FAR     -0.038200
      9 C11         8.3820    0.6440   -0.5200 c3        1 FAR     -0.043200
     10 C12         9.8380    0.5160   -0.2840 c2        1 FAR     -0.177200
     11 C13        10.6450   -0.2470   -1.0380 c2        1 FAR     -0.124400
     12 C14        12.1000   -0.3460   -0.7740 c3        1 FAR     -0.057900
     13 C15        10.1360   -1.0450   -2.1800 c3        1 FAR     -0.057900
     14 C4          0.9610    1.5920    2.1720 c3        1 FAR     -0.058900
     15 C10         5.8820    2.4840   -0.8490 c3        1 FAR     -0.058900
     16 H11        -1.1260   -0.0340    1.4810 hc        1 FAR      0.040033
     17 H12A       -1.0130   -1.3240    0.2120 hc        1 FAR      0.040033
     18 H13        -0.7950    0.4180   -0.2410 hc        1 FAR      0.040033
     19 H2          1.3580   -1.3230    0.3130 ha        1 FAR      0.120000
     20 H51         3.3410   -0.8240    1.5020 hc        1 FAR      0.046200
     21 H52         3.2890    0.4350    2.7980 hc        1 FAR      0.046200
     22 H61         3.5550    2.2360    1.0440 hc        1 FAR      0.050200
     23 H62         3.6110    0.9710   -0.2420 hc        1 FAR      0.050200
     24 H7          5.6070    0.3750    1.9040 ha        1 FAR      0.123000
     25 H91         7.8510    0.9310    1.5590 hc        1 FAR      0.045700
     26 H92         8.1750    2.4590    0.6490 hc        1 FAR      0.045700
     27 H111        8.2050    1.1400   -1.5140 hc        1 FAR      0.049700
     28 H112        7.9180   -0.3790   -0.5830 hc        1 FAR      0.049700
     29 H12        10.2460    1.0950    0.5610 ha        1 FAR      0.122000
     30 H141       12.3860   -1.4130   -0.5940 hc        1 FAR      0.040533
     31 H142       12.4000    0.2550    0.1190 hc        1 FAR      0.040533
     32 H143       12.6770    0.0240   -1.6590 hc        1 FAR      0.040533
     33 H151       10.9730   -1.5040   -2.7600 hc        1 FAR      0.040533
     34 H152        9.5360   -0.4010   -2.8710 hc        1 FAR      0.040533
     35 H153        9.4710   -1.8660   -1.8110 hc        1 FAR      0.040533
     36 H41         0.2090    2.0760    1.5000 hc        1 FAR      0.041033
     37 H42         1.7330    2.3530    2.4460 hc        1 FAR      0.041033
     38 H43         0.4350    1.2720    3.1070 hc        1 FAR      0.041033
     39 H101        6.7710    3.0400   -1.2340 hc        1 FAR      0.041367
     40 H102        5.4630    1.8660   -1.6830 hc        1 FAR      0.041367
     41 H103        5.1020    3.2280   -0.5470 hc        1 FAR      0.041367
@<TRIPOS>BOND
     1    1    2 1   
     2    1   16 1   
     3    1   17 1   
     4    1   18 1   
     5    2    3 2   
     6    2   19 1   
     7    3    4 1   
     8    3   14 1   
     9    4    5 1   
    10    4   20 1   
    11    4   21 1   
    12    5    6 1   
    13    5   22 1   
    14    5   23 1   
    15    6    7 2   
    16    6   24 1   
    17    7    8 1   
    18    7   15 1   
    19    8    9 1   
    20    8   25 1   
    21    8   26 1   
    22    9   10 1   
    23    9   27 1   
    24    9   28 1   
    25   10   11 2   
    26   10   29 1   
    27   11   12 1   
    28   11   13 1   
    29   12   30 1   
    30   12   31 1   
    31   12   32 1   
    32   13   33 1   
    33   13   34 1   
    34   13   35 1   
    35   14   36 1   
    36   14   37 1   
    37   14   38 1   
    38   15   39 1   
    39   15   40 1   
    40   15   41 1   
@<TRIPOS>SUBSTRUCTURE
     1 FAR         1 TEMP              0 ****  ****    0 ROOT
