@<TRIPOS>MOLECULE
FAR
   41    40     1     0     0
SMALL
bcc


@<TRIPOS>ATOM
      1 C1         -0.5910   -0.3530    0.5110 c3        1 FAR     -0.061900
      2 C2          0.8590   -0.4580    0.7600 c2        1 FAR     -0.174200
      3 C3          1.5670    0.4290    1.4790 c2        1 FAR     -0.122400
      4 C5          3.0310    0.2550    1.7020 c3        1 FAR     -0.040200
      5 C6          3.8470    1.1760    0.8130 c3        1 FAR     -0.043200
      6 C7          5.3020    1.0280    1.0500 c2        1 FAR     -0.174200
      7 C8          6.2380    1.6170    0.2880 c2        1 FAR     -0.124400
      8 C9          7.6910    1.4530    0.5780 c3        1 FAR     -0.038200
      9 C11         8.3880    0.6370   -0.4970 c3        1 FAR     -0.043200
     10 C12         9.8420    0.5160   -0.2460 c2        1 FAR     -0.177200
     11 C13        10.6570   -0.2560   -0.9840 c2        1 FAR     -0.124400
     12 C14        12.1100   -0.3480   -0.7060 c3        1 FAR     -0.057900
     13 C15        10.1600   -1.0680   -2.1200 c3        1 FAR     -0.057900
     14 C4          0.9430    1.6140    2.1150 c3        1 FAR     -0.058900
     15 C10         5.8880    2.4690   -0.8740 c3        1 FAR     -0.058900
     16 H11        -1.1360   -0.0250    1.4320 hc        1 FAR      0.040033
     17 H12A       -1.0100   -1.3360    0.1840 hc        1 FAR      0.040033
     18 H13        -0.7910    0.3990   -0.2940 hc        1 FAR      0.040033
     19 H2          1.3590   -1.3290    0.3060 ha        1 FAR      0.120000
     20 H51         3.3310   -0.8090    1.5030 hc        1 FAR      0.046200
     21 H52         3.2660    0.4700    2.7800 hc        1 FAR      0.046200
     22 H61         3.5450    2.2440    1.0010 hc        1 FAR      0.050200
     23 H62         3.6140    0.9590   -0.2650 hc        1 FAR      0.050200
     24 H7          5.5920    0.3990    1.9070 ha        1 FAR      0.123000
     25 H91         7.8380    0.9530    1.5730 hc        1 FAR      0.045700
     26 H92         8.1670    2.4690    0.6440 hc        1 FAR      0.045700
     27 H111        8.2190    1.1180   -1.5000 hc        1 FAR      0.049700
     28 H112        7.9260   -0.3870   -0.5490 hc        1 FAR      0.049700
     29 H12        10.2410    1.1060    0.5950 ha        1 FAR      0.122000
     30 H141       12.3960   -1.4120   -0.5100 hc        1 FAR      0.040533
     31 H142       12.4020    0.2650    0.1820 hc        1 FAR      0.040533
     32 H143       12.6940    0.0120   -1.5900 hc        1 FAR      0.040533
     33 H151       11.0030   -1.5340   -2.6870 hc        1 FAR      0.040533
     34 H152        9.5670   -0.4340   -2.8260 hc        1 FAR      0.040533
     35 H153        9.4910   -1.8850   -1.7470 hc        1 FAR      0.040533
     36 H41         0.1970    2.0870    1.4280 hc        1 FAR      0.041033
     37 H42         1.7100    2.3800    2.3840 hc        1 FAR      0.041033
     38 H43         0.4080    1.3080    3.0500 hc        1 FAR      0.041033
     39 H101        6.7800    3.0200   -1.2600 hc        1 FAR      0.041367
     40 H102        5.4770    1.8380   -1.7030 hc        1 FAR      0.041367
     41 H103        5.1040    3.2160   -0.5900 hc        1 FAR      0.041367
@<TRIPOS>BOND
     1    1    2 1   
     2    1   16 1   
     3    1   17 1   
     4    1   18 1   
     5    2    3 2   
     6    2   19 1   
     7    3    4 1   
     8    3   14 1   
     9    4    5 1   
    10    4   20 1   
    11    4   21 1   
    12    5    6 1   
    13    5   22 1   
    14    5   23 1   
    15    6    7 2   
    16    6   24 1   
    17    7    8 1   
    18    7   15 1   
    19    8    9 1   
    20    8   25 1   
    21    8   26 1   
    22    9   10 1   
    23    9   27 1   
    24    9   28 1   
    25   10   11 2   
    26   10   29 1   
    27   11   12 1   
    28   11   13 1   
    29   12   30 1   
    30   12   31 1   
    31   12   32 1   
    32   13   33 1   
    33   13   34 1   
    34   13   35 1   
    35   14   36 1   
    36   14   37 1   
    37   14   38 1   
    38   15   39 1   
    39   15   40 1   
    40   15   41 1   
@<TRIPOS>SUBSTRUCTURE
     1 FAR         1 TEMP              0 ****  ****    0 ROOT
