@<TRIPOS>MOLECULE
FAR
   41    40     1     0     0
SMALL
bcc


@<TRIPOS>ATOM
      1 C1         -1.1900    0.9230    6.2870 c3        1 FAR     -0.061900
      2 C2         -1.3090    0.4220    4.9040 c2        1 FAR     -0.175200
      3 C3         -0.4440   -0.4330    4.3350 c2        1 FAR     -0.122400
      4 C5         -0.6300   -0.9080    2.9350 c3        1 FAR     -0.040200
      5 C6          0.3080   -0.2010    1.9730 c3        1 FAR     -0.043200
      6 C7          0.1550   -0.6960    0.5850 c2        1 FAR     -0.174200
      7 C8          0.9700   -0.3420   -0.4220 c2        1 FAR     -0.124400
      8 C9          0.7790   -0.8770   -1.8000 c3        1 FAR     -0.039200
      9 C11         0.1670    0.1600   -2.7240 c3        1 FAR     -0.042200
     10 C12         0.0050   -0.3530   -4.1040 c2        1 FAR     -0.177200
     11 C13        -0.6290    0.3240   -5.0750 c2        1 FAR     -0.124400
     12 C14        -0.7670   -0.2210   -6.4470 c3        1 FAR     -0.057900
     13 C15        -1.2360    1.6570   -4.8410 c3        1 FAR     -0.057900
     14 C4          0.7280   -0.9770    5.0620 c3        1 FAR     -0.058900
     15 C10         2.1170    0.5770   -0.2230 c3        1 FAR     -0.058900
     16 H11        -0.4190    1.7320    6.3410 hc        1 FAR      0.040033
     17 H12A       -2.1630    1.3420    6.6430 hc        1 FAR      0.040033
     18 H13        -0.8820    0.1060    6.9870 hc        1 FAR      0.040033
     19 H2         -2.1710    0.8020    4.3320 ha        1 FAR      0.120000
     20 H51        -0.4410   -2.0150    2.8940 hc        1 FAR      0.046200
     21 H52        -1.6910   -0.7410    2.6060 hc        1 FAR      0.046200
     22 H61         0.1040    0.9050    1.9990 hc        1 FAR      0.050200
     23 H62         1.3710   -0.3420    2.3110 hc        1 FAR      0.050200
     24 H7         -0.6840   -1.3880    0.4070 ha        1 FAR      0.123000
     25 H91         1.7750   -1.2000   -2.2090 hc        1 FAR      0.045700
     26 H92         0.1190   -1.7850   -1.7770 hc        1 FAR      0.045700
     27 H111       -0.8320    0.4800   -2.3190 hc        1 FAR      0.049700
     28 H112        0.8170    1.0790   -2.7420 hc        1 FAR      0.049700
     29 H12         0.4430   -1.3440   -4.3080 ha        1 FAR      0.122000
     30 H141       -1.8490   -0.2890   -6.7250 hc        1 FAR      0.040533
     31 H142       -0.2600    0.4550   -7.1800 hc        1 FAR      0.040533
     32 H143       -0.3150   -1.2390   -6.5350 hc        1 FAR      0.040533
     33 H151       -0.4920    2.3490   -4.3730 hc        1 FAR      0.040533
     34 H152       -1.5940    2.1130   -5.7960 hc        1 FAR      0.040533
     35 H153       -2.1070    1.5660   -4.1440 hc        1 FAR      0.040533
     36 H41         1.2230   -0.1800    5.6720 hc        1 FAR      0.041033
     37 H42         0.4010   -1.7920    5.7570 hc        1 FAR      0.041033
     38 H43         1.4820   -1.4010    4.3550 hc        1 FAR      0.041033
     39 H101        1.8060    1.4730    0.3720 hc        1 FAR      0.041367
     40 H102        2.9320    0.0550    0.3400 hc        1 FAR      0.041367
     41 H103        2.5320    0.9270   -1.1990 hc        1 FAR      0.041367
@<TRIPOS>BOND
     1    1    2 1   
     2    1   16 1   
     3    1   17 1   
     4    1   18 1   
     5    2    3 2   
     6    2   19 1   
     7    3    4 1   
     8    3   14 1   
     9    4    5 1   
    10    4   20 1   
    11    4   21 1   
    12    5    6 1   
    13    5   22 1   
    14    5   23 1   
    15    6    7 2   
    16    6   24 1   
    17    7    8 1   
    18    7   15 1   
    19    8    9 1   
    20    8   25 1   
    21    8   26 1   
    22    9   10 1   
    23    9   27 1   
    24    9   28 1   
    25   10   11 2   
    26   10   29 1   
    27   11   12 1   
    28   11   13 1   
    29   12   30 1   
    30   12   31 1   
    31   12   32 1   
    32   13   33 1   
    33   13   34 1   
    34   13   35 1   
    35   14   36 1   
    36   14   37 1   
    37   14   38 1   
    38   15   39 1   
    39   15   40 1   
    40   15   41 1   
@<TRIPOS>SUBSTRUCTURE
     1 FAR         1 TEMP              0 ****  ****    0 ROOT
