@<TRIPOS>MOLECULE
FAT
   49    48     1     0     0
SMALL
bcc


@<TRIPOS>ATOM
      1 C1          0.0230    0.1320    0.0420 c         1 FAT      0.907600
      2 OE1         0.9270    1.0130    0.1250 o         1 FAT     -0.853800
      3 OE2        -0.3120   -0.6230    1.0000 o         1 FAT     -0.853800
      4 C2         -0.7340   -0.0220   -1.2890 c3        1 FAT     -0.193400
      5 C3          0.2160   -0.0430   -2.4610 c3        1 FAT     -0.065400
      6 C4         -0.5180   -0.0080   -3.7850 c3        1 FAT     -0.078400
      7 C5          0.4430   -0.0490   -4.9540 c3        1 FAT     -0.078400
      8 C6         -0.2900   -0.0060   -6.2780 c3        1 FAT     -0.078400
      9 C7          0.6730   -0.0480   -7.4450 c3        1 FAT     -0.079400
     10 C8         -0.0610   -0.0030   -8.7680 c3        1 FAT     -0.078400
     11 C9          0.9030   -0.0450   -9.9340 c3        1 FAT     -0.079400
     12 C10         0.1700   -0.0010  -11.2580 c3        1 FAT     -0.078400
     13 C11         1.1340   -0.0430  -12.4240 c3        1 FAT     -0.079400
     14 C12         0.4000    0.0010  -13.7470 c3        1 FAT     -0.078400
     15 C13         1.3650   -0.0410  -14.9120 c3        1 FAT     -0.079400
     16 C14         0.6310    0.0030  -16.2350 c3        1 FAT     -0.079400
     17 C15         1.5950   -0.0390  -17.4020 c3        1 FAT     -0.080400
     18 C16         0.8680    0.0050  -18.7220 c3        1 FAT     -0.092100
     19 H21        -1.3430   -0.9590   -1.2630 hc        1 FAT      0.018700
     20 H22        -1.4380    0.8440   -1.3840 hc        1 FAT      0.018700
     21 H31         0.9080    0.8380   -2.3800 hc        1 FAT      0.043700
     22 H32         0.8510   -0.9660   -2.4100 hc        1 FAT      0.043700
     23 H41        -1.2230   -0.8790   -3.8480 hc        1 FAT      0.025700
     24 H42        -1.1400    0.9230   -3.8440 hc        1 FAT      0.025700
     25 H51         1.1500    0.8190   -4.8860 hc        1 FAT      0.036700
     26 H52         1.0610   -0.9830   -4.8980 hc        1 FAT      0.036700
     27 H61        -0.9080    0.9290   -6.3340 hc        1 FAT      0.034200
     28 H62        -0.9990   -0.8730   -6.3430 hc        1 FAT      0.034200
     29 H71         1.2900   -0.9830   -7.3880 hc        1 FAT      0.037200
     30 H72         1.3810    0.8200   -7.3780 hc        1 FAT      0.037200
     31 H81        -0.7690   -0.8710   -8.8340 hc        1 FAT      0.036700
     32 H82        -0.6780    0.9320   -8.8240 hc        1 FAT      0.036700
     33 H91         1.5210   -0.9800   -9.8780 hc        1 FAT      0.038200
     34 H92         1.6110    0.8220   -9.8680 hc        1 FAT      0.038200
     35 H101       -0.5390   -0.8690  -11.3240 hc        1 FAT      0.037700
     36 H102       -0.4480    0.9340  -11.3140 hc        1 FAT      0.037700
     37 H111        1.8420    0.8250  -12.3570 hc        1 FAT      0.038700
     38 H112        1.7510   -0.9780  -12.3670 hc        1 FAT      0.038700
     39 H121       -0.3080   -0.8670  -13.8130 hc        1 FAT      0.038700
     40 H122       -0.2170    0.9360  -13.8030 hc        1 FAT      0.038700
     41 H131        1.9820   -0.9760  -14.8560 hc        1 FAT      0.038700
     42 H132        2.0730    0.8270  -14.8460 hc        1 FAT      0.038700
     43 H141        0.0130    0.9380  -16.2920 hc        1 FAT      0.038700
     44 H142       -0.0770   -0.8650  -16.3020 hc        1 FAT      0.038700
     45 H151        2.3030    0.8290  -17.3330 hc        1 FAT      0.037700
     46 H152        2.2120   -0.9740  -17.3430 hc        1 FAT      0.037700
     47 H161        0.2670    0.9420  -18.8100 hc        1 FAT      0.031033
     48 H162        1.5970   -0.0270  -19.5680 hc        1 FAT      0.031033
     49 H163        0.1750   -0.8660  -18.8200 hc        1 FAT      0.031033
@<TRIPOS>BOND
     1    1    2 1   
     2    1    3 1   
     3    1    4 1   
     4    4    5 1   
     5    4   19 1   
     6    4   20 1   
     7    5    6 1   
     8    5   21 1   
     9    5   22 1   
    10    6    7 1   
    11    6   23 1   
    12    6   24 1   
    13    7    8 1   
    14    7   25 1   
    15    7   26 1   
    16    8    9 1   
    17    8   27 1   
    18    8   28 1   
    19    9   10 1   
    20    9   29 1   
    21    9   30 1   
    22   10   11 1   
    23   10   31 1   
    24   10   32 1   
    25   11   12 1   
    26   11   33 1   
    27   11   34 1   
    28   12   13 1   
    29   12   35 1   
    30   12   36 1   
    31   13   14 1   
    32   13   37 1   
    33   13   38 1   
    34   14   15 1   
    35   14   39 1   
    36   14   40 1   
    37   15   16 1   
    38   15   41 1   
    39   15   42 1   
    40   16   17 1   
    41   16   43 1   
    42   16   44 1   
    43   17   18 1   
    44   17   45 1   
    45   17   46 1   
    46   18   47 1   
    47   18   48 1   
    48   18   49 1   
@<TRIPOS>SUBSTRUCTURE
     1 FAT         1 TEMP              0 ****  ****    0 ROOT
