@<TRIPOS>MOLECULE
FAT
   49    48     1     0     0
SMALL
bcc


@<TRIPOS>ATOM
      1 C1          0.0240   -0.1300    0.0430 c         1 FAT      0.907600
      2 OE1         0.9440   -0.9940    0.1290 o         1 FAT     -0.853800
      3 OE2        -0.3260    0.6230    0.9980 o         1 FAT     -0.853800
      4 C2         -0.7350    0.0060   -1.2890 c3        1 FAT     -0.193400
      5 C3          0.2140    0.0400   -2.4610 c3        1 FAT     -0.065400
      6 C4         -0.5190   -0.0120   -3.7850 c3        1 FAT     -0.078400
      7 C5          0.4410    0.0410   -4.9540 c3        1 FAT     -0.078400
      8 C6         -0.2910   -0.0200   -6.2780 c3        1 FAT     -0.078400
      9 C7          0.6720    0.0340   -7.4450 c3        1 FAT     -0.079400
     10 C8         -0.0600   -0.0260   -8.7680 c3        1 FAT     -0.078400
     11 C9          0.9030    0.0260   -9.9340 c3        1 FAT     -0.079400
     12 C10         0.1700   -0.0320  -11.2580 c3        1 FAT     -0.078400
     13 C11         1.1340    0.0200  -12.4240 c3        1 FAT     -0.079400
     14 C12         0.4010   -0.0380  -13.7470 c3        1 FAT     -0.078400
     15 C13         1.3650    0.0130  -14.9120 c3        1 FAT     -0.079400
     16 C14         0.6320   -0.0440  -16.2350 c3        1 FAT     -0.079400
     17 C15         1.5950    0.0070  -17.4020 c3        1 FAT     -0.080400
     18 C16         0.8700   -0.0490  -18.7220 c3        1 FAT     -0.092100
     19 H21        -1.4250   -0.8710   -1.3810 hc        1 FAT      0.018700
     20 H22        -1.3610    0.9330   -1.2670 hc        1 FAT      0.018700
     21 H31         0.8330    0.9740   -2.4130 hc        1 FAT      0.043700
     22 H32         0.9210   -0.8290   -2.3760 hc        1 FAT      0.043700
     23 H41        -1.1250   -0.9540   -3.8410 hc        1 FAT      0.025700
     24 H42        -1.2380    0.8460   -3.8520 hc        1 FAT      0.025700
     25 H51         1.0440    0.9850   -4.9010 hc        1 FAT      0.036700
     26 H52         1.1630   -0.8150   -4.8830 hc        1 FAT      0.036700
     27 H61        -1.0130    0.8360   -6.3470 hc        1 FAT      0.034200
     28 H62        -0.8930   -0.9650   -6.3310 hc        1 FAT      0.034200
     29 H71         1.3940   -0.8220   -7.3750 hc        1 FAT      0.037200
     30 H72         1.2750    0.9790   -7.3910 hc        1 FAT      0.037200
     31 H81        -0.6640   -0.9710   -8.8210 hc        1 FAT      0.036700
     32 H82        -0.7820    0.8300   -8.8370 hc        1 FAT      0.036700
     33 H91         1.6240   -0.8300   -9.8650 hc        1 FAT      0.038200
     34 H92         1.5070    0.9710   -9.8800 hc        1 FAT      0.038200
     35 H101       -0.4340   -0.9760  -11.3110 hc        1 FAT      0.037700
     36 H102       -0.5500    0.8250  -11.3270 hc        1 FAT      0.037700
     37 H111        1.7390    0.9630  -12.3690 hc        1 FAT      0.038700
     38 H112        1.8540   -0.8380  -12.3540 hc        1 FAT      0.038700
     39 H121       -0.2040   -0.9820  -13.8000 hc        1 FAT      0.038700
     40 H122       -0.3190    0.8200  -13.8150 hc        1 FAT      0.038700
     41 H131        2.0840   -0.8450  -14.8440 hc        1 FAT      0.038700
     42 H132        1.9700    0.9560  -14.8580 hc        1 FAT      0.038700
     43 H141       -0.0870    0.8150  -16.3040 hc        1 FAT      0.038700
     44 H142        0.0260   -0.9870  -16.2900 hc        1 FAT      0.038700
     45 H151        2.2010    0.9500  -17.3450 hc        1 FAT      0.037700
     46 H152        2.3140   -0.8510  -17.3310 hc        1 FAT      0.037700
     47 H161        0.1670    0.8130  -18.8220 hc        1 FAT      0.031033
     48 H162        1.5980   -0.0100  -19.5680 hc        1 FAT      0.031033
     49 H163        0.2800   -0.9930  -18.8080 hc        1 FAT      0.031033
@<TRIPOS>BOND
     1    1    2 1   
     2    1    3 1   
     3    1    4 1   
     4    4    5 1   
     5    4   19 1   
     6    4   20 1   
     7    5    6 1   
     8    5   21 1   
     9    5   22 1   
    10    6    7 1   
    11    6   23 1   
    12    6   24 1   
    13    7    8 1   
    14    7   25 1   
    15    7   26 1   
    16    8    9 1   
    17    8   27 1   
    18    8   28 1   
    19    9   10 1   
    20    9   29 1   
    21    9   30 1   
    22   10   11 1   
    23   10   31 1   
    24   10   32 1   
    25   11   12 1   
    26   11   33 1   
    27   11   34 1   
    28   12   13 1   
    29   12   35 1   
    30   12   36 1   
    31   13   14 1   
    32   13   37 1   
    33   13   38 1   
    34   14   15 1   
    35   14   39 1   
    36   14   40 1   
    37   15   16 1   
    38   15   41 1   
    39   15   42 1   
    40   16   17 1   
    41   16   43 1   
    42   16   44 1   
    43   17   18 1   
    44   17   45 1   
    45   17   46 1   
    46   18   47 1   
    47   18   48 1   
    48   18   49 1   
@<TRIPOS>SUBSTRUCTURE
     1 FAT         1 TEMP              0 ****  ****    0 ROOT
