@<TRIPOS>MOLECULE
FAT
   49    47     1     0     0
SMALL
bcc


@<TRIPOS>ATOM
      1 C1          3.5460   -5.3380    5.9350 c1        1 FAT      0.327000
      2 OE1         4.7300   -5.6800    6.1940 o         1 FAT     -0.587000
      3 OE2         2.6740   -6.2160    5.7030 os        1 FAT     -0.590000
      4 C2          3.1720   -3.8720    5.9030 c3        1 FAT     -0.222000
      5 C3          3.3500   -3.3370    4.4990 c3        1 FAT     -0.144000
      6 C4          2.6370   -2.0090    4.3720 c3        1 FAT     -0.157000
      7 C5          2.9220   -1.4120    3.0110 c3        1 FAT     -0.157000
      8 C6          2.0200   -0.2190    2.7850 c3        1 FAT     -0.157000
      9 C7          2.0140    0.1370    1.3150 c3        1 FAT     -0.158000
     10 C8          0.8390    1.0450    1.0210 c3        1 FAT     -0.157000
     11 C9          0.7880    1.3380   -0.4630 c3        1 FAT     -0.158000
     12 C10        -0.5710    1.8990   -0.8190 c3        1 FAT     -0.157000
     13 C11        -0.7360    1.9040   -2.3230 c3        1 FAT     -0.158000
     14 C12        -2.1570    2.2860   -2.6730 c3        1 FAT     -0.157000
     15 C13        -2.3890    2.0670   -4.1520 c3        1 FAT     -0.158000
     16 C14        -3.8750    2.0630   -4.4340 c3        1 FAT     -0.158000
     17 C15        -4.1160    1.6270   -5.8630 c3        1 FAT     -0.159000
     18 C16        -5.5990    1.4350   -6.0880 c3        1 FAT     -0.210000
     19 H21         2.2390   -3.7680    6.1760 hc        1 FAT      0.058000
     20 H22         3.7490   -3.3750    6.5170 hc        1 FAT      0.058000
     21 H31         2.9730   -3.9730    3.8580 hc        1 FAT      0.083000
     22 H32         4.3030   -3.2150    4.3150 hc        1 FAT      0.083000
     23 H41         1.6740   -2.1450    4.4730 hc        1 FAT      0.065000
     24 H42         2.9550   -1.4000    5.0680 hc        1 FAT      0.065000
     25 H51         3.8570   -1.1280    2.9690 hc        1 FAT      0.076000
     26 H52         2.7540   -2.0830    2.3190 hc        1 FAT      0.076000
     27 H61         1.1110   -0.4380    3.0710 hc        1 FAT      0.073500
     28 H62         2.3500    0.5420    3.3040 hc        1 FAT      0.073500
     29 H71         1.9370   -0.6790    0.7820 hc        1 FAT      0.076500
     30 H72         2.8460    0.5980    1.0870 hc        1 FAT      0.076500
     31 H81         0.9420    1.8820    1.5150 hc        1 FAT      0.076000
     32 H82         0.0100    0.6040    1.2950 hc        1 FAT      0.076000
     33 H91         0.9420    0.5120   -0.9640 hc        1 FAT      0.077500
     34 H92         1.4800    1.9910   -0.6900 hc        1 FAT      0.077500
     35 H101       -1.2690    1.3440   -0.4160 hc        1 FAT      0.077000
     36 H102       -0.6460    2.8130   -0.4800 hc        1 FAT      0.077000
     37 H111       -0.5430    1.0120   -2.6750 hc        1 FAT      0.078000
     38 H112       -0.1180    2.5510   -2.7170 hc        1 FAT      0.078000
     39 H121       -2.3040    3.2290   -2.4560 hc        1 FAT      0.078000
     40 H122       -2.7800    1.7330   -2.1600 hc        1 FAT      0.078000
     41 H131       -1.9630    2.7870   -4.6590 hc        1 FAT      0.078000
     42 H132       -2.0040    1.2080   -4.4180 hc        1 FAT      0.078000
     43 H141       -4.3210    1.4420   -3.8240 hc        1 FAT      0.078000
     44 H142       -4.2340    2.9630   -4.3030 hc        1 FAT      0.078000
     45 H151       -3.6490    0.7840   -6.0300 hc        1 FAT      0.077000
     46 H152       -3.7800    2.3130   -6.4740 hc        1 FAT      0.077000
     47 H161       -5.9420    0.7690   -5.4560 hc        1 FAT      0.070333
     48 H162       -5.7530    1.1240   -7.0050 hc        1 FAT      0.070333
     49 H163       -6.0640    2.2860   -5.9500 hc        1 FAT      0.070333
@<TRIPOS>BOND
     1    1    2 1   
     2    1    4 1   
     3    4    5 1   
     4    4   19 1   
     5    4   20 1   
     6    5    6 1   
     7    5   21 1   
     8    5   22 1   
     9    6    7 1   
    10    6   23 1   
    11    6   24 1   
    12    7    8 1   
    13    7   25 1   
    14    7   26 1   
    15    8    9 1   
    16    8   27 1   
    17    8   28 1   
    18    9   10 1   
    19    9   29 1   
    20    9   30 1   
    21   10   11 1   
    22   10   31 1   
    23   10   32 1   
    24   11   12 1   
    25   11   33 1   
    26   11   34 1   
    27   12   13 1   
    28   12   35 1   
    29   12   36 1   
    30   13   14 1   
    31   13   37 1   
    32   13   38 1   
    33   14   15 1   
    34   14   39 1   
    35   14   40 1   
    36   15   16 1   
    37   15   41 1   
    38   15   42 1   
    39   16   17 1   
    40   16   43 1   
    41   16   44 1   
    42   17   18 1   
    43   17   45 1   
    44   17   46 1   
    45   18   47 1   
    46   18   48 1   
    47   18   49 1   
@<TRIPOS>SUBSTRUCTURE
     1 FAT         1 TEMP              0 ****  ****    0 ROOT
