@<TRIPOS>MOLECULE
FAT
   49    48     1     0     0
SMALL
bcc


@<TRIPOS>ATOM
      1 C1          0.1690   -0.1300   -8.2310 c         1 FAT      0.907600
      2 OE1         1.0810   -1.0070   -8.2540 o         1 FAT     -0.853800
      3 OE2        -0.1060    0.6250   -9.2080 o         1 FAT     -0.853800
      4 C2         -0.6770    0.0170   -6.9530 c3        1 FAT     -0.193400
      5 C3          0.1930    0.0420   -5.7200 c3        1 FAT     -0.065400
      6 C4         -0.6290    0.0010   -4.4480 c3        1 FAT     -0.078400
      7 C5          0.2510    0.0450   -3.2170 c3        1 FAT     -0.078400
      8 C6         -0.5690   -0.0050   -1.9460 c3        1 FAT     -0.078400
      9 C7          0.3140    0.0400   -0.7170 c3        1 FAT     -0.079400
     10 C8         -0.5070   -0.0110    0.5540 c3        1 FAT     -0.078400
     11 C9          0.3770    0.0350    1.7830 c3        1 FAT     -0.079400
     12 C10        -0.4440   -0.0160    3.0540 c3        1 FAT     -0.078400
     13 C11         0.4400    0.0300    4.2820 c3        1 FAT     -0.079400
     14 C12        -0.3810   -0.0210    5.5530 c3        1 FAT     -0.078400
     15 C13         0.5030    0.0250    6.7810 c3        1 FAT     -0.079400
     16 C14        -0.3170   -0.0260    8.0510 c3        1 FAT     -0.079400
     17 C15         0.5660    0.0190    9.2800 c3        1 FAT     -0.080400
     18 C16        -0.2470   -0.0310   10.5480 c3        1 FAT     -0.092100
     19 H21        -1.3810   -0.8520   -6.9070 hc        1 FAT      0.018700
     20 H22        -1.2870    0.9520   -7.0180 hc        1 FAT      0.018700
     21 H31         0.8250    0.9680   -5.7270 hc        1 FAT      0.043700
     22 H32         0.8920   -0.8360   -5.7560 hc        1 FAT      0.043700
     23 H41        -1.2490   -0.9340   -4.4320 hc        1 FAT      0.025700
     24 H42        -1.3410    0.8680   -4.4310 hc        1 FAT      0.025700
     25 H51         0.8670    0.9820   -3.2310 hc        1 FAT      0.036700
     26 H52         0.9660   -0.8190   -3.2390 hc        1 FAT      0.036700
     27 H61        -1.1840   -0.9430   -1.9330 hc        1 FAT      0.034200
     28 H62        -1.2850    0.8580   -1.9260 hc        1 FAT      0.034200
     29 H71         0.9280    0.9780   -0.7310 hc        1 FAT      0.037200
     30 H72         1.0290   -0.8230   -0.7370 hc        1 FAT      0.037200
     31 H81        -1.1210   -0.9490    0.5680 hc        1 FAT      0.036700
     32 H82        -1.2230    0.8530    0.5740 hc        1 FAT      0.036700
     33 H91         0.9910    0.9730    1.7690 hc        1 FAT      0.038200
     34 H92         1.0930   -0.8290    1.7620 hc        1 FAT      0.038200
     35 H101       -1.0580   -0.9550    3.0670 hc        1 FAT      0.037700
     36 H102       -1.1600    0.8480    3.0740 hc        1 FAT      0.037700
     37 H111        1.0540    0.9680    4.2680 hc        1 FAT      0.038700
     38 H112        1.1560   -0.8340    4.2620 hc        1 FAT      0.038700
     39 H121       -0.9950   -0.9600    5.5660 hc        1 FAT      0.038700
     40 H122       -1.0970    0.8420    5.5720 hc        1 FAT      0.038700
     41 H131        1.1170    0.9630    6.7670 hc        1 FAT      0.038700
     42 H132        1.2190   -0.8390    6.7600 hc        1 FAT      0.038700
     43 H141       -0.9320   -0.9650    8.0650 hc        1 FAT      0.038700
     44 H142       -1.0330    0.8370    8.0720 hc        1 FAT      0.038700
     45 H151        1.1810    0.9580    9.2640 hc        1 FAT      0.037700
     46 H152        1.2820   -0.8440    9.2570 hc        1 FAT      0.037700
     47 H161        0.4230    0.0040   11.4410 hc        1 FAT      0.031033
     48 H162       -0.9500    0.8350   10.6010 hc        1 FAT      0.031033
     49 H163       -0.8480   -0.9710   10.5940 hc        1 FAT      0.031033
@<TRIPOS>BOND
     1    1    2 1   
     2    1    3 1   
     3    1    4 1   
     4    4    5 1   
     5    4   19 1   
     6    4   20 1   
     7    5    6 1   
     8    5   21 1   
     9    5   22 1   
    10    6    7 1   
    11    6   23 1   
    12    6   24 1   
    13    7    8 1   
    14    7   25 1   
    15    7   26 1   
    16    8    9 1   
    17    8   27 1   
    18    8   28 1   
    19    9   10 1   
    20    9   29 1   
    21    9   30 1   
    22   10   11 1   
    23   10   31 1   
    24   10   32 1   
    25   11   12 1   
    26   11   33 1   
    27   11   34 1   
    28   12   13 1   
    29   12   35 1   
    30   12   36 1   
    31   13   14 1   
    32   13   37 1   
    33   13   38 1   
    34   14   15 1   
    35   14   39 1   
    36   14   40 1   
    37   15   16 1   
    38   15   41 1   
    39   15   42 1   
    40   16   17 1   
    41   16   43 1   
    42   16   44 1   
    43   17   18 1   
    44   17   45 1   
    45   17   46 1   
    46   18   47 1   
    47   18   48 1   
    48   18   49 1   
@<TRIPOS>SUBSTRUCTURE
     1 FAT         1 TEMP              0 ****  ****    0 ROOT
