@<TRIPOS>MOLECULE
FAV
   39    42     1     0     0
SMALL
bcc


@<TRIPOS>ATOM
      1 C1          0.8000    1.8260    0.2230 ca        1 FAV     -0.154000
      2 N1         -4.2710    0.1840    5.8470 n4        1 FAV     -0.466600
      3 O1          2.4280   -0.4580    3.2990 os        1 FAV     -0.304900
      4 S1         -1.8890    0.5510    3.7930 ss        1 FAV      0.125200
      5 C2          2.1280    1.3790    0.1790 ca        1 FAV     -0.053000
      6 O2         -2.8650   -0.9610    7.3310 o         1 FAV     -0.461100
      7 C3          2.6630    0.6360    1.2230 ca        1 FAV     -0.153000
      8 C4          1.8510    0.3330    2.3330 ca        1 FAV      0.182100
      9 C5          0.5060    0.7670    2.3820 ca        1 FAV     -0.139000
     10 C6         -0.0040    1.5240    1.3110 ca        1 FAV     -0.070000
     11 C7          1.8430   -0.4520    4.6100 c3        1 FAV      0.200700
     12 C8          0.3820   -0.2280    4.6180 cc        1 FAV     -0.197300
     13 C9         -0.2620    0.3940    3.5290 cd        1 FAV      0.068900
     14 C10        -0.5140   -0.5480    5.6480 cc        1 FAV      0.016000
     15 C11        -1.8310   -0.1540    5.3250 cd        1 FAV     -0.322700
     16 C12        -2.8960   -0.3870    6.2470 c         1 FAV      0.628700
     17 C13        -5.1060   -0.8580    5.2370 ca        1 FAV     -0.045400
     18 C14        -5.3180   -2.0750    5.9080 ca        1 FAV     -0.084000
     19 C15        -6.1170   -3.0560    5.3240 ca        1 FAV     -0.104000
     20 C16        -6.7090   -2.8390    4.0800 ca        1 FAV     -0.069000
     21 C17        -6.5080   -1.6330    3.4080 ca        1 FAV     -0.098000
     22 C18        -5.7110   -0.6380    3.9780 ca        1 FAV      0.019400
     23 C19        -4.9470    0.7860    7.0270 c3        1 FAV      0.096100
     24 CL1        -5.4830    0.8270    3.1500 cl        1 FAV     -0.054400
     25 H1          0.3980    2.4200   -0.6120 ha        1 FAV      0.154000
     26 H2          2.7570    1.6230   -0.6930 ha        1 FAV      0.157000
     27 H3          3.7030    0.2770    1.2020 ha        1 FAV      0.171000
     28 H4         -1.0460    1.8770    1.3450 ha        1 FAV      0.132000
     29 H5         -0.2390   -1.0380    6.5900 ha        1 FAV      0.189000
     30 H6         -4.8520   -2.2640    6.8920 ha        1 FAV      0.176000
     31 H7         -6.2770   -4.0100    5.8550 ha        1 FAV      0.174000
     32 H8         -7.3400   -3.6190    3.6230 ha        1 FAV      0.174000
     33 H9         -6.9790   -1.4610    2.4250 ha        1 FAV      0.181000
     34 H10        -5.0820    0.0010    7.8190 hx        1 FAV      0.106033
     35 H11        -4.3030    1.6140    7.4270 hx        1 FAV      0.106033
     36 H12        -5.9480    1.1870    6.7170 hx        1 FAV      0.106033
     37 H13         2.1160   -1.4660    5.0160 h1        1 FAV      0.082200
     38 H14         2.3620    0.3520    5.2050 h1        1 FAV      0.082200
     39 H111       -4.1200    0.9270    5.1470 hn        1 FAV      0.452800
@<TRIPOS>BOND
     1    1    5 ar  
     2    1   10 ar  
     3    1   25 1   
     4    2   16 1   
     5    2   17 1   
     6    2   23 1   
     7    2   39 1   
     8    3    8 1   
     9    3   11 1   
    10    4   13 1   
    11    4   15 1   
    12    5    7 ar  
    13    5   26 1   
    14    6   16 2   
    15    7    8 ar  
    16    7   27 1   
    17    8    9 ar  
    18    9   10 ar  
    19    9   13 1   
    20   10   28 1   
    21   11   12 1   
    22   11   37 1   
    23   11   38 1   
    24   12   13 2   
    25   12   14 1   
    26   14   15 2   
    27   14   29 1   
    28   15   16 1   
    29   17   18 ar  
    30   17   22 ar  
    31   18   19 ar  
    32   18   30 1   
    33   19   20 ar  
    34   19   31 1   
    35   20   21 ar  
    36   20   32 1   
    37   21   22 ar  
    38   21   33 1   
    39   22   24 1   
    40   23   34 1   
    41   23   35 1   
    42   23   36 1   
@<TRIPOS>SUBSTRUCTURE
     1 FAV         1 TEMP              0 ****  ****    0 ROOT
