@<TRIPOS>MOLECULE
FAV
   38    41     1     0     0
SMALL
bcc


@<TRIPOS>ATOM
      1 C1         -4.1850    2.2970    0.3050 ca        1 FAV     -0.162000
      2 N1          2.9020   -0.8980    0.7080 n         1 FAV     -0.406000
      3 O1         -4.1420   -1.8260   -0.2720 os        1 FAV     -0.325900
      4 S1         -0.1320   -0.0040    0.5420 ss        1 FAV      0.132200
      5 C2         -5.3640    1.5790    0.0870 ca        1 FAV     -0.093000
      6 O2          2.3140   -3.0880    0.4390 o         1 FAV     -0.588100
      7 C3         -5.3280    0.2040   -0.1230 ca        1 FAV     -0.157000
      8 C4         -4.0890   -0.4580   -0.1100 ca        1 FAV      0.152100
      9 C5         -2.8920    0.2570    0.1200 ca        1 FAV     -0.075000
     10 C6         -2.9580    1.6410    0.3200 ca        1 FAV     -0.089000
     11 C7         -2.9380   -2.5070   -0.6580 c3        1 FAV      0.207700
     12 C8         -1.6930   -1.8440   -0.2290 cc        1 FAV     -0.181300
     13 C9         -1.6650   -0.4940    0.1320 cd        1 FAV     -0.057100
     14 C10        -0.4080   -2.4380   -0.1470 cc        1 FAV     -0.054000
     15 C11         0.5480   -1.5160    0.2680 cd        1 FAV     -0.209700
     16 C12         1.9520   -1.8950    0.4570 c         1 FAV      0.720700
     17 C13         2.6100    0.4790    0.5440 ca        1 FAV      0.035600
     18 C14         1.9870    1.1960    1.5930 ca        1 FAV     -0.128000
     19 C15         1.7640    2.5670    1.4810 ca        1 FAV     -0.127000
     20 C16         2.1390    3.2520    0.3280 ca        1 FAV     -0.117000
     21 C17         2.7360    2.5650   -0.7260 ca        1 FAV     -0.120000
     22 C18         2.9680    1.1900   -0.6280 ca        1 FAV      0.014400
     23 C19         4.2820   -1.2610    0.9110 c3        1 FAV      0.086300
     24 CL1         3.6820    0.3950   -1.9480 cl        1 FAV     -0.070400
     25 H1         -4.2280    3.3840    0.4640 ha        1 FAV      0.135000
     26 H2         -6.3310    2.1040    0.0780 ha        1 FAV      0.136000
     27 H3         -6.2480   -0.3730   -0.2940 ha        1 FAV      0.152000
     28 H4         -2.0310    2.2080    0.4910 ha        1 FAV      0.131000
     29 H5         -0.1890   -3.4860   -0.3730 ha        1 FAV      0.177000
     30 H6          1.7160    0.6760    2.5270 ha        1 FAV      0.156000
     31 H7          1.2920    3.1080    2.3160 ha        1 FAV      0.143000
     32 H8          1.9660    4.3360    0.2460 ha        1 FAV      0.144000
     33 H9          3.0270    3.1050   -1.6410 ha        1 FAV      0.153000
     34 H10         4.8440   -1.2740   -0.0610 h1        1 FAV      0.051700
     35 H11         4.7620   -0.5210    1.6040 h1        1 FAV      0.051700
     36 H12         4.3270   -2.2870    1.3670 h1        1 FAV      0.051700
     37 H13        -3.0540   -3.5220   -0.1870 h1        1 FAV      0.064200
     38 H14        -2.9610   -2.6040   -1.7800 h1        1 FAV      0.064200
@<TRIPOS>BOND
     1    1    5 ar  
     2    1   10 ar  
     3    1   25 1   
     4    2   16 1   
     5    2   17 1   
     6    2   23 1   
     7    3    8 1   
     8    3   11 1   
     9    4   13 1   
    10    4   15 1   
    11    5    7 ar  
    12    5   26 1   
    13    6   16 2   
    14    7    8 ar  
    15    7   27 1   
    16    8    9 ar  
    17    9   10 ar  
    18    9   13 1   
    19   10   28 1   
    20   11   12 1   
    21   11   37 1   
    22   11   38 1   
    23   12   13 2   
    24   12   14 1   
    25   14   15 2   
    26   14   29 1   
    27   15   16 1   
    28   17   18 ar  
    29   17   22 ar  
    30   18   19 ar  
    31   18   30 1   
    32   19   20 ar  
    33   19   31 1   
    34   20   21 ar  
    35   20   32 1   
    36   21   22 ar  
    37   21   33 1   
    38   22   24 1   
    39   23   34 1   
    40   23   35 1   
    41   23   36 1   
@<TRIPOS>SUBSTRUCTURE
     1 FAV         1 TEMP              0 ****  ****    0 ROOT
