@<TRIPOS>MOLECULE
FAV
   38    34     1     0     0
SMALL
bcc


@<TRIPOS>ATOM
      1 C1          1.5430    2.0090   -4.6400 c1        1 FAV     -0.158000
      2 N1         -1.5840   -0.5870    1.9370 n3        1 FAV     -0.295000
      3 O1          3.6830    2.1180   -0.9590 os        1 FAV     -0.208000
      4 S1         -0.7010    1.7780   -0.6650 ss        1 FAV      0.726000
      5 C2          2.9500    2.0090   -4.6400 c1        1 FAV     -0.093000
      6 O2         -1.4230   -0.3710   -0.3310 o         1 FAV     -0.340000
      7 C3          3.6490    2.0090   -3.4310 c1        1 FAV     -0.155000
      8 C4          2.9510    2.0090   -2.2190 c2        1 FAV      0.104000
      9 C5          1.5430    2.0090   -2.2190 c1        1 FAV     -0.073000
     10 C6          0.8440    2.0090   -3.4320 c2        1 FAV     -0.090000
     11 C7          3.0160    1.9290    0.2550 c3        1 FAV      0.051000
     12 C8          1.5420    1.8110    0.2480 c2        1 FAV     -0.163000
     13 C9          0.8270    1.9100   -0.9840 c1        1 FAV     -0.336000
     14 C10         0.4810    1.6070    1.4350 c1        1 FAV     -0.100000
     15 C11        -0.8440    1.5920    0.8610 c1        1 FAV     -0.455000
     16 C12        -1.3090    0.1550    0.7590 c1        1 FAV      0.385000
     17 C13        -1.9910   -1.9420    1.8420 c2        1 FAV      0.064000
     18 C14        -1.0760   -2.9580    2.0720 c2        1 FAV     -0.109000
     19 C15        -1.4580   -4.2820    1.9240 c1        1 FAV     -0.122000
     20 C16        -2.7550   -4.5900    1.5450 c2        1 FAV     -0.121000
     21 C17        -3.6700   -3.5750    1.3160 c1        1 FAV     -0.122000
     22 C18        -3.2880   -2.2510    1.4640 c1        1 FAV     -0.064000
     23 C19        -1.4970    0.0440    3.2110 c3        1 FAV     -0.067000
     24 CL1        -4.7180   -1.2930    1.1890 cl        1 FAV     -0.012000
     25 H1          1.0560    2.0090   -5.4860 DU        1 FAV      0.145333
     26 H2          3.4380    2.0090   -5.4860 ha        1 FAV      0.137000
     27 H3          4.6250    2.0090   -3.4320 ha        1 FAV      0.152000
     28 H4         -0.1320    2.0090   -3.4330 ha        1 FAV      0.134000
     29 H5          0.6950    1.5100    2.3820 DU        1 FAV      0.145333
     30 H6         -0.1620   -2.7410    2.3380 ha        1 FAV      0.149000
     31 H7         -0.8140   -4.9970    2.0850 DU        1 FAV      0.145333
     32 H8         -3.0240   -5.5230    1.4410 ha        1 FAV      0.139000
     33 H9         -4.5840   -3.7920    1.0490 ha        1 FAV      0.148000
     34 H10        -2.0370   -0.4520    3.8570 h1        1 FAV      0.085000
     35 H11        -1.8300    0.9590    3.1450 h1        1 FAV      0.085000
     36 H12        -0.5670    0.0560    3.5060 h1        1 FAV      0.085000
     37 H13         3.2470    2.6790    0.8360 h1        1 FAV      0.101500
     38 H14         3.3730    1.1160    0.6610 h1        1 FAV      0.101500
@<TRIPOS>BOND
     1    1    5 1   
     2    1   10 1   
     3    2   16 1   
     4    2   17 1   
     5    2   23 1   
     6    3    8 1   
     7    3   11 1   
     8    4   13 1   
     9    4   15 1   
    10    5   26 1   
    11    6   16 1   
    12    7    8 1   
    13    7   27 1   
    14    8    9 1   
    15    9   10 1   
    16   10   28 1   
    17   11   12 1   
    18   11   37 1   
    19   11   38 1   
    20   12   13 1   
    21   12   14 1   
    22   14   15 1   
    23   17   18 1   
    24   17   22 1   
    25   18   19 1   
    26   18   30 1   
    27   19   20 1   
    28   20   21 1   
    29   20   32 1   
    30   21   33 1   
    31   22   24 1   
    32   23   34 1   
    33   23   35 1   
    34   23   36 1   
@<TRIPOS>SUBSTRUCTURE
     1 FAV         1 TEMP              0 ****  ****    0 ROOT
