@<TRIPOS>MOLECULE
FAV
   38    41     1     0     0
SMALL
bcc


@<TRIPOS>ATOM
      1 C1          0.1300   -0.6010    0.1050 ca        1 FAV     -0.162000
      2 N1         -4.1370   -0.6200    6.6160 n         1 FAV     -0.406000
      3 O1          2.2310    0.5220    3.5190 os        1 FAV     -0.325900
      4 S1         -2.0590   -0.5550    4.2260 ss        1 FAV      0.132200
      5 C2          1.4900   -0.2810    0.0520 ca        1 FAV     -0.093000
      6 O2         -2.5020   -0.0560    8.1070 o         1 FAV     -0.588100
      7 C3          2.1700    0.1110    1.2000 ca        1 FAV     -0.157000
      8 C4          1.4740    0.1790    2.4190 ca        1 FAV      0.152100
      9 C5          0.1020   -0.1530    2.4850 ca        1 FAV     -0.075000
     10 C6         -0.5590   -0.5360    1.3120 ca        1 FAV     -0.089000
     11 C7          1.5440    0.9890    4.6910 c3        1 FAV      0.207700
     12 C8          0.1740    0.4660    4.8480 cc        1 FAV     -0.181300
     13 C9         -0.5360   -0.0730    3.7710 cd        1 FAV     -0.057100
     14 C10        -0.5910    0.4560    6.0420 cc        1 FAV     -0.054000
     15 C11        -1.8540   -0.0860    5.8260 cd        1 FAV     -0.209700
     16 C12        -2.8260   -0.2320    6.9160 c         1 FAV      0.720700
     17 C13        -4.6310   -0.6410    5.2880 ca        1 FAV      0.035600
     18 C14        -4.4030   -1.7720    4.4700 ca        1 FAV     -0.128000
     19 C15        -4.9480   -1.8450    3.1890 ca        1 FAV     -0.127000
     20 C16        -5.7170   -0.7970    2.6890 ca        1 FAV     -0.117000
     21 C17        -5.9410    0.3360    3.4680 ca        1 FAV     -0.120000
     22 C18        -5.4020    0.4220    4.7550 ca        1 FAV      0.014400
     23 C19        -5.0940   -0.7810    7.6810 c3        1 FAV      0.086300
     24 Cl1        -5.6870    1.8320    5.6580 cl        1 FAV     -0.070400
     25 H1         -0.3970   -0.9040   -0.8110 ha        1 FAV      0.135000
     26 H2          2.0280   -0.3370   -0.9060 ha        1 FAV      0.136000
     27 H3          3.2390    0.3630    1.1730 ha        1 FAV      0.152000
     28 H4         -1.6290   -0.7870    1.3520 ha        1 FAV      0.131000
     29 H5         -0.2390    0.8190    7.0130 ha        1 FAV      0.177000
     30 H6         -3.8250   -2.6250    4.8630 ha        1 FAV      0.156000
     31 H7         -4.7710   -2.7410    2.5760 ha        1 FAV      0.143000
     32 H8         -6.1510   -0.8610    1.6800 ha        1 FAV      0.144000
     33 H9         -6.5440    1.1670    3.0710 ha        1 FAV      0.153000
     34 H10        -5.8410   -1.5670    7.3930 h1        1 FAV      0.051367
     35 H11        -5.6350    0.1820    7.8880 h1        1 FAV      0.051367
     36 H12        -4.5550   -1.0990    8.6130 h1        1 FAV      0.051367
     37 H13         1.5290    2.1130    4.6370 h1        1 FAV      0.064200
     38 H14         2.2160    0.6580    5.5310 h1        1 FAV      0.064200
@<TRIPOS>BOND
     1    1    5 ar  
     2    1   10 ar  
     3    1   25 1   
     4    2   16 1   
     5    2   17 1   
     6    2   23 1   
     7    3    8 1   
     8    3   11 1   
     9    4   13 1   
    10    4   15 1   
    11    5    7 ar  
    12    5   26 1   
    13    6   16 2   
    14    7    8 ar  
    15    7   27 1   
    16    8    9 ar  
    17    9   10 ar  
    18    9   13 1   
    19   10   28 1   
    20   11   12 1   
    21   11   37 1   
    22   11   38 1   
    23   12   13 2   
    24   12   14 1   
    25   14   15 2   
    26   14   29 1   
    27   15   16 1   
    28   17   18 ar  
    29   17   22 ar  
    30   18   19 ar  
    31   18   30 1   
    32   19   20 ar  
    33   19   31 1   
    34   20   21 ar  
    35   20   32 1   
    36   21   22 ar  
    37   21   33 1   
    38   22   24 1   
    39   23   34 1   
    40   23   35 1   
    41   23   36 1   
@<TRIPOS>SUBSTRUCTURE
     1 FAV         1 TEMP              0 ****  ****    0 ROOT
