@<TRIPOS>MOLECULE
FAX
   39    36     1     0     0
SMALL
bcc


@<TRIPOS>ATOM
      1 OP3        -1.0670   -1.2970   -6.2400 o         1 FAX     -0.912500
      2 P           0.4020   -1.0710   -6.1930 p4        1 FAX      1.701200
      3 N1          1.1680    1.5650    4.6350 n1        1 FAX     -0.616800
      4 C2          2.0050    1.0010    3.7510 c1        1 FAX      0.367300
      5 N3          1.5410    0.6080    2.5080 n1        1 FAX     -0.596800
      6 C4          0.2690    0.7870    2.1880 c1        1 FAX      0.209800
      7 C5         -0.5940    1.3670    3.0970 c1        1 FAX     -0.099800
      8 C6         -0.1310    1.7510    4.3160 c1        1 FAX      0.496600
      9 N6         -1.0300    2.2730    5.2860 n3        1 FAX     -0.775400
     10 N7         -2.0210    1.4520    2.7970 n         1 FAX     -0.476700
     11 C8         -2.6750    2.7060    2.8250 c         1 FAX      0.656900
     12 O8         -2.0560    3.7030    3.0960 o         1 FAX     -0.745100
     13 N9         -0.2180    0.3530    0.8950 n3        1 FAX     -0.690800
     14 C1'         0.6420   -0.5100    0.0260 c3        1 FAX      0.212500
     15 C2'         0.1910   -1.7060    0.0170 c3        1 FAX     -0.109400
     16 C3'         0.4870   -2.2370   -1.4040 c3        1 FAX      0.126100
     17 O3'         1.4920   -3.1270   -1.3690 oh        1 FAX     -0.652800
     18 C4'         0.9000   -0.9780   -2.2470 c3        1 FAX     -0.130700
     19 C5'         0.0670   -0.9300   -3.6510 c3        1 FAX      0.222400
     20 O5'         0.9190   -1.2840   -4.7180 os        1 FAX     -0.590200
     21 C6'         0.5860    0.0140   -1.5240 c3        1 FAX     -0.072400
     22 OP1         1.0980   -2.0580   -7.1240 o         1 FAX     -0.961300
     23 OP2         0.7080    0.3470   -6.6380 os        1 FAX     -1.250000
     24 H2          2.9650    0.8650    3.9910 ha        1 FAX      0.090500
     25 HN6        -1.8120    1.8410    5.4620 hn        1 FAX      0.397300
     26 HN6A       -0.8250    3.0530    5.7300 hn        1 FAX      0.397300
     27 HN7        -2.4620    0.7260    2.5130 hn        1 FAX      0.418500
     28 H8         -3.6330    2.7700    2.5830 h5        1 FAX      0.117200
     29 HN9        -1.0640    0.5990    0.6120 hn        1 FAX      0.482800
     30 H1          1.5420   -0.5000    0.3430 h1        1 FAX      0.045700
     31 H2A         0.6600   -2.2510    0.6890 hc        1 FAX      0.036200
     32 H2B        -0.7660   -1.7070    0.1870 hc        1 FAX      0.036200
     33 H3         -0.3140   -2.6470   -1.7840 h1        1 FAX      0.133700
     34 HO3         1.1630   -3.9500   -1.4340 ho        1 FAX      0.456000
     35 H4          1.8730   -0.9860   -2.4220 hc        1 FAX      0.027700
     36 H5         -0.2670   -0.0420   -3.7910 h1        1 FAX     -0.003800
     37 H5A        -0.6940   -1.5670   -3.6100 h1        1 FAX     -0.003800
     38 H6         -0.2930    0.3060   -1.7380 hc        1 FAX      0.028200
     39 H6A         1.2430    0.7600   -1.6600 hc        1 FAX      0.028200
@<TRIPOS>BOND
     1    1    2 1   
     2    2   20 1   
     3    2   22 2   
     4    3    8 3   
     5    4    5 3   
     6    4   24 1   
     7    6    7 3   
     8    6   13 1   
     9    7   10 1   
    10    8    9 1   
    11    9   25 1   
    12    9   26 1   
    13   10   11 1   
    14   10   27 1   
    15   11   12 2   
    16   11   28 1   
    17   13   14 1   
    18   13   29 1   
    19   14   15 1   
    20   14   21 1   
    21   14   30 1   
    22   15   16 1   
    23   15   31 1   
    24   15   32 1   
    25   16   17 1   
    26   16   18 1   
    27   16   33 1   
    28   17   34 1   
    29   18   19 1   
    30   18   21 1   
    31   18   35 1   
    32   19   20 1   
    33   19   36 1   
    34   19   37 1   
    35   21   38 1   
    36   21   39 1   
@<TRIPOS>SUBSTRUCTURE
     1 FAX         1 TEMP              0 ****  ****    0 ROOT
