@<TRIPOS>MOLECULE
FAX
   39    40     1     0     0
SMALL
bcc


@<TRIPOS>ATOM
      1 OP3        -0.3950   -0.2270   -1.8770 o         1 FAX     -0.914833
      2 P          -1.3610   -1.4040   -1.8380 p5        1 FAX      1.334900
      3 N1          5.2710    0.4420   -0.3050 nb        1 FAX     -0.827000
      4 C2          4.6450    1.3650    0.4440 ca        1 FAX      0.654900
      5 N3          3.3280    1.5150    0.6910 nb        1 FAX     -0.836000
      6 C4          2.4850    0.5840    0.1170 ca        1 FAX      0.714200
      7 C5          3.0400   -0.5040   -0.7040 ca        1 FAX     -0.252000
      8 C6          4.4530   -0.4990   -0.9110 ca        1 FAX      0.626200
      9 N6          5.0670   -1.4230   -1.7840 nh        1 FAX     -0.904500
     10 N7          2.1950   -1.4880   -1.2440 n         1 FAX     -0.458100
     11 C8          2.2890   -2.8310   -0.9800 c         1 FAX      0.641900
     12 O8          3.3170   -3.3920   -0.5200 o         1 FAX     -0.741100
     13 N9          1.1370    0.6170    0.3490 nh        1 FAX     -0.856900
     14 C1'         0.4530    1.5590    1.2020 c3        1 FAX      0.227500
     15 C2'        -0.4700    2.5100    0.4000 c3        1 FAX     -0.091400
     16 C3'        -1.7100    1.6600    0.1060 c3        1 FAX      0.111100
     17 O3'        -2.8560    2.5060    0.1070 oh        1 FAX     -0.641800
     18 C4'        -1.8040    0.5980    1.2240 c3        1 FAX     -0.128700
     19 C5'        -1.8560   -0.8430    0.6720 c3        1 FAX      0.215400
     20 O5'        -2.4220   -0.9170   -0.5790 os        1 FAX     -0.573200
     21 C6'        -0.5710    0.8060    2.1020 c3        1 FAX     -0.081400
     22 OP1        -2.2970   -1.5870   -2.9840 o         1 FAX     -0.914833
     23 OP2        -0.6040   -2.5820   -1.2830 o         1 FAX     -0.914833
     24 HN6         6.0370   -1.5630   -1.5860 hn        1 FAX      0.386300
     25 HN6A        4.5810   -2.2980   -1.8300 hn        1 FAX      0.386300
     26 HN7         1.2710   -1.1770   -1.5800 hn        1 FAX      0.406500
     27 H8          1.3500   -3.3900   -1.2540 h5        1 FAX      0.128200
     28 HN9         0.5080    0.1710   -0.3460 hn        1 FAX      0.533800
     29 H1          1.1700    2.1440    1.8360 h1        1 FAX      0.052700
     30 H2A        -0.7320    3.3960    1.0280 hc        1 FAX      0.039700
     31 H2B         0.0010    2.8660   -0.5460 hc        1 FAX      0.039700
     32 H3         -1.5970    1.1400   -0.9000 h1        1 FAX      0.150700
     33 HO3        -3.5510    1.9790   -0.3050 ho        1 FAX      0.404000
     34 H4         -2.7350    0.7840    1.8200 hc        1 FAX      0.023700
     35 H5         -0.8230   -1.2970    0.6600 h1        1 FAX      0.000200
     36 H5A        -2.4840   -1.4430    1.3980 h1        1 FAX      0.000200
     37 H6         -0.1650   -0.1570    2.4920 hc        1 FAX      0.027200
     38 H6A        -0.8130    1.4620    2.9750 hc        1 FAX      0.027200
     39 H2          5.3040    2.1150    0.9260 h5        1 FAX      0.004100
@<TRIPOS>BOND
     1    1    2 1   
     2    2   20 1   
     3    2   22 1   
     4    2   23 1   
     5    3    4 ar  
     6    3    8 ar  
     7    4    5 ar  
     8    4   39 1   
     9    5    6 ar  
    10    6    7 ar  
    11    6   13 1   
    12    7    8 ar  
    13    7   10 1   
    14    8    9 1   
    15    9   24 1   
    16    9   25 1   
    17   10   11 1   
    18   10   26 1   
    19   11   12 2   
    20   11   27 1   
    21   13   14 1   
    22   13   28 1   
    23   14   15 1   
    24   14   21 1   
    25   14   29 1   
    26   15   16 1   
    27   15   30 1   
    28   15   31 1   
    29   16   17 1   
    30   16   18 1   
    31   16   32 1   
    32   17   33 1   
    33   18   19 1   
    34   18   21 1   
    35   18   34 1   
    36   19   20 1   
    37   19   35 1   
    38   19   36 1   
    39   21   37 1   
    40   21   38 1   
@<TRIPOS>SUBSTRUCTURE
     1 FAX         1 TEMP              0 ****  ****    0 ROOT
