@<TRIPOS>MOLECULE
FAZ
   50    53     1     0     0
SMALL
bcc


@<TRIPOS>ATOM
      1 C1          0.0250    0.3260   -0.1000 c2        1 FAZ      0.238000
      2 N1          5.6960    0.7470    6.2570 n4        1 FAZ     -0.022000
      3 O1         -1.2310   -0.8100    3.0750 os        1 FAZ     -0.148000
      4 S1          3.1190    0.7680    4.2650 ss        1 FAZ      0.688000
      5 C2          1.3060    1.0280    0.2660 c3        1 FAZ     -0.190000
      6 N2         -0.3420    0.3370   -1.4050 n         1 FAZ     -0.288000
      7 O2          4.2800    0.0010    7.9660 o         1 FAZ     -0.163000
      8 C3          1.7330    0.8640    1.6640 c2        1 FAZ     -0.044000
      9 O3         -2.3120   -0.8760   -1.3050 o         1 FAZ     -0.244000
     10 C4          1.0180    0.2280    2.6390 c2        1 FAZ     -0.098000
     11 C5         -0.2980   -0.2770    2.2690 c2        1 FAZ      0.300000
     12 C6         -0.7240   -0.2600    0.9310 c2        1 FAZ     -0.310000
     13 C7          1.6420    0.0420    3.9320 c2        1 FAZ     -0.304000
     14 C8          1.2340   -0.7510    5.0040 c2        1 FAZ     -0.096000
     15 C9         -0.0230   -1.5140    5.0800 c3        1 FAZ     -0.156000
     16 C10        -1.1670   -0.7090    4.5070 c3        1 FAZ     -0.023000
     17 C11         3.2770    0.0800    5.7900 c2        1 FAZ     -0.524000
     18 C12         2.1720   -0.7280    6.0740 c2        1 FAZ     -0.010000
     19 C13         4.3250    0.2420    6.7690 c2        1 FAZ      0.347000
     20 C14         5.4970    1.8550    5.3300 c2        1 FAZ     -0.192000
     21 C15         5.2590    3.2260    5.8880 c3        1 FAZ     -0.139000
     22 C16         4.7910    4.2150    4.8880 c2        1 FAZ      0.001000
     23 C17         4.4650    3.8550    3.6160 c2        1 FAZ     -0.212000
     24 C18         4.5980    2.5090    3.2170 c1        1 FAZ     -0.024000
     25 C19         5.4750    1.6530    3.9640 c2        1 FAZ     -0.060000
     26 C20        -1.5100   -0.2590   -2.0030 c2        1 FAZ      0.317000
     27 C21        -1.6390   -0.0600   -3.4860 c3        1 FAZ     -0.249000
     28 C22         6.6100    1.0920    7.3800 c3        1 FAZ     -0.184000
     29 H1          2.7300    1.3100    1.8860 ha        1 FAZ      0.189000
     30 H2          1.1920    2.1370    0.0550 hc        1 FAZ      0.180500
     31 H3          2.1490    0.6640   -0.3980 hc        1 FAZ      0.180500
     32 H4         -1.7100   -0.7290    0.7220 ha        1 FAZ      0.233000
     33 H5         -2.1660   -1.1510    4.7970 h1        1 FAZ      0.143000
     34 H6         -0.2630   -1.7690    6.1490 hc        1 FAZ      0.144500
     35 H7          0.0800   -2.4880    4.5240 hc        1 FAZ      0.144500
     36 H8         -1.1190    0.3710    4.8010 h1        1 FAZ      0.143000
     37 H9          2.0350   -1.2850    7.0110 ha        1 FAZ      0.200000
     38 H10         4.5210    3.2020    6.7440 hc        1 FAZ      0.166000
     39 H11         6.2410    3.6020    6.3150 hc        1 FAZ      0.166000
     40 H12         4.6520    5.2470    5.2610 ha        1 FAZ      0.188000
     41 H13         4.0480    4.5820    2.8960 ha        1 FAZ      0.200000
     42 H14        -1.7040    1.0270   -3.7380 hc        1 FAZ      0.142000
     43 H15        -2.5810   -0.5660   -3.8260 hc        1 FAZ      0.142000
     44 H16        -0.7720   -0.5160   -4.0250 hc        1 FAZ      0.142000
     45 H17         6.1330    1.8710    8.0320 hx        1 FAZ      0.154000
     46 H18         7.5790    1.4740    6.9610 hx        1 FAZ      0.154000
     47 H19         6.7930    0.1670    7.9950 hx        1 FAZ      0.154000
     48 CL1         6.2520    0.3830    3.1880 cl        1 FAZ      0.104000
     49 H111        6.1210   -0.0410    5.7390 hn        1 FAZ      0.263000
     50 H22         0.2660    0.8140   -2.0450 hn        1 FAZ      0.258000
@<TRIPOS>BOND
     1    1    5 1   
     2    1    6 1   
     3    1   12 1   
     4    2   19 1   
     5    2   20 1   
     6    2   28 1   
     7    2   49 1   
     8    3   11 1   
     9    3   16 1   
    10    4   13 1   
    11    4   17 1   
    12    5    8 1   
    13    5   30 1   
    14    5   31 1   
    15    6   26 1   
    16    6   50 1   
    17    7   19 1   
    18    8   10 1   
    19    8   29 1   
    20    9   26 1   
    21   10   11 1   
    22   10   13 1   
    23   11   12 1   
    24   12   32 1   
    25   13   14 1   
    26   14   15 1   
    27   14   18 1   
    28   15   16 1   
    29   15   34 1   
    30   15   35 1   
    31   16   33 1   
    32   16   36 1   
    33   17   18 1   
    34   17   19 1   
    35   18   37 1   
    36   20   21 1   
    37   20   25 1   
    38   21   22 1   
    39   21   38 1   
    40   21   39 1   
    41   22   23 1   
    42   22   40 1   
    43   23   24 1   
    44   23   41 1   
    45   24   25 1   
    46   25   48 1   
    47   26   27 1   
    48   27   42 1   
    49   27   43 1   
    50   27   44 1   
    51   28   45 1   
    52   28   46 1   
    53   28   47 1   
@<TRIPOS>SUBSTRUCTURE
     1 FAZ         1 TEMP              0 ****  ****    0 ROOT
