@<TRIPOS>MOLECULE
FAZ
   48    42     1     0     0
SMALL
bcc


@<TRIPOS>ATOM
      1 C1         -0.0100   -2.6900   -3.6510 c1        1 FAZ      0.106000
      2 N1          1.1270    2.1140    3.4070 n3        1 FAZ     -0.294000
      3 O1         -1.3860   -1.5160   -0.6050 os        1 FAZ     -0.211000
      4 S1          2.1820    0.5450    0.3290 ss        1 FAZ      0.620000
      5 C2          0.8520   -1.6720   -3.8670 c1        1 FAZ     -0.200000
      6 N2         -0.2420   -2.7170   -5.1200 n         1 FAZ     -0.329000
      7 O2          1.2350    2.2650    1.0740 o         1 FAZ     -0.340000
      8 C3          1.1330   -0.7800   -2.8540 c1        1 FAZ     -0.084000
      9 O3         -2.0590   -4.0260   -4.9050 o         1 FAZ     -0.338000
     10 C4          0.5110   -0.9330   -1.5700 c1        1 FAZ     -0.088000
     11 C5         -0.3300   -1.9270   -1.3580 c1        1 FAZ      0.122000
     12 C6         -0.6180   -2.8400   -2.3960 c1        1 FAZ     -0.181000
     13 C7          1.4270   -0.6380   -0.2510 c1        1 FAZ     -0.365000
     14 C8          1.0690   -1.6320    0.9660 c1        1 FAZ     -0.110500
     15 C9         -0.0720   -2.5560    0.6150 c2        1 FAZ     -0.133000
     16 C10        -1.2560   -1.8460    0.4680 c3        1 FAZ     -0.018000
     17 C11         2.3130    0.3070    1.9490 c1        1 FAZ     -0.365000
     18 C12         1.6320   -1.0100    2.2900 c1        1 FAZ     -0.110500
     19 C13         1.5730    1.6520    2.0820 c1        1 FAZ      0.387000
     20 C14         0.2840    3.2960    3.5210 c2        1 FAZ      0.069000
     21 C15         0.6070    4.4600    2.8090 c2        1 FAZ     -0.112000
     22 C16        -0.2530    5.5530    2.8410 c1        1 FAZ     -0.120000
     23 C17        -1.4280    5.4900    3.5780 c2        1 FAZ     -0.128000
     24 C18        -1.7430    4.3430    4.2780 c1        1 FAZ     -0.119000
     25 C19        -0.8760    3.2380    4.2460 c1        1 FAZ     -0.075000
     26 C20        -1.3230   -3.4360   -5.6420 c2        1 FAZ      0.309000
     27 C21        -1.6380   -3.3690   -7.1590 c3        1 FAZ     -0.247000
     28 C22         1.6580    1.5070    4.5780 c3        1 FAZ     -0.066000
     29 H1          1.3230   -1.6090   -4.7110 ha        1 FAZ      0.133000
     30 H2          0.3760   -2.3060   -5.7030 hn        1 FAZ      0.230000
     31 H3          1.7740   -0.0190   -3.0160 ha        1 FAZ      0.134000
     32 H4         -1.2310   -3.5650   -2.2420 ha        1 FAZ      0.191000
     33 H5         -0.1820   -3.2130    1.3230 ha        1 FAZ      0.106500
     34 H6          0.1420   -3.0390   -0.2610 ha        1 FAZ      0.106500
     35 H7         -2.0000   -2.4110    0.7200 h1        1 FAZ      0.103000
     36 H8         -1.2350   -1.0550    1.0530 h1        1 FAZ      0.103000
     37 H9          1.5550   -1.4190    3.2260 DU        1 FAZ      0.150000
     38 H10         1.4580    4.5050    2.2760 ha        1 FAZ      0.155000
     39 H11        -0.0260    6.3810    2.3370 DU        1 FAZ      0.150000
     40 H12        -2.0390    6.2650    3.6010 ha        1 FAZ      0.139000
     41 H13        -2.5840    4.2980    4.8040 ha        1 FAZ      0.148000
     42 H14        -2.0690   -4.2140   -7.4440 hc        1 FAZ      0.109333
     43 H15        -0.7940   -3.2400   -7.6690 hc        1 FAZ      0.109333
     44 H16        -2.2690   -2.5880   -7.3410 hc        1 FAZ      0.109333
     45 H17         2.4750    0.9940    4.3430 h1        1 FAZ      0.086000
     46 H18         1.8850    2.2020    5.2330 h1        1 FAZ      0.086000
     47 H19         0.9680    0.8790    4.9770 h1        1 FAZ      0.086000
     48 CL1        -1.8970    1.9710    4.8430 cl        1 FAZ     -0.018000
@<TRIPOS>BOND
     1    1    5 1   
     2    1    6 1   
     3    2   19 1   
     4    2   20 1   
     5    2   28 1   
     6    3   11 1   
     7    3   16 1   
     8    4   13 1   
     9    4   17 1   
    10    5   29 1   
    11    6   26 1   
    12    6   30 1   
    13    7   19 1   
    14    8   10 1   
    15    8   31 1   
    16    9   26 1   
    17   11   12 1   
    18   12   32 1   
    19   13   14 1   
    20   14   18 1   
    21   15   16 1   
    22   15   33 1   
    23   15   34 1   
    24   16   35 1   
    25   16   36 1   
    26   17   18 1   
    27   20   21 1   
    28   20   25 1   
    29   21   22 1   
    30   21   38 1   
    31   22   23 1   
    32   23   24 1   
    33   23   40 1   
    34   24   41 1   
    35   25   48 1   
    36   26   27 1   
    37   27   42 1   
    38   27   43 1   
    39   27   44 1   
    40   28   45 1   
    41   28   46 1   
    42   28   47 1   
@<TRIPOS>SUBSTRUCTURE
     1 FAZ         1 TEMP              0 ****  ****    0 ROOT
