@<TRIPOS>MOLECULE
FAZ
   48    50     1     0     0
SMALL
bcc


@<TRIPOS>ATOM
      1 C1         -0.0220   -0.4000   -0.0830 ca        1 FAZ      0.106000
      2 N1          5.7740    1.0380    6.1770 n         1 FAZ     -0.312000
      3 O1         -0.0500    1.4220    3.1420 os        1 FAZ     -0.137000
      4 S1          3.6850    0.0630    3.7750 ss        1 FAZ      0.670000
      5 C2          1.0830   -1.2590    0.1510 ca        1 FAZ     -0.193000
      6 N2         -0.6740   -0.4680   -1.3200 n         1 FAZ     -0.330000
      7 O2          5.3600   -1.0640    6.9680 o         1 FAZ     -0.316000
      8 C3          1.7530   -1.2430    1.3650 ca        1 FAZ     -0.075000
      9 O3         -2.0340    1.4010   -1.1860 o         1 FAZ     -0.336000
     10 C4          1.3720   -0.3780    2.4020 ca        1 FAZ     -0.053000
     11 C5          0.2840    0.4730    2.1510 ca        1 FAZ      0.094000
     12 C6         -0.4230    0.4740    0.9490 ca        1 FAZ     -0.160000
     13 C7          2.0790   -0.3930    3.6630 c2        1 FAZ     -0.327000
     14 C8          1.5680   -0.7770    4.9000 c2        1 FAZ     -0.090000
     15 C9          0.1990   -1.2450    5.1590 c3        1 FAZ     -0.162000
     16 C10        -1.3330    1.5360    3.4340 c1        1 FAZ     -0.023000
     17 C11         3.7720   -0.2200    5.4190 c2        1 FAZ     -0.472000
     18 C12         2.5630   -0.6820    5.9190 c2        1 FAZ     -0.103000
     19 C13         4.9860   -0.1260    6.2430 c2        1 FAZ      0.386000
     20 C14         5.2870    2.2720    5.7200 c2        1 FAZ      0.102000
     21 C15         4.0150    2.7810    6.3470 c3        1 FAZ     -0.164000
     22 C16         3.5470    4.0920    5.8560 c2        1 FAZ     -0.087000
     23 C17         4.2180    4.7930    4.9150 c2        1 FAZ     -0.196000
     24 C18         5.3820    4.2700    4.2740 c1        1 FAZ     -0.047000
     25 C19         5.9180    3.0480    4.7680 c2        1 FAZ     -0.161000
     26 C20        -1.6290    0.4130   -1.8220 c2        1 FAZ      0.311000
     27 C21        -2.1560    0.0960   -3.2020 c3        1 FAZ     -0.246000
     28 C22         7.1110    0.9770    6.7240 c3        1 FAZ     -0.074000
     29 H1          2.6010   -1.9290    1.5230 ha        1 FAZ      0.146000
     30 H2         -0.3750   -1.2020   -1.9240 hn        1 FAZ      0.232000
     31 H3          1.4220   -1.9550   -0.6320 ha        1 FAZ      0.137000
     32 H4         -1.2880    1.1510    0.8370 ha        1 FAZ      0.199000
     33 H5         -0.5430   -0.6170    4.5990 hc        1 FAZ      0.090333
     34 H6          0.0820   -2.3050    4.8180 hc        1 FAZ      0.090333
     35 H7         -0.0410   -1.1970    6.2490 hc        1 FAZ      0.090333
     36 H8         -1.4030    2.3390    4.2170 ha        1 FAZ      0.034000
     37 H9          2.3870   -0.9620    6.9610 ha        1 FAZ      0.167000
     38 H10         3.1890    2.0210    6.2100 hc        1 FAZ      0.147500
     39 H11         4.1910    2.8680    7.4610 hc        1 FAZ      0.147500
     40 H12         2.6050    4.4520    6.3010 ha        1 FAZ      0.136000
     41 H13         3.8650    5.7800    4.5730 ha        1 FAZ      0.155000
     42 H14        -1.3300    0.1130   -3.9530 hc        1 FAZ      0.111000
     43 H15        -2.6450   -0.9070   -3.2150 hc        1 FAZ      0.111000
     44 H16        -2.9130    0.8720   -3.4790 hc        1 FAZ      0.111000
     45 H17         7.5370    2.0080    6.8240 h1        1 FAZ      0.097000
     46 H18         7.7690    0.3670    6.0480 h1        1 FAZ      0.097000
     47 H19         7.0770    0.4850    7.7340 h1        1 FAZ      0.097000
     48 CL1         7.3750    2.5430    4.0440 cl        1 FAZ     -0.002000
@<TRIPOS>BOND
     1    1    5 1   
     2    1    6 1   
     3    1   12 1   
     4    2   19 1   
     5    2   20 1   
     6    2   28 1   
     7    3   11 1   
     8    3   16 1   
     9    4   13 1   
    10    4   17 1   
    11    5    8 1   
    12    5   31 1   
    13    6   26 1   
    14    6   30 1   
    15    7   19 1   
    16    8   10 1   
    17    8   29 1   
    18    9   26 1   
    19   10   11 1   
    20   10   13 1   
    21   11   12 1   
    22   12   32 1   
    23   13   14 1   
    24   14   15 1   
    25   14   18 1   
    26   15   33 1   
    27   15   34 1   
    28   15   35 1   
    29   16   36 1   
    30   17   18 1   
    31   17   19 1   
    32   18   37 1   
    33   20   21 1   
    34   20   25 1   
    35   21   22 1   
    36   21   38 1   
    37   21   39 1   
    38   22   23 1   
    39   22   40 1   
    40   23   24 1   
    41   23   41 1   
    42   24   25 1   
    43   25   48 1   
    44   26   27 1   
    45   27   42 1   
    46   27   43 1   
    47   27   44 1   
    48   28   45 1   
    49   28   46 1   
    50   28   47 1   
@<TRIPOS>SUBSTRUCTURE
     1 FAZ         1 TEMP              0 ****  ****    0 ROOT
