@<TRIPOS>MOLECULE
FAZ
   48    51     1     0     0
SMALL
bcc


@<TRIPOS>ATOM
      1 C1         -4.3000    0.6930   -0.0760 ca        1 FAZ      0.089600
      2 N1          4.2290   -0.4130    0.4990 n         1 FAZ     -0.408000
      3 O1         -2.5980   -2.3510    1.0500 os        1 FAZ     -0.337900
      4 S1          1.0600   -0.1510    0.3850 ss        1 FAZ      0.102200
      5 C2         -3.1860    1.4640   -0.4980 ca        1 FAZ     -0.198000
      6 N2         -5.5730    1.2780   -0.1300 n         1 FAZ     -0.476100
      7 O2          4.0750   -2.6820    0.3180 o         1 FAZ     -0.593100
      8 C3         -1.9050    0.9350   -0.4660 ca        1 FAZ     -0.083000
      9 O3         -6.9160   -0.5490    0.3450 o         1 FAZ     -0.580100
     10 C4         -1.6690   -0.3710   -0.0160 ca        1 FAZ     -0.064000
     11 C5         -2.7750   -1.1290    0.4200 ca        1 FAZ      0.148100
     12 C6         -4.0770   -0.6180    0.3880 ca        1 FAZ     -0.169000
     13 C7         -0.3480   -0.9490   -0.0220 cc        1 FAZ     -0.051100
     14 C8         -0.1030   -2.2810   -0.3570 cd        1 FAZ     -0.121300
     15 C9         -1.1520   -3.2140   -0.8050 c3        1 FAZ     -0.045100
     16 C10        -2.2420   -3.4610    0.2240 c3        1 FAZ      0.142400
     17 C11         2.0330   -1.4950    0.1330 cc        1 FAZ     -0.205700
     18 C12         1.2820   -2.5950   -0.2640 cd        1 FAZ     -0.066000
     19 C13         3.4860   -1.5830    0.3180 c         1 FAZ      0.723700
     20 C14         3.6430    0.8760    0.4890 ca        1 FAZ      0.040600
     21 C15         2.8930    1.3340    1.5970 ca        1 FAZ     -0.131000
     22 C16         2.3820    2.6300    1.6230 ca        1 FAZ     -0.123000
     23 C17         2.5940    3.4940    0.5510 ca        1 FAZ     -0.120000
     24 C18         3.3140    3.0610   -0.5590 ca        1 FAZ     -0.122000
     25 C19         3.8330    1.7640   -0.6000 ca        1 FAZ      0.016400
     26 C20        -6.8020    0.6580    0.0700 c         1 FAZ      0.665100
     27 C21        -8.0180    1.5470   -0.0640 c3        1 FAZ     -0.179100
     28 C22         5.6470   -0.4860    0.7470 c3        1 FAZ      0.087300
     29 H1         -3.3260    2.4940   -0.8600 ha        1 FAZ      0.130000
     30 H2         -5.5910    2.2410   -0.3860 hn        1 FAZ      0.315500
     31 H3         -1.0570    1.5490   -0.8080 ha        1 FAZ      0.137000
     32 H4         -4.9050   -1.2540    0.7440 ha        1 FAZ      0.188000
     33 H5         -1.6220   -2.7950   -1.7390 hc        1 FAZ      0.060200
     34 H6         -0.6980   -4.2050   -1.0750 hc        1 FAZ      0.060200
     35 H7         -1.9090   -4.2210    0.9840 h1        1 FAZ      0.054200
     36 H8         -3.1700   -3.8250   -0.2940 h1        1 FAZ      0.054200
     37 H9          1.7060   -3.5810   -0.4750 ha        1 FAZ      0.173000
     38 H10         2.7430    0.6740    2.4680 ha        1 FAZ      0.156000
     39 H11         1.8120    2.9690    2.5020 ha        1 FAZ      0.144000
     40 H12         2.1950    4.5190    0.5790 ha        1 FAZ      0.142000
     41 H13         3.4780    3.7420   -1.4090 ha        1 FAZ      0.151000
     42 H14        -7.9820    2.3760    0.6830 hc        1 FAZ      0.069700
     43 H15        -8.0770    1.9800   -1.0910 hc        1 FAZ      0.069700
     44 H16        -8.9300    0.9290    0.1230 hc        1 FAZ      0.069700
     45 H17         6.1790    0.3200    0.1750 h1        1 FAZ      0.051033
     46 H18         5.8510   -0.3520    1.8430 h1        1 FAZ      0.051033
     47 H19         6.0360   -1.4890    0.4220 h1        1 FAZ      0.051033
     48 CL1         4.6900    1.2790   -1.9830 cl        1 FAZ     -0.071400
@<TRIPOS>BOND
     1    1    5 ar  
     2    1    6 1   
     3    1   12 ar  
     4    2   19 1   
     5    2   20 1   
     6    2   28 1   
     7    3   11 1   
     8    3   16 1   
     9    4   13 1   
    10    4   17 1   
    11    5    8 ar  
    12    5   29 1   
    13    6   26 1   
    14    6   30 1   
    15    7   19 2   
    16    8   10 ar  
    17    8   31 1   
    18    9   26 2   
    19   10   11 ar  
    20   10   13 1   
    21   11   12 ar  
    22   12   32 1   
    23   13   14 2   
    24   14   15 1   
    25   14   18 1   
    26   15   16 1   
    27   15   33 1   
    28   15   34 1   
    29   16   35 1   
    30   16   36 1   
    31   17   18 2   
    32   17   19 1   
    33   18   37 1   
    34   20   21 ar  
    35   20   25 ar  
    36   21   22 ar  
    37   21   38 1   
    38   22   23 ar  
    39   22   39 1   
    40   23   24 ar  
    41   23   40 1   
    42   24   25 ar  
    43   24   41 1   
    44   25   48 1   
    45   26   27 1   
    46   27   42 1   
    47   27   43 1   
    48   27   44 1   
    49   28   45 1   
    50   28   46 1   
    51   28   47 1   
@<TRIPOS>SUBSTRUCTURE
     1 FAZ         1 TEMP              0 ****  ****    0 ROOT
