@<TRIPOS>MOLECULE
FAZ
   48    51     1     0     0
SMALL
bcc


@<TRIPOS>ATOM
      1 C1         -0.4290   -0.4130   -0.3370 ca        1 FAZ      0.096000
      2 N1          5.7150    1.3340    5.3830 n7        1 FAZ     -0.252000
      3 O1         -1.0110    0.3940    3.1910 os        1 FAZ     -0.219000
      4 S1          3.2860    0.7990    3.4470 ss        1 FAZ      0.588000
      5 C2          0.9880   -0.4790   -0.3510 ca        1 FAZ     -0.194000
      6 N2         -1.1150   -0.5720   -1.5500 ns        1 FAZ     -0.330000
      7 O2          4.3380    0.6610    7.2310 os        1 FAZ      0.087000
      8 C3          1.7150   -0.3280    0.8200 ca        1 FAZ     -0.084000
      9 O3         -3.2980   -0.7510   -0.7940 o         1 FAZ     -0.342000
     10 C4          1.0780   -0.1030    2.0470 ca        1 FAZ     -0.060000
     11 C5         -0.3300   -0.0160    2.0550 ca        1 FAZ      0.099000
     12 C6         -1.0840   -0.1770    0.8880 ca        1 FAZ     -0.167000
     13 C7          1.8150    0.0100    3.2790 c2        1 FAZ     -0.318000
     14 C8          1.3720   -0.5040    4.4940 c2        1 FAZ     -0.082000
     15 C9          0.1380   -1.2960    4.6410 c3        1 FAZ     -0.133000
     16 C10        -1.1310   -0.5570    4.2500 c3        1 FAZ     -0.007000
     17 C11         3.3920    0.4840    5.1000 c2        1 FAZ     -0.306000
     18 C12         2.2870   -0.2270    5.5510 c2        1 FAZ     -0.146000
     19 C13         4.4810    0.9530    5.9120 c2        1 FAZ     -0.104000
     20 C14         6.2330    2.5980    5.5380 c2        1 FAZ      0.140000
     21 C15         5.4660    3.5800    6.3810 c3        1 FAZ     -0.144000
     22 C16         6.0980    4.9090    6.5220 c2        1 FAZ     -0.128000
     23 C17         7.2700    5.2180    5.9330 c2        1 FAZ     -0.166000
     24 C18         7.9910    4.2760    5.1240 c1        1 FAZ     -0.080000
     25 C19         7.4390    2.9990    4.9610 c2        1 FAZ     -0.223000
     26 C20        -2.4840   -0.7330   -1.7340 c2        1 FAZ      0.310000
     27 C21        -2.9420   -0.8870   -3.1670 c3        1 FAZ     -0.247000
     28 C22         5.2810    0.8000    8.1270 c2        1 FAZ     -0.259000
     29 H1          2.8140   -0.3910    0.7860 ha        1 FAZ      0.137000
     30 H2         -0.5420   -0.6150   -2.3630 hn        1 FAZ      0.230000
     31 H3          1.5290   -0.6530   -1.2930 ha        1 FAZ      0.132000
     32 H4         -2.1820   -0.0990    0.9510 ha        1 FAZ      0.187000
     33 H5         -1.9250   -1.3010    3.9690 h1        1 FAZ      0.093500
     34 H6          0.0250   -1.6410    5.7040 hc        1 FAZ      0.098500
     35 H7          0.2340   -2.2160    3.9980 hc        1 FAZ      0.098500
     36 H8         -1.4970    0.0840    5.0990 h1        1 FAZ      0.093500
     37 H9          2.1300   -0.5410    6.5850 ha        1 FAZ      0.158000
     38 H10         4.4370    3.7080    5.9330 hc        1 FAZ      0.142000
     39 H11         5.3170    3.1380    7.4120 hc        1 FAZ      0.142000
     40 H12         5.5370    5.6260    7.1440 ha        1 FAZ      0.132000
     41 H13         7.7260    6.2150    6.0480 ha        1 FAZ      0.149000
     42 H14        -2.6720    0.0160   -3.7650 hc        1 FAZ      0.109333
     43 H15        -2.4780   -1.7890   -3.6340 hc        1 FAZ      0.109333
     44 H16        -4.0530   -1.0070   -3.1730 hc        1 FAZ      0.109333
     45 H17         6.1510    0.7180    4.7260 hn        1 FAZ      0.256000
     46 H18         6.3310    0.9690    7.8850 h4        1 FAZ      0.165000
     47 H19         4.8970    0.7380    9.1530 h4        1 FAZ      0.165000
     48 Cl1         8.3130    1.8900    3.9920 cl        1 FAZ     -0.034000
@<TRIPOS>BOND
     1    1    5 1   
     2    1    6 1   
     3    1   12 1   
     4    2   19 1   
     5    2   20 1   
     6    2   45 1   
     7    3   11 1   
     8    3   16 1   
     9    4   13 1   
    10    4   17 1   
    11    5    8 1   
    12    5   31 1   
    13    6   26 1   
    14    6   30 1   
    15    7   19 1   
    16    7   28 1   
    17    8   10 1   
    18    8   29 1   
    19    9   26 1   
    20   10   11 1   
    21   10   13 1   
    22   11   12 1   
    23   12   32 1   
    24   13   14 1   
    25   14   15 1   
    26   14   18 1   
    27   15   16 1   
    28   15   34 1   
    29   15   35 1   
    30   16   33 1   
    31   16   36 1   
    32   17   18 1   
    33   17   19 1   
    34   18   37 1   
    35   20   21 1   
    36   20   25 1   
    37   21   22 1   
    38   21   38 1   
    39   21   39 1   
    40   22   23 1   
    41   22   40 1   
    42   23   24 1   
    43   23   41 1   
    44   24   25 1   
    45   25   48 1   
    46   26   27 1   
    47   27   42 1   
    48   27   43 1   
    49   27   44 1   
    50   28   46 1   
    51   28   47 1   
@<TRIPOS>SUBSTRUCTURE
     1 FAZ         1 TEMP              0 ****  ****    0 ROOT
