@<TRIPOS>MOLECULE
FB
   41    42     1     0     0
SMALL
bcc


@<TRIPOS>ATOM
      1 O12        -0.2500   -0.0670    0.5010 o         1 FB      -0.520100
      2 C12         0.9370    0.2440    0.3950 c         1 FB       0.570100
      3 C5A         1.8850    0.1200    1.5190 ce        1 FB      -0.202200
      4 C5          3.1680   -0.2610    1.4270 c2        1 FB      -0.103400
      5 C6          3.8240   -0.6480    0.1030 c3        1 FB       0.291400
      6 O6          2.8090   -1.1550   -0.7530 oh        1 FB      -0.579800
      7 N10         4.8550   -1.6670    0.2160 ns        1 FB      -0.580900
      8 C9          6.1490   -1.3340    0.5320 c         1 FB       0.684500
      9 O9          7.0290   -2.2050    0.6640 o         1 FB      -0.637500
     10 C4          4.0350   -0.2810    2.6410 c3        1 FB      -0.093200
     11 C3          5.0780    0.8300    2.6480 c3        1 FB       0.134400
     12 O2          6.3390    0.4290    2.1400 os        1 FB      -0.411600
     13 C1          6.4890    0.1860    0.7320 c3        1 FB       0.243200
     14 N8          5.6920    1.0150   -0.1390 ns        1 FB      -0.550900
     15 C7          4.4160    0.6690   -0.5030 c         1 FB       0.667500
     16 O7          3.7300    1.3350   -1.2970 o         1 FB      -0.619500
     17 C1A         8.0400    0.3580    0.5040 c3        1 FB       0.170100
     18 O1A         8.4070   -0.2420   -0.7200 oh        1 FB      -0.596800
     19 C2A         8.5510    1.8210    0.4630 c3        1 FB       0.162800
     20 C2B         8.7670    2.3300   -0.9570 c3        1 FB      -0.113100
     21 O2A         7.5910    2.6360    1.1280 oh        1 FB      -0.609800
     22 C3A         9.8870    1.8760    1.2370 c3        1 FB       0.097400
     23 O3A        10.2540    3.2450    1.3070 oh        1 FB      -0.612800
     24 H12         1.3610    0.6620   -0.5470 h4        1 FB       0.029200
     25 H5A         1.4560    0.3870    2.5030 ha        1 FB       0.151000
     26 HO6         3.0310   -0.9180   -1.6670 ho        1 FB       0.438000
     27 H10         4.5740   -2.6180    0.1440 hn        1 FB       0.344500
     28 H41         3.3910   -0.1490    3.5540 hc        1 FB       0.073700
     29 H42         4.5450   -1.2760    2.7550 hc        1 FB       0.073700
     30 H31         5.3350    1.0950    3.7140 h1        1 FB       0.066700
     31 H32         4.7020    1.7490    2.1290 h1        1 FB       0.066700
     32 HN8         6.0590    1.9130   -0.3760 hn        1 FB       0.358500
     33 H1A         8.5160   -0.1810    1.3740 h1        1 FB       0.079700
     34 H1O         8.4630   -1.1980   -0.5710 ho        1 FB       0.434000
     35 HB1         7.8100    2.3260   -1.5280 hc        1 FB       0.055033
     36 HB2         9.1680    3.3730   -0.9180 hc        1 FB       0.055033
     37 HB3         9.4990    1.6770   -1.4890 hc        1 FB       0.055033
     38 H2O         8.0000    3.5060    1.2380 ho        1 FB       0.430000
     39 HA1        10.6690    1.2900    0.6890 h1        1 FB       0.042700
     40 HA2         9.7490    1.4650    2.2720 h1        1 FB       0.042700
     41 H3O        11.0440    3.2930    1.8570 ho        1 FB       0.413000
@<TRIPOS>BOND
     1    1    2 2   
     2    2    3 1   
     3    2   24 1   
     4    3    4 2   
     5    3   25 1   
     6    4    5 1   
     7    4   10 1   
     8    5    6 1   
     9    5    7 1   
    10    5   15 1   
    11    6   26 1   
    12    7    8 1   
    13    7   27 1   
    14    8    9 2   
    15    8   13 1   
    16   10   11 1   
    17   10   28 1   
    18   10   29 1   
    19   11   12 1   
    20   11   30 1   
    21   11   31 1   
    22   12   13 1   
    23   13   14 1   
    24   13   17 1   
    25   14   15 1   
    26   14   32 1   
    27   15   16 2   
    28   17   18 1   
    29   17   19 1   
    30   17   33 1   
    31   18   34 1   
    32   19   20 1   
    33   19   21 1   
    34   19   22 1   
    35   20   35 1   
    36   20   36 1   
    37   20   37 1   
    38   21   38 1   
    39   22   23 1   
    40   22   39 1   
    41   22   40 1   
    42   23   41 1   
@<TRIPOS>SUBSTRUCTURE
     1 FB          1 TEMP              0 ****  ****    0 ROOT
