@<TRIPOS>MOLECULE
FB
   41    42     1     0     0
SMALL
bcc


@<TRIPOS>ATOM
      1 O12        -0.2480   -0.0800    0.4770 o         1 FB      -0.520100
      2 C12         0.9400    0.2300    0.3710 c         1 FB       0.570100
      3 C5A         1.8800    0.1380    1.5040 ce        1 FB      -0.202200
      4 C5          3.1640   -0.2440    1.4320 c2        1 FB      -0.103400
      5 C6          3.8290   -0.6660    0.1230 c3        1 FB       0.291400
      6 O6          2.8200   -1.1970   -0.7270 oh        1 FB      -0.579800
      7 N10         4.8610   -1.6800    0.2710 n         1 FB      -0.580900
      8 C9          6.1520   -1.3380    0.5870 c         1 FB       0.684500
      9 O9          7.0310   -2.2040    0.7480 o         1 FB      -0.637500
     10 C4          4.0220   -0.2310    2.6510 c3        1 FB      -0.093200
     11 C3          5.0640    0.8810    2.6350 c3        1 FB       0.134400
     12 O2          6.3290    0.4690    2.1470 os        1 FB      -0.411600
     13 C1          6.4890    0.1880    0.7470 c3        1 FB       0.243200
     14 N8          5.6970    0.9920   -0.1510 n         1 FB      -0.550900
     15 C7          4.4250    0.6350   -0.5150 c         1 FB       0.667500
     16 O7          3.7430    1.2790   -1.3310 o         1 FB      -0.619500
     17 C1A         8.0410    0.3540    0.5260 c3        1 FB       0.170100
     18 O1A         8.4180   -0.2780   -0.6790 oh        1 FB      -0.596800
     19 C2A         8.5510    1.8170    0.4480 c3        1 FB       0.162800
     20 C2B         8.7770    2.2880   -0.9840 c3        1 FB      -0.113100
     21 O2A         7.5870    2.6480    1.0850 oh        1 FB      -0.609800
     22 C3A         9.8820    1.8940    1.2300 c3        1 FB       0.097400
     23 O3A        10.2470    3.2650    1.2650 oh        1 FB      -0.612800
     24 H12         1.3700    0.6230   -0.5800 h4        1 FB       0.029200
     25 H5A         1.4440    0.4310    2.4770 ha        1 FB       0.151000
     26 HO6         3.0490   -0.9850   -1.6450 ho        1 FB       0.438000
     27 H10         4.5800   -2.6340    0.2220 hn        1 FB       0.344500
     28 H41         4.5320   -1.2210    2.7950 hc        1 FB       0.073700
     29 H42         3.3720   -0.0740    3.5560 hc        1 FB       0.073700
     30 H31         4.6910    1.7860    2.0900 h1        1 FB       0.066700
     31 H32         5.3140    1.1750    3.6960 h1        1 FB       0.066700
     32 HN8         6.0650    1.8840   -0.4100 hn        1 FB       0.358500
     33 H1A         8.5120   -0.1600    1.4130 h1        1 FB       0.079700
     34 H1O         8.4740   -1.2290   -0.5030 ho        1 FB       0.434000
     35 HB1         9.1760    3.3310   -0.9700 hc        1 FB       0.055033
     36 HB2         7.8240    2.2670   -1.5610 hc        1 FB       0.055033
     37 HB3         9.5130    1.6200   -1.4920 hc        1 FB       0.055033
     38 H2O         7.9930    3.5220    1.1740 ho        1 FB       0.430000
     39 HA1         9.7380    1.5110    2.2750 h1        1 FB       0.042700
     40 HA2        10.6680    1.2940    0.7040 h1        1 FB       0.042700
     41 H3O        11.0340    3.3290    1.8180 ho        1 FB       0.413000
@<TRIPOS>BOND
     1    1    2 2   
     2    2    3 1   
     3    2   24 1   
     4    3    4 2   
     5    3   25 1   
     6    4    5 1   
     7    4   10 1   
     8    5    6 1   
     9    5    7 1   
    10    5   15 1   
    11    6   26 1   
    12    7    8 1   
    13    7   27 1   
    14    8    9 2   
    15    8   13 1   
    16   10   11 1   
    17   10   28 1   
    18   10   29 1   
    19   11   12 1   
    20   11   30 1   
    21   11   31 1   
    22   12   13 1   
    23   13   14 1   
    24   13   17 1   
    25   14   15 1   
    26   14   32 1   
    27   15   16 2   
    28   17   18 1   
    29   17   19 1   
    30   17   33 1   
    31   18   34 1   
    32   19   20 1   
    33   19   21 1   
    34   19   22 1   
    35   20   35 1   
    36   20   36 1   
    37   20   37 1   
    38   21   38 1   
    39   22   23 1   
    40   22   39 1   
    41   22   40 1   
    42   23   41 1   
@<TRIPOS>SUBSTRUCTURE
     1 FB          1 TEMP              0 ****  ****    0 ROOT
