@<TRIPOS>MOLECULE
FB
   41    42     1     0     0
SMALL
bcc


@<TRIPOS>ATOM
      1 O12        -5.7540    1.2160   -0.8540 o         1 FB      -0.518100
      2 C12        -4.6030    0.7800   -0.8950 c         1 FB       0.570100
      3 C5A        -3.4380    1.6070   -0.5250 ce        1 FB      -0.198200
      4 C5         -2.3430    1.1780    0.1200 c2        1 FB      -0.112400
      5 C6         -2.1680   -0.2670    0.5870 c3        1 FB       0.292400
      6 O6         -3.4610   -0.8040    0.8270 oh        1 FB      -0.576800
      7 N10        -1.3810   -0.4200    1.7980 n         1 FB      -0.584900
      8 C9         -0.0060   -0.3170    1.7520 c         1 FB       0.688500
      9 O9          0.6650   -0.2120    2.7900 o         1 FB      -0.599500
     10 C4         -1.2080    2.1140    0.3780 c3        1 FB      -0.091200
     11 C3         -0.0130    1.8620   -0.5310 c3        1 FB       0.130400
     12 O2          0.9960    1.0340    0.0290 os        1 FB      -0.435600
     13 C1          0.6840   -0.3340    0.3450 c3        1 FB       0.228200
     14 N8         -0.1170   -0.9900   -0.6630 n         1 FB      -0.570900
     15 C7         -1.4880   -1.0350   -0.5950 c         1 FB       0.672500
     16 O7         -2.1870   -1.6560   -1.4130 o         1 FB      -0.614500
     17 C1A         2.0960   -1.0220    0.5280 c3        1 FB       0.129100
     18 O1A         1.9270   -2.4070    0.7150 oh        1 FB      -0.570800
     19 C2A         3.0970   -0.6890   -0.6080 c3        1 FB       0.136800
     20 C2B         4.0700   -1.8440   -0.8310 c3        1 FB      -0.098100
     21 O2A         2.3980   -0.5120   -1.8330 oh        1 FB      -0.606800
     22 C3A         3.8820    0.5750   -0.2060 c3        1 FB       0.097400
     23 O3A         4.3990    1.1320   -1.4050 oh        1 FB      -0.601800
     24 H12        -4.3690   -0.2550   -1.2380 h4        1 FB       0.030200
     25 H5A        -3.5180    2.6650   -0.8360 ha        1 FB       0.150000
     26 HO6        -3.4310   -1.7600    0.6620 ho        1 FB       0.439000
     27 H10        -1.8610   -0.3510    2.6670 hn        1 FB       0.342500
     28 H41        -1.5570    3.1680    0.1930 hc        1 FB       0.076200
     29 H42        -0.8820    2.0770    1.4520 hc        1 FB       0.076200
     30 H31        -0.3390    1.4660   -1.5280 h1        1 FB       0.063700
     31 H32         0.5480    2.8290   -0.6880 h1        1 FB       0.063700
     32 HN8         0.3610   -1.3380   -1.4680 hn        1 FB       0.355500
     33 H1A         2.5100   -0.6570    1.5150 h1        1 FB       0.123700
     34 H1O         1.7610   -2.8120   -0.1470 ho        1 FB       0.411000
     35 HB1         4.9320   -1.4820   -1.4400 hc        1 FB       0.055700
     36 HB2         4.4330   -2.2290    0.1510 hc        1 FB       0.055700
     37 HB3         3.5670   -2.6700   -1.3880 hc        1 FB       0.055700
     38 H2O         2.2670    0.4370   -1.9610 ho        1 FB       0.428000
     39 HA1         3.2050    1.3190    0.2940 h1        1 FB       0.047700
     40 HA2         4.7160    0.2970    0.4900 h1        1 FB       0.047700
     41 H3O         4.9090    1.9090   -1.1470 ho        1 FB       0.409000
@<TRIPOS>BOND
     1    1    2 2   
     2    2    3 1   
     3    2   24 1   
     4    3    4 2   
     5    3   25 1   
     6    4    5 1   
     7    4   10 1   
     8    5    6 1   
     9    5    7 1   
    10    5   15 1   
    11    6   26 1   
    12    7    8 1   
    13    7   27 1   
    14    8    9 2   
    15    8   13 1   
    16   10   11 1   
    17   10   28 1   
    18   10   29 1   
    19   11   12 1   
    20   11   30 1   
    21   11   31 1   
    22   12   13 1   
    23   13   14 1   
    24   13   17 1   
    25   14   15 1   
    26   14   32 1   
    27   15   16 2   
    28   17   18 1   
    29   17   19 1   
    30   17   33 1   
    31   18   34 1   
    32   19   20 1   
    33   19   21 1   
    34   19   22 1   
    35   20   35 1   
    36   20   36 1   
    37   20   37 1   
    38   21   38 1   
    39   22   23 1   
    40   22   39 1   
    41   22   40 1   
    42   23   41 1   
@<TRIPOS>SUBSTRUCTURE
     1 FB          1 TEMP              0 ****  ****    0 ROOT
