@<TRIPOS>MOLECULE
FB
   41    42     1     0     0
SMALL
bcc


@<TRIPOS>ATOM
      1 O12        -0.2610   -0.0500    0.5410 o         1 FB      -0.520100
      2 C12         0.9270    0.2560    0.4280 c         1 FB       0.570100
      3 C5A         1.8780    0.1440    1.5500 ce        1 FB      -0.202200
      4 C5          3.1590   -0.2420    1.4610 c2        1 FB      -0.103400
      5 C6          3.8100   -0.6500    0.1400 c3        1 FB       0.291400
      6 O6          2.7910   -1.1640   -0.7070 oh        1 FB      -0.579800
      7 N10         4.8380   -1.6700    0.2640 n         1 FB      -0.580900
      8 C9          6.1350   -1.3380    0.5730 c         1 FB       0.684500
      9 O9          7.0110   -2.2100    0.7130 o         1 FB      -0.637500
     10 C4          4.0290   -0.2500    2.6720 c3        1 FB      -0.093200
     11 C3          5.0760    0.8580    2.6620 c3        1 FB       0.134400
     12 O2          6.3350    0.4460    2.1550 os        1 FB      -0.411600
     13 C1          6.4800    0.1840    0.7510 c3        1 FB       0.243200
     14 N8          5.6830    1.0040   -0.1290 n         1 FB      -0.550900
     15 C7          4.4050    0.6570   -0.4850 c         1 FB       0.667500
     16 O7          3.7190    1.3150   -1.2860 o         1 FB      -0.619500
     17 C1A         8.0300    0.3470    0.5170 c3        1 FB       0.170100
     18 O1A         8.3920   -0.2700   -0.7010 oh        1 FB      -0.596800
     19 C2A         8.5460    1.8080    0.4540 c3        1 FB       0.162800
     20 C2B         8.7610    2.2970   -0.9730 c3        1 FB      -0.113100
     21 O2A         7.5920    2.6350    1.1110 oh        1 FB      -0.609800
     22 C3A         9.8840    1.8690    1.2240 c3        1 FB       0.097400
     23 O3A        10.2560    3.2370    1.2750 oh        1 FB      -0.612800
     24 H12         1.3510    0.6590   -0.5210 h4        1 FB       0.029200
     25 H5A         1.4520    0.4250    2.5320 ha        1 FB       0.151000
     26 HO6         3.0120   -0.9410   -1.6240 ho        1 FB       0.438000
     27 H10         4.5530   -2.6220    0.2050 hn        1 FB       0.344500
     28 H41         4.5360   -1.2440    2.7980 hc        1 FB       0.073700
     29 H42         3.3880   -0.1030    3.5850 hc        1 FB       0.073700
     30 H31         5.3370    1.1360    3.7240 h1        1 FB       0.066700
     31 H32         4.7020    1.7710    2.1320 h1        1 FB       0.066700
     32 HN8         6.0530    1.8970   -0.3790 hn        1 FB       0.358500
     33 H1A         8.5070   -0.1820    1.3920 h1        1 FB       0.079700
     34 H1O         8.4460   -1.2240   -0.5380 ho        1 FB       0.434000
     35 HB1         9.1650    3.3390   -0.9490 hc        1 FB       0.055033
     36 HB2         9.4890    1.6340   -1.4980 hc        1 FB       0.055033
     37 HB3         7.8020    2.2890   -1.5410 hc        1 FB       0.055033
     38 H2O         8.0030    3.5050    1.2090 ho        1 FB       0.430000
     39 HA1         9.7480    1.4720    2.2650 h1        1 FB       0.042700
     40 HA2        10.6630    1.2720    0.6830 h1        1 FB       0.042700
     41 H3O        11.0480    3.2900    1.8220 ho        1 FB       0.413000
@<TRIPOS>BOND
     1    1    2 2   
     2    2    3 1   
     3    2   24 1   
     4    3    4 2   
     5    3   25 1   
     6    4    5 1   
     7    4   10 1   
     8    5    6 1   
     9    5    7 1   
    10    5   15 1   
    11    6   26 1   
    12    7    8 1   
    13    7   27 1   
    14    8    9 2   
    15    8   13 1   
    16   10   11 1   
    17   10   28 1   
    18   10   29 1   
    19   11   12 1   
    20   11   30 1   
    21   11   31 1   
    22   12   13 1   
    23   13   14 1   
    24   13   17 1   
    25   14   15 1   
    26   14   32 1   
    27   15   16 2   
    28   17   18 1   
    29   17   19 1   
    30   17   33 1   
    31   18   34 1   
    32   19   20 1   
    33   19   21 1   
    34   19   22 1   
    35   20   35 1   
    36   20   36 1   
    37   20   37 1   
    38   21   38 1   
    39   22   23 1   
    40   22   39 1   
    41   22   40 1   
    42   23   41 1   
@<TRIPOS>SUBSTRUCTURE
     1 FB          1 TEMP              0 ****  ****    0 ROOT
