@<TRIPOS>MOLECULE
FB1
   17    17     1     0     0
SMALL
bcc


@<TRIPOS>ATOM
      1 C4          3.0620   -0.5140    0.0090 ca        1 FB1     -0.064000
      2 CL1         0.1860    2.2090    0.0890 cl        1 FB1     -0.085400
      3 C3          2.3510   -1.7130   -0.0130 ca        1 FB1     -0.153000
      4 C2          0.9590   -1.6930   -0.0100 ca        1 FB1     -0.023000
      5 C1          0.2420   -0.4870    0.0140 ca        1 FB1     -0.359500
      6 C6          0.9810    0.7040    0.0440 ca        1 FB1      0.125400
      7 C5          2.3790    0.7000    0.0390 ca        1 FB1     -0.152000
      8 S          -1.4640   -0.5880   -0.0440 sy        1 FB1      1.522200
      9 N          -1.9280    0.1940    1.2680 n3        1 FB1     -1.025700
     10 O1         -1.9250    0.0720   -1.1960 o         1 FB1     -0.651800
     11 O2         -1.8070   -1.9540    0.0820 o         1 FB1     -0.651800
     12 H5          2.9370    1.6490    0.0560 ha        1 FB1      0.154000
     13 H2          0.4000   -2.6480   -0.0290 ha        1 FB1      0.172000
     14 H4          4.1630   -0.5220    0.0030 ha        1 FB1      0.143000
     15 H3          2.8870   -2.6740   -0.0360 ha        1 FB1      0.146000
     16 H1N        -2.0810   -0.2470    2.1400 hn        1 FB1      0.451800
     17 H2N        -2.1040    1.1670    1.2950 hn        1 FB1      0.451800
@<TRIPOS>BOND
     1    1    3 ar  
     2    1    7 ar  
     3    1   14 1   
     4    2    6 1   
     5    3    4 ar  
     6    3   15 1   
     7    4    5 ar  
     8    4   13 1   
     9    5    6 ar  
    10    5    8 1   
    11    6    7 ar  
    12    7   12 1   
    13    8    9 1   
    14    8   10 2   
    15    8   11 2   
    16    9   16 1   
    17    9   17 1   
@<TRIPOS>SUBSTRUCTURE
     1 FB1         1 TEMP              0 ****  ****    0 ROOT
