@<TRIPOS>MOLECULE
FB1
   18    18     1     0     0
SMALL
bcc


@<TRIPOS>ATOM
      1 C4          0.0580    0.0460   -0.0180 ca        1 FB1      0.011000
      2 CL1        -0.9340    0.1190    3.8180 cl        1 FB1     -0.039400
      3 C3          1.4540    0.0070    0.0280 ca        1 FB1     -0.140000
      4 C2          2.1060   -0.0330    1.2500 ca        1 FB1      0.009000
      5 C1          1.3950   -0.0400    2.4770 ca        1 FB1     -0.534500
      6 C6         -0.0160    0.0380    2.3950 ca        1 FB1      0.134400
      7 C5         -0.6780    0.0690    1.1700 ca        1 FB1     -0.137000
      8 S           2.2580   -0.2340    3.8270 sy        1 FB1      1.483200
      9 N           1.8450    1.4330    4.6550 n4        1 FB1     -0.788500
     10 O1          1.7670   -1.1040    4.7710 o         1 FB1     -0.557800
     11 O2          3.6180   -0.0900    3.6440 o         1 FB1     -0.557800
     12 H5         -1.7810    0.1100    1.1350 ha        1 FB1      0.189000
     13 H2          3.2140   -0.0710    1.2710 ha        1 FB1      0.182000
     14 H4         -0.4680    0.0620   -0.9900 ha        1 FB1      0.181000
     15 H3          2.0390    0.0010   -0.9090 ha        1 FB1      0.183000
     16 H1N         2.6990    1.9630    4.8290 hn        1 FB1      0.460133
     17 H2N         1.3870    1.2790    5.5530 hn        1 FB1      0.460133
     18 HN3         1.2310    2.0130    4.0900 hn        1 FB1      0.460133
@<TRIPOS>BOND
     1    1    3 ar  
     2    1    7 ar  
     3    1   14 1   
     4    2    6 1   
     5    3    4 ar  
     6    3   15 1   
     7    4    5 ar  
     8    4   13 1   
     9    5    6 ar  
    10    5    8 1   
    11    6    7 ar  
    12    7   12 1   
    13    8    9 1   
    14    8   10 2   
    15    8   11 2   
    16    9   16 1   
    17    9   17 1   
    18    9   18 1   
@<TRIPOS>SUBSTRUCTURE
     1 FB1         1 TEMP              0 ****  ****    0 ROOT
