@<TRIPOS>MOLECULE
FB1
   18    18     1     0     0
SMALL
bcc


@<TRIPOS>ATOM
      1 C4          0.0520    0.0560   -0.0160 ca        1 FB1      0.011000
      2 CL1        -0.9330    0.1380    3.8220 cl        1 FB1     -0.039400
      3 C3          1.4480    0.0050    0.0270 ca        1 FB1     -0.140000
      4 C2          2.1010   -0.0390    1.2490 ca        1 FB1      0.009000
      5 C1          1.3930   -0.0400    2.4770 ca        1 FB1     -0.534500
      6 C6         -0.0180    0.0490    2.3970 ca        1 FB1      0.134400
      7 C5         -0.6810    0.0850    1.1730 ca        1 FB1     -0.137000
      8 S           2.2560   -0.2400    3.8260 sy        1 FB1      1.483200
      9 N           1.8580    1.4310    4.6530 n4        1 FB1     -0.788500
     10 O1          1.7600   -1.1060    4.7710 o         1 FB1     -0.557800
     11 O2          3.6170   -0.1070    3.6400 o         1 FB1     -0.557800
     12 H5         -1.7850    0.1340    1.1400 ha        1 FB1      0.189000
     13 H2          3.2090   -0.0860    1.2680 ha        1 FB1      0.182000
     14 H4         -0.4750    0.0760   -0.9870 ha        1 FB1      0.181000
     15 H3          2.0310   -0.0060   -0.9100 ha        1 FB1      0.183000
     16 H1N         1.4000    1.2800    5.5530 hn        1 FB1      0.460133
     17 H2N         2.7160    1.9540    4.8250 hn        1 FB1      0.460133
     18 HN3         1.2460    2.0140    4.0890 hn        1 FB1      0.460133
@<TRIPOS>BOND
     1    1    3 ar  
     2    1    7 ar  
     3    1   14 1   
     4    2    6 1   
     5    3    4 ar  
     6    3   15 1   
     7    4    5 ar  
     8    4   13 1   
     9    5    6 ar  
    10    5    8 1   
    11    6    7 ar  
    12    7   12 1   
    13    8    9 1   
    14    8   10 2   
    15    8   11 2   
    16    9   16 1   
    17    9   17 1   
    18    9   18 1   
@<TRIPOS>SUBSTRUCTURE
     1 FB1         1 TEMP              0 ****  ****    0 ROOT
