@<TRIPOS>MOLECULE
FB1
   18    18     1     0     0
SMALL
bcc


@<TRIPOS>ATOM
      1 C4          0.0420    0.0230   -0.0080 ca        1 FB1      0.011000
      2 Cl1        -0.9180    0.0840    3.8370 cl        1 FB1     -0.039400
      3 C3          1.4400    0.0100    0.0260 ca        1 FB1     -0.140000
      4 C2          2.1020   -0.0160    1.2430 ca        1 FB1      0.009000
      5 C1          1.4020   -0.0350    2.4760 ca        1 FB1     -0.534500
      6 C6         -0.0110    0.0180    2.4060 ca        1 FB1      0.134400
      7 C5         -0.6830    0.0350    1.1870 ca        1 FB1     -0.137000
      8 S           2.2800   -0.2100    3.8190 sy        1 FB1      1.483200
      9 N           1.8440    1.4510    4.6470 nz        1 FB1     -0.788500
     10 O1          1.8130   -1.0870    4.7680 o         1 FB1     -0.557800
     11 O2          3.6360   -0.0410    3.6240 o         1 FB1     -0.557800
     12 H5         -1.7880    0.0550    1.1610 ha        1 FB1      0.189000
     13 H2          3.2110   -0.0340    1.2540 ha        1 FB1      0.182000
     14 H4         -0.4920    0.0290   -0.9750 ha        1 FB1      0.181000
     15 H3          2.0170    0.0130   -0.9160 ha        1 FB1      0.183000
     16 H1N         1.3960    1.2900    5.5500 hn        1 FB1      0.460133
     17 H2N         2.6890    1.9960    4.8130 hn        1 FB1      0.460133
     18 HN3         1.2130    2.0170    4.0870 hn        1 FB1      0.460133
@<TRIPOS>BOND
     1    1    3 ar  
     2    1    7 ar  
     3    1   14 1   
     4    2    6 1   
     5    3    4 ar  
     6    3   15 1   
     7    4    5 ar  
     8    4   13 1   
     9    5    6 ar  
    10    5    8 1   
    11    6    7 ar  
    12    7   12 1   
    13    8    9 1   
    14    8   10 2   
    15    8   11 2   
    16    9   16 1   
    17    9   17 1   
    18    9   18 1   
@<TRIPOS>SUBSTRUCTURE
     1 FB1         1 TEMP              0 ****  ****    0 ROOT
