@<TRIPOS>MOLECULE
FB1
   17    13     1     0     0
SMALL
bcc


@<TRIPOS>ATOM
      1 C4         -1.3040    0.1800   -2.2190 c1        1 FB1     -0.064000
      2 CL1        -2.1280    0.2970    1.7000 cl        1 FB1     -0.007000
      3 C3          0.0810    0.1370   -2.2350 c1        1 FB1     -0.088000
      4 C2          0.7880    0.1520   -1.0430 c1        1 FB1     -0.088000
      5 C1          0.1100    0.2100    0.1650 c1        1 FB1     -0.804000
      6 C6         -1.2750    0.2530    0.1800 c2        1 FB1      0.047000
      7 C5         -1.9820    0.2380   -1.0110 c2        1 FB1     -0.152000
      8 S           1.0160    0.2830    1.6860 ss        1 FB1      2.861000
      9 N           1.4930   -1.2220    2.1360 n2        1 FB1     -0.952000
     10 O1          0.2470    0.9170    2.7200 o         1 FB1     -0.931000
     11 O2          2.1360    1.1760    1.5830 o         1 FB1     -0.931000
     12 H5         -2.9580    0.2690   -1.0000 ha        1 FB1      0.154000
     13 H2          1.7640    0.1220   -1.0540 ha        1 FB1      0.159000
     14 H4         -1.8020    0.1700   -3.0580 ha        1 FB1      0.143000
     15 H3          0.5580    0.0970   -3.0850 ha        1 FB1      0.159000
     16 H1N         2.3590   -1.4860    2.0050 hn        1 FB1      0.247000
     17 H2N         0.8960   -1.7920    2.5290 hn        1 FB1      0.247000
@<TRIPOS>BOND
     1    1    7 1   
     2    1   14 1   
     3    2    6 1   
     4    3    4 1   
     5    3   15 1   
     6    4   13 1   
     7    5    6 1   
     8    6    7 1   
     9    7   12 1   
    10    8   10 1   
    11    8   11 1   
    12    9   16 1   
    13    9   17 1   
@<TRIPOS>SUBSTRUCTURE
     1 FB1         1 TEMP              0 ****  ****    0 ROOT
