@<TRIPOS>MOLECULE
FB2
   18    18     1     0     0
SMALL
bcc


@<TRIPOS>ATOM
      1 C01        -0.0560    0.0760    0.0700 ca        1 FB2      0.011000
      2 C02         1.3420    0.0760    0.0200 ca        1 FB2     -0.146000
      3 C03         2.0780    0.0040    1.1930 ca        1 FB2      0.011000
      4 C04         1.4410   -0.0650    2.4550 ca        1 FB2     -0.559500
      5 C05         0.0270   -0.0680    2.4770 ca        1 FB2      0.011000
      6 C06        -0.7100    0.0040    1.3050 ca        1 FB2     -0.146000
      7 S07         2.2870   -0.2370    3.7970 sy        1 FB2      1.494200
      8 O09         1.5710   -0.6410    4.9020 o         1 FB2     -0.564800
      9 O08         3.6130   -0.5690    3.6240 o         1 FB2     -0.564800
     10 NP0         2.4870    1.6350    4.2200 n4        1 FB2     -0.786500
     11 H01        -0.6430    0.1260   -0.8650 ha        1 FB2      0.176000
     12 H02         1.8590    0.1220   -0.9540 ha        1 FB2      0.179000
     13 H06        -1.8130   -0.0060    1.3450 ha        1 FB2      0.179000
     14 H03         3.1830   -0.0210    1.1450 ha        1 FB2      0.170000
     15 H05        -0.4970   -0.1500    3.4490 ha        1 FB2      0.170000
     16 HP01        2.0390    2.2390    3.5390 hn        1 FB2      0.455133
     17 HP02        3.4740    1.8840    4.2600 hn        1 FB2      0.455133
     18 HP03        2.0800    1.8350    5.1320 hn        1 FB2      0.455133
@<TRIPOS>BOND
     1    1    2 ar  
     2    1    6 ar  
     3    1   11 1   
     4    2    3 ar  
     5    2   12 1   
     6    3    4 ar  
     7    3   14 1   
     8    4    5 ar  
     9    4    7 1   
    10    5    6 ar  
    11    5   15 1   
    12    6   13 1   
    13    7    8 2   
    14    7    9 2   
    15    7   10 1   
    16   10   16 1   
    17   10   17 1   
    18   10   18 1   
@<TRIPOS>SUBSTRUCTURE
     1 FB2         1 TEMP              0 ****  ****    0 ROOT
