@<TRIPOS>MOLECULE
FB2
   17    17     1     0     0
SMALL
bcc


@<TRIPOS>ATOM
      1 C01        -3.0840    0.0590   -0.0820 ca        1 FB2     -0.067000
      2 C02        -2.4170   -1.1670   -0.0820 ca        1 FB2     -0.157000
      3 C03        -1.0260   -1.1990   -0.0250 ca        1 FB2     -0.018000
      4 C04        -0.2820   -0.0150    0.0290 ca        1 FB2     -0.384500
      5 C05        -0.9650    1.2070    0.0380 ca        1 FB2     -0.018000
      6 C06        -2.3560    1.2480   -0.0190 ca        1 FB2     -0.157000
      7 S07         1.4050   -0.0600    0.1220 sy        1 FB2      1.527200
      8 O09         1.8490    1.1210    0.7550 o         1 FB2     -0.658800
      9 O08         1.7870   -1.2940    0.6920 o         1 FB2     -0.658800
     10 NP0         1.8570   -0.0320   -1.4150 n3        1 FB2     -1.026700
     11 H01        -4.1840    0.0880   -0.1270 ha        1 FB2      0.137000
     12 H02        -2.9890   -2.1060   -0.1210 ha        1 FB2      0.141000
     13 H06        -2.8790    2.2160   -0.0090 ha        1 FB2      0.141000
     14 H03        -0.4990   -2.1700   -0.0020 ha        1 FB2      0.153000
     15 H05        -0.3890    2.1460    0.1100 ha        1 FB2      0.153000
     16 HP01        2.0020   -0.8450   -1.9580 hn        1 FB2      0.446800
     17 HP02        2.0440    0.8000   -1.9150 hn        1 FB2      0.446800
@<TRIPOS>BOND
     1    1    2 ar  
     2    1    6 ar  
     3    1   11 1   
     4    2    3 ar  
     5    2   12 1   
     6    3    4 ar  
     7    3   14 1   
     8    4    5 ar  
     9    4    7 1   
    10    5    6 ar  
    11    5   15 1   
    12    6   13 1   
    13    7    8 2   
    14    7    9 2   
    15    7   10 1   
    16   10   16 1   
    17   10   17 1   
@<TRIPOS>SUBSTRUCTURE
     1 FB2         1 TEMP              0 ****  ****    0 ROOT
