@<TRIPOS>MOLECULE
FB2
   18    18     1     0     0
SMALL
bcc


@<TRIPOS>ATOM
      1 C01        -0.0540    0.0690    0.0690 ca        1 FB2      0.011000
      2 C02         1.3450    0.0710    0.0210 ca        1 FB2     -0.146000
      3 C03         2.0790    0.0030    1.1940 ca        1 FB2      0.011000
      4 C04         1.4420   -0.0640    2.4560 ca        1 FB2     -0.559500
      5 C05         0.0270   -0.0700    2.4770 ca        1 FB2      0.011000
      6 C06        -0.7090   -0.0020    1.3040 ca        1 FB2     -0.146000
      7 S07         2.2870   -0.2330    3.7990 sy        1 FB2      1.494200
      8 O09         1.5710   -0.6350    4.9040 o         1 FB2     -0.564800
      9 O08         3.6140   -0.5620    3.6280 o         1 FB2     -0.564800
     10 NP0         2.4830    1.6410    4.2190 n4        1 FB2     -0.786500
     11 H01        -0.6400    0.1160   -0.8660 ha        1 FB2      0.176000
     12 H02         1.8630    0.1170   -0.9530 ha        1 FB2      0.179000
     13 H06        -1.8120   -0.0130    1.3430 ha        1 FB2      0.179000
     14 H03         3.1850   -0.0210    1.1470 ha        1 FB2      0.170000
     15 H05        -0.4970   -0.1510    3.4480 ha        1 FB2      0.170000
     16 HP01        2.0340    2.2430    3.5360 hn        1 FB2      0.455133
     17 HP02        2.0750    1.8420    5.1300 hn        1 FB2      0.455133
     18 HP03        3.4690    1.8920    4.2590 hn        1 FB2      0.455133
@<TRIPOS>BOND
     1    1    2 ar  
     2    1    6 ar  
     3    1   11 1   
     4    2    3 ar  
     5    2   12 1   
     6    3    4 ar  
     7    3   14 1   
     8    4    5 ar  
     9    4    7 1   
    10    5    6 ar  
    11    5   15 1   
    12    6   13 1   
    13    7    8 2   
    14    7    9 2   
    15    7   10 1   
    16   10   16 1   
    17   10   17 1   
    18   10   18 1   
@<TRIPOS>SUBSTRUCTURE
     1 FB2         1 TEMP              0 ****  ****    0 ROOT
