@<TRIPOS>MOLECULE
FB2
   18    18     1     0     0
SMALL
bcc


@<TRIPOS>ATOM
      1 C01         0.1180    0.0770   -0.0290 ca        1 FB2      0.011000
      2 C02         1.5140    0.0070    0.0380 ca        1 FB2     -0.146000
      3 C03         2.1460   -0.0650    1.2700 ca        1 FB2      0.011000
      4 C04         1.4060   -0.0650    2.4750 ca        1 FB2     -0.559500
      5 C05        -0.0040    0.0020    2.3790 ca        1 FB2      0.011000
      6 C06        -0.6380    0.0730    1.1480 ca        1 FB2     -0.146000
      7 S07         2.1290   -0.2380    3.8870 sy        1 FB2      1.494200
      8 O09         1.3050   -0.5730    4.9390 o         1 FB2     -0.564800
      9 O08         3.4460   -0.6390    3.8340 o         1 FB2     -0.564800
     10 NP0         2.3880    1.6340    4.2770 nz        1 FB2     -0.786500
     11 H01        -0.3870    0.1270   -1.0110 ha        1 FB2      0.176000
     12 H02         2.1110   -0.0000   -0.8900 ha        1 FB2      0.179000
     13 H06        -1.7400    0.1180    1.0960 ha        1 FB2      0.179000
     14 H03         3.2490   -0.1450    1.3140 ha        1 FB2      0.170000
     15 H05        -0.6100   -0.0270    3.3050 ha        1 FB2      0.170000
     16 HP01        1.9180    1.8810    5.1460 hn        1 FB2      0.455133
     17 HP02        2.0290    2.2390    3.5450 hn        1 FB2      0.455133
     18 HP03        3.3800    1.8360    4.3930 hn        1 FB2      0.455133
@<TRIPOS>BOND
     1    1    2 ar  
     2    1    6 ar  
     3    1   11 1   
     4    2    3 ar  
     5    2   12 1   
     6    3    4 ar  
     7    3   14 1   
     8    4    5 ar  
     9    4    7 1   
    10    5    6 ar  
    11    5   15 1   
    12    6   13 1   
    13    7    8 2   
    14    7    9 2   
    15    7   10 1   
    16   10   16 1   
    17   10   17 1   
    18   10   18 1   
@<TRIPOS>SUBSTRUCTURE
     1 FB2         1 TEMP              0 ****  ****    0 ROOT
