@<TRIPOS>MOLECULE
FB4
   27    28     1     0     0
SMALL
bcc


@<TRIPOS>ATOM
      1 C1         -0.2410   -0.1840    0.1530 ca        1 FB4      0.022100
      2 C2          0.9610    0.4510   -0.2120 ca        1 FB4      0.125100
      3 C3          1.9400    0.7050    0.7560 ca        1 FB4     -0.185000
      4 C4          1.7020    0.3200    2.0790 ca        1 FB4      0.068400
      5 C5          0.5020   -0.3070    2.4430 ca        1 FB4     -0.132000
      6 C6         -0.4700   -0.5620    1.4800 ca        1 FB4     -0.077000
      7 O7         -1.2660   -0.3050   -0.7920 os        1 FB4     -0.263200
      8 C8         -1.2300   -1.4690   -1.5540 ca        1 FB4      0.141100
      9 C9         -1.1230   -1.3150   -2.9550 ca        1 FB4     -0.071400
     10 C10        -1.2160   -2.4350   -3.7980 ca        1 FB4     -0.095000
     11 C11        -1.3990   -3.6970   -3.2280 ca        1 FB4      0.019400
     12 C12        -1.4870   -3.8510   -1.8340 ca        1 FB4     -0.053000
     13 C13        -1.4030   -2.7420   -1.0010 ca        1 FB4     -0.120000
     14 CL14        2.8800    0.6220    3.2530 cl        1 FB4     -0.029400
     15 CL15       -1.5110   -5.0490   -4.2320 cl        1 FB4     -0.011400
     16 N16        -0.9120    0.0170   -3.5120 n4        1 FB4     -0.696000
     17 O17         1.1210    0.8020   -1.5380 oh        1 FB4     -0.557100
     18 H3          2.8820    1.2040    0.4770 ha        1 FB4      0.168000
     19 H5          0.3240   -0.5970    3.4910 ha        1 FB4      0.175000
     20 H6         -1.4230   -1.0400    1.7560 ha        1 FB4      0.165000
     21 H10        -1.1460   -2.3320   -4.8940 ha        1 FB4      0.170000
     22 H12        -1.6290   -4.8570   -1.3990 ha        1 FB4      0.185000
     23 H13        -1.4710   -2.8490    0.0950 ha        1 FB4      0.181000
     24 HN16       -1.7820    0.3610   -3.9320 hn        1 FB4      0.471800
     25 HN1A       -0.6250    0.6560   -2.7470 hn        1 FB4      0.471800
     26 HO17        1.9660    1.2730   -1.6220 ho        1 FB4      0.453000
     27 H163       -0.1740   -0.0150   -4.2210 hn        1 FB4      0.471800
@<TRIPOS>BOND
     1    1    2 ar  
     2    1    6 ar  
     3    1    7 1   
     4    2    3 ar  
     5    2   17 1   
     6    3    4 ar  
     7    3   18 1   
     8    4    5 ar  
     9    4   14 1   
    10    5    6 ar  
    11    5   19 1   
    12    6   20 1   
    13    7    8 1   
    14    8    9 ar  
    15    8   13 ar  
    16    9   10 ar  
    17    9   16 1   
    18   10   11 ar  
    19   10   21 1   
    20   11   12 ar  
    21   11   15 1   
    22   12   13 ar  
    23   12   22 1   
    24   13   23 1   
    25   16   24 1   
    26   16   25 1   
    27   16   27 1   
    28   17   26 1   
@<TRIPOS>SUBSTRUCTURE
     1 FB4         1 TEMP              0 ****  ****    0 ROOT
