@<TRIPOS>MOLECULE
FB4
   26    27     1     0     0
SMALL
bcc


@<TRIPOS>ATOM
      1 C1         -0.2550   -0.1510    0.1430 ca        1 FB4      0.066100
      2 C2          0.9560    0.4890   -0.1960 ca        1 FB4      0.125100
      3 C3          1.9290    0.7180    0.7860 ca        1 FB4     -0.201000
      4 C4          1.6820    0.3060    2.0980 ca        1 FB4      0.050400
      5 C5          0.4830   -0.3250    2.4420 ca        1 FB4     -0.147000
      6 C6         -0.4820   -0.5540    1.4630 ca        1 FB4     -0.096000
      7 O7         -1.2820   -0.2670   -0.7910 os        1 FB4     -0.245200
      8 C8         -1.2210   -1.4280   -1.5740 ca        1 FB4      0.017100
      9 C9         -1.0160   -1.2750   -2.9740 ca        1 FB4      0.170600
     10 C10        -1.0540   -2.4480   -3.7670 ca        1 FB4     -0.191000
     11 C11        -1.2990   -3.6860   -3.1780 ca        1 FB4      0.056400
     12 C12        -1.5090   -3.8140   -1.8010 ca        1 FB4     -0.164000
     13 C13        -1.4680   -2.6760   -1.0030 ca        1 FB4     -0.097000
     14 Cl14        2.8610    0.5820    3.2900 cl        1 FB4     -0.082400
     15 Cl15       -1.3390   -5.0760   -4.1600 cl        1 FB4     -0.097400
     16 N16        -0.8710   -0.0200   -3.5560 nv        1 FB4     -0.807200
     17 O17         1.1310    0.8710   -1.5050 oh        1 FB4     -0.500100
     18 H3          2.8730    1.2180    0.5230 ha        1 FB4      0.152000
     19 H5          0.2970   -0.6400    3.4800 ha        1 FB4      0.155000
     20 H6         -1.4350   -1.0410    1.7210 ha        1 FB4      0.155000
     21 H10        -0.8950   -2.3790   -4.8540 ha        1 FB4      0.150000
     22 H12        -1.7040   -4.7990   -1.3530 ha        1 FB4      0.149000
     23 H13        -1.6240   -2.7500    0.0840 ha        1 FB4      0.143000
     24 HN16       -0.3490   -0.0110   -4.4030 hn        1 FB4      0.406300
     25 HN1A       -0.6220    0.7030   -2.9130 hn        1 FB4      0.406300
     26 HO17        1.9950    1.3060   -1.5750 ho        1 FB4      0.427000
@<TRIPOS>BOND
     1    1    2 ar  
     2    1    6 ar  
     3    1    7 1   
     4    2    3 ar  
     5    2   17 1   
     6    3    4 ar  
     7    3   18 1   
     8    4    5 ar  
     9    4   14 1   
    10    5    6 ar  
    11    5   19 1   
    12    6   20 1   
    13    7    8 1   
    14    8    9 ar  
    15    8   13 ar  
    16    9   10 ar  
    17    9   16 1   
    18   10   11 ar  
    19   10   21 1   
    20   11   12 ar  
    21   11   15 1   
    22   12   13 ar  
    23   12   22 1   
    24   13   23 1   
    25   16   24 1   
    26   16   25 1   
    27   17   26 1   
@<TRIPOS>SUBSTRUCTURE
     1 FB4         1 TEMP              0 ****  ****    0 ROOT
