@<TRIPOS>MOLECULE
FB4
   26    22     1     0     0
SMALL
bcc


@<TRIPOS>ATOM
      1 C1          0.0170    1.0600    0.8860 c1        1 FB4      0.021000
      2 C2          1.3880    1.2640    0.8690 c1        1 FB4      0.080000
      3 C3          2.1000    1.2850    2.0580 c1        1 FB4     -0.201000
      4 C4          1.4420    1.1000    3.2640 c1        1 FB4     -0.025000
      5 C5          0.0710    0.8960    3.2810 c1        1 FB4     -0.155500
      6 C6         -0.6420    0.8750    2.0920 c1        1 FB4     -0.096000
      7 O7         -0.7170    1.1290   -0.3110 os        1 FB4     -0.155000
      8 C8         -0.7780   -0.1470   -0.8980 c2        1 FB4     -0.028000
      9 C9         -0.8010   -0.2730   -2.2780 c2        1 FB4      0.089000
     10 C10        -0.9380   -1.5250   -2.8580 c1        1 FB4     -0.191000
     11 C11        -1.0530   -2.6510   -2.0570 c1        1 FB4     -0.025000
     12 C12        -1.0300   -2.5250   -0.6770 c1        1 FB4     -0.155500
     13 C13        -0.8930   -1.2730   -0.0980 c1        1 FB4     -0.097000
     14 CL14        2.3400    1.1110    4.7580 cl        1 FB4     -0.011500
     15 CL15       -1.2190   -4.2260   -2.7860 cl        1 FB4     -0.011500
     16 N16        -0.6940    0.8800   -3.0980 n3        1 FB4     -0.316000
     17 O17         2.0510    1.4890   -0.3510 oh        1 FB4     -0.254000
     18 H3          3.0650    1.4290    2.0470 ha        1 FB4      0.152000
     19 H5         -0.3930    0.7660    4.1300 ha        1 FB4      0.152000
     20 H6         -1.6070    0.7310    2.1040 ha        1 FB4      0.155000
     21 H10        -0.9540   -1.6140   -3.8300 ha        1 FB4      0.150000
     22 H12        -1.1110   -3.3180   -0.1130 ha        1 FB4      0.152000
     23 H13        -0.8770   -1.1840    0.8750 ha        1 FB4      0.143000
     24 HN16       -0.6330    1.7090   -2.7160 hn        1 FB4      0.201500
     25 HN1A       -0.6910    0.7950   -4.0090 hn        1 FB4      0.201500
     26 HO17        2.5570    2.2170   -0.2840 ho        1 FB4      0.226000
@<TRIPOS>BOND
     1    1    6 1   
     2    1    7 1   
     3    2    3 1   
     4    2   17 1   
     5    3   18 1   
     6    4    5 1   
     7    4   14 1   
     8    5   19 1   
     9    6   20 1   
    10    7    8 1   
    11    8    9 1   
    12    8   13 1   
    13    9   10 1   
    14    9   16 1   
    15   10   21 1   
    16   11   12 1   
    17   11   15 1   
    18   12   22 1   
    19   13   23 1   
    20   16   24 1   
    21   16   25 1   
    22   17   26 1   
@<TRIPOS>SUBSTRUCTURE
     1 FB4         1 TEMP              0 ****  ****    0 ROOT
