@<TRIPOS>MOLECULE
FB4
   26    27     1     0     0
SMALL
bcc


@<TRIPOS>ATOM
      1 C1         -0.2540   -0.1390    0.1330 ca        1 FB4      0.066100
      2 C2          0.9650    0.4860   -0.2050 ca        1 FB4      0.125100
      3 C3          1.9350    0.7160    0.7800 ca        1 FB4     -0.201000
      4 C4          1.6750    0.3200    2.0940 ca        1 FB4      0.050400
      5 C5          0.4680   -0.2960    2.4370 ca        1 FB4     -0.147000
      6 C6         -0.4930   -0.5260    1.4550 ca        1 FB4     -0.096000
      7 O7         -1.2770   -0.2550   -0.8060 os        1 FB4     -0.245200
      8 C8         -1.2220   -1.4240   -1.5770 ca        1 FB4      0.017100
      9 C9         -1.0060   -1.2890   -2.9770 ca        1 FB4      0.170600
     10 C10        -1.0510   -2.4690   -3.7580 ca        1 FB4     -0.191000
     11 C11        -1.3120   -3.6980   -3.1570 ca        1 FB4      0.056400
     12 C12        -1.5320   -3.8100   -1.7810 ca        1 FB4     -0.164000
     13 C13        -1.4840   -2.6640   -0.9940 ca        1 FB4     -0.097000
     14 CL14        2.8490    0.5970    3.2910 cl        1 FB4     -0.082400
     15 CL15       -1.3590   -5.0980   -4.1250 cl        1 FB4     -0.097400
     16 N16        -0.8470   -0.0410   -3.5710 nh        1 FB4     -0.807200
     17 O17         1.1520    0.8530   -1.5170 oh        1 FB4     -0.500100
     18 H3          2.8850    1.2040    0.5170 ha        1 FB4      0.152000
     19 H5          0.2740   -0.5980    3.4770 ha        1 FB4      0.155000
     20 H6         -1.4520   -1.0010    1.7120 ha        1 FB4      0.155000
     21 H10        -0.8850   -2.4130   -4.8450 ha        1 FB4      0.150000
     22 H12        -1.7380   -4.7880   -1.3240 ha        1 FB4      0.149000
     23 H13        -1.6470   -2.7250    0.0920 ha        1 FB4      0.143000
     24 HN16       -0.5940    0.6860   -2.9340 hn        1 FB4      0.406300
     25 HN1A       -0.3190   -0.0460   -4.4150 hn        1 FB4      0.406300
     26 HO17        2.0200    1.2790   -1.5870 ho        1 FB4      0.427000
@<TRIPOS>BOND
     1    1    2 ar  
     2    1    6 ar  
     3    1    7 1   
     4    2    3 ar  
     5    2   17 1   
     6    3    4 ar  
     7    3   18 1   
     8    4    5 ar  
     9    4   14 1   
    10    5    6 ar  
    11    5   19 1   
    12    6   20 1   
    13    7    8 1   
    14    8    9 ar  
    15    8   13 ar  
    16    9   10 ar  
    17    9   16 1   
    18   10   11 ar  
    19   10   21 1   
    20   11   12 ar  
    21   11   15 1   
    22   12   13 ar  
    23   12   22 1   
    24   13   23 1   
    25   16   24 1   
    26   16   25 1   
    27   17   26 1   
@<TRIPOS>SUBSTRUCTURE
     1 FB4         1 TEMP              0 ****  ****    0 ROOT
