@<TRIPOS>MOLECULE
FB4
   26    27     1     0     0
SMALL
bcc


@<TRIPOS>ATOM
      1 C1         -1.1160   -0.7080   -0.3840 ca        1 FB4      0.013100
      2 C2         -2.1880   -0.5190   -1.2810 ca        1 FB4      0.128100
      3 C3         -3.4740   -0.2590   -0.7860 ca        1 FB4     -0.144000
      4 C4         -3.6600   -0.1840    0.5960 ca        1 FB4      0.035400
      5 C5         -2.5960   -0.3660    1.4860 ca        1 FB4     -0.141000
      6 C6         -1.3200   -0.6300    0.9950 ca        1 FB4     -0.114000
      7 O7          0.1070   -1.0510   -0.9630 os        1 FB4     -0.273200
      8 C8          1.2250   -0.4450   -0.3810 ca        1 FB4      0.010100
      9 C9          2.0870   -1.2430    0.4210 ca        1 FB4      0.159600
     10 C10         3.2960   -0.6530    0.8610 ca        1 FB4     -0.188000
     11 C11         3.5910    0.6680    0.5340 ca        1 FB4      0.058400
     12 C12         2.7190    1.4450   -0.2360 ca        1 FB4     -0.161000
     13 C13         1.5330    0.8800   -0.6930 ca        1 FB4     -0.087000
     14 CL14       -5.2150    0.1370    1.2040 cl        1 FB4     -0.087400
     15 CL15        5.0480    1.3500    1.0860 cl        1 FB4     -0.088400
     16 N16         1.7250   -2.5250    0.8240 nh        1 FB4     -0.818200
     17 O17        -2.0440   -0.5970   -2.6440 oh        1 FB4     -0.490100
     18 H3         -4.3060   -0.1170   -1.4910 ha        1 FB4      0.168000
     19 H5         -2.7620   -0.3030    2.5720 ha        1 FB4      0.153000
     20 H6         -0.4710   -0.7750    1.6810 ha        1 FB4      0.160000
     21 H10         4.0000   -1.2390    1.4730 ha        1 FB4      0.153000
     22 H12         2.9670    2.4880   -0.4820 ha        1 FB4      0.154000
     23 H13         0.8330    1.4700   -1.3050 ha        1 FB4      0.151000
     24 HN16        1.0060   -2.9440    0.2760 hn        1 FB4      0.406300
     25 HN1A        2.4860   -3.1310    1.0350 hn        1 FB4      0.406300
     26 HO17       -1.1030   -0.7400   -2.8370 ho        1 FB4      0.438000
@<TRIPOS>BOND
     1    1    2 ar  
     2    1    6 ar  
     3    1    7 1   
     4    2    3 ar  
     5    2   17 1   
     6    3    4 ar  
     7    3   18 1   
     8    4    5 ar  
     9    4   14 1   
    10    5    6 ar  
    11    5   19 1   
    12    6   20 1   
    13    7    8 1   
    14    8    9 ar  
    15    8   13 ar  
    16    9   10 ar  
    17    9   16 1   
    18   10   11 ar  
    19   10   21 1   
    20   11   12 ar  
    21   11   15 1   
    22   12   13 ar  
    23   12   22 1   
    24   13   23 1   
    25   16   24 1   
    26   16   25 1   
    27   17   26 1   
@<TRIPOS>SUBSTRUCTURE
     1 FB4         1 TEMP              0 ****  ****    0 ROOT
