@<TRIPOS>MOLECULE
FBA
   18    18     1     0     0
SMALL
bcc


@<TRIPOS>ATOM
      1 C1         -0.9720    0.0000   -0.3000 ca        1 FBA     -0.227300
      2 C2         -0.2760   -1.2130   -0.2160 ca        1 FBA     -0.067000
      3 C3          1.1010   -1.2240   -0.0390 ca        1 FBA     -0.162000
      4 C4          1.7980   -0.0000    0.0540 ca        1 FBA      0.197900
      5 C5          1.1010    1.2240   -0.0360 ca        1 FBA     -0.162000
      6 C6         -0.2760    1.2140   -0.2140 ca        1 FBA     -0.067000
      7 C          -2.4390    0.0010   -0.5350 c3        1 FBA      0.180100
      8 N          -3.1930   -0.0010    0.7660 n4        1 FBA     -0.846600
      9 F           3.1340   -0.0010    0.2260 f         1 FBA     -0.098900
     10 H2         -0.8140   -2.1710   -0.3080 ha        1 FBA      0.145000
     11 H3          1.6570   -2.1730    0.0220 ha        1 FBA      0.180000
     12 H5          1.6570    2.1730    0.0260 ha        1 FBA      0.180000
     13 H6         -0.8140    2.1710   -0.3040 ha        1 FBA      0.145000
     14 H1         -2.7590   -0.9180   -1.1090 hx        1 FBA      0.113700
     15 H2A        -2.7590    0.9200   -1.1080 hx        1 FBA      0.113700
     16 HN1        -4.2020   -0.0000    0.5930 hn        1 FBA      0.458467
     17 HN2        -2.9440    0.8300    1.3130 hn        1 FBA      0.458467
     18 HN3        -2.9440   -0.8320    1.3120 hn        1 FBA      0.458467
@<TRIPOS>BOND
     1    1    2 ar  
     2    1    6 ar  
     3    1    7 1   
     4    2    3 ar  
     5    2   10 1   
     6    3    4 ar  
     7    3   11 1   
     8    4    5 ar  
     9    4    9 1   
    10    5    6 ar  
    11    5   12 1   
    12    6   13 1   
    13    7    8 1   
    14    7   14 1   
    15    7   15 1   
    16    8   16 1   
    17    8   17 1   
    18    8   18 1   
@<TRIPOS>SUBSTRUCTURE
     1 FBA         1 TEMP              0 ****  ****    0 ROOT
