@<TRIPOS>MOLECULE
FBA
   18    15     1     0     0
SMALL
bcc


@<TRIPOS>ATOM
      1 C1         -0.1080    0.2480   -0.2140 c1        1 FBA     -0.193100
      2 C2          1.2780    0.2720   -0.2120 c1        1 FBA     -0.057000
      3 C3          1.9740    0.2860    1.0000 c1        1 FBA     -0.057000
      4 C4          1.2800    0.2780    2.1990 c1        1 FBA      0.165100
      5 C5         -0.1160    0.2540    2.1960 c1        1 FBA     -0.104500
      6 C6         -0.8080    0.2390    0.9940 c1        1 FBA     -0.009500
      7 C          -0.8640    0.3200   -1.5240 c3        1 FBA      0.145900
      8 N          -1.1790   -1.0200   -1.9720 n4        1 FBA     -0.846600
      9 F           1.9470    0.3920    3.3620 f         1 FBA     -0.066100
     10 H2          1.7780    0.2780   -1.0760 ha        1 FBA      0.105000
     11 H3          2.9380    0.3020    1.0020 ha        1 FBA      0.105000
     12 H5         -0.6010    0.2480    3.0330 ha        1 FBA      0.122500
     13 H6         -1.7720    0.2230    0.9930 ha        1 FBA      0.087500
     14 H1         -1.6920    0.8250   -1.3950 hx        1 FBA      0.113700
     15 H2A        -0.3150    0.7620   -2.1890 hx        1 FBA      0.113700
     16 HN1        -1.4120   -1.5380   -1.2500 hn        1 FBA      0.458467
     17 HN2        -1.8780   -0.9870   -2.5620 hn        1 FBA      0.458467
     18 HN3        -0.4500   -1.3820   -2.3850 hn        1 FBA      0.458467
@<TRIPOS>BOND
     1    1    6 3   
     2    1    7 1   
     3    2    3 3   
     4    2   10 1   
     5    3   11 1   
     6    4    5 3   
     7    4    9 1   
     8    5   12 1   
     9    6   13 1   
    10    7    8 1   
    11    7   14 1   
    12    7   15 1   
    13    8   16 1   
    14    8   17 1   
    15    8   18 1   
@<TRIPOS>SUBSTRUCTURE
     1 FBA         1 TEMP              0 ****  ****    0 ROOT
