@<TRIPOS>MOLECULE
FBA
   18    18     1     0     0
SMALL
bcc


@<TRIPOS>ATOM
      1 C1          0.0020   -0.0260    0.0030 ca        1 FBA     -0.227300
      2 C2          1.4040   -0.0130    0.0040 ca        1 FBA     -0.067000
      3 C3          2.1060    0.0070    1.2010 ca        1 FBA     -0.162000
      4 C4          1.3980    0.0170    2.4220 ca        1 FBA      0.197900
      5 C5         -0.0130    0.0100    2.4240 ca        1 FBA     -0.162000
      6 C6         -0.6980   -0.0090    1.2170 ca        1 FBA     -0.067000
      7 C          -0.7400   -0.0010   -1.2830 c3        1 FBA      0.180100
      8 N          -1.0230   -1.3960   -1.7690 n4        1 FBA     -0.846600
      9 F           2.0710    0.0360    3.5880 f         1 FBA     -0.098900
     10 H2          1.9610    0.0000   -0.9470 ha        1 FBA      0.145000
     11 H3          3.2080    0.0240    1.2110 ha        1 FBA      0.180000
     12 H5         -0.5560    0.0300    3.3830 ha        1 FBA      0.180000
     13 H6         -1.8000    0.0060    1.2230 ha        1 FBA      0.145000
     14 H1         -0.1420    0.5200   -2.0870 hx        1 FBA      0.113700
     15 H2A        -1.7340    0.5230   -1.1690 hx        1 FBA      0.113700
     16 HN1        -0.1420   -1.9030   -1.9030 hn        1 FBA      0.458467
     17 HN2        -1.5800   -1.9000   -1.0730 hn        1 FBA      0.458467
     18 HN3        -1.5340   -1.3680   -2.6550 hn        1 FBA      0.458467
@<TRIPOS>BOND
     1    1    2 ar  
     2    1    6 ar  
     3    1    7 1   
     4    2    3 ar  
     5    2   10 1   
     6    3    4 ar  
     7    3   11 1   
     8    4    5 ar  
     9    4    9 1   
    10    5    6 ar  
    11    5   12 1   
    12    6   13 1   
    13    7    8 1   
    14    7   14 1   
    15    7   15 1   
    16    8   16 1   
    17    8   17 1   
    18    8   18 1   
@<TRIPOS>SUBSTRUCTURE
     1 FBA         1 TEMP              0 ****  ****    0 ROOT
