@<TRIPOS>MOLECULE
FBA
   18    18     1     0     0
SMALL
bcc


@<TRIPOS>ATOM
      1 C1          0.0020   -0.0250    0.0040 ca        1 FBA     -0.227300
      2 C2          1.4030   -0.0140    0.0040 ca        1 FBA     -0.067000
      3 C3          2.1070    0.0040    1.2010 ca        1 FBA     -0.162000
      4 C4          1.3990    0.0130    2.4220 ca        1 FBA      0.197900
      5 C5         -0.0130    0.0080    2.4250 ca        1 FBA     -0.162000
      6 C6         -0.6980   -0.0090    1.2180 ca        1 FBA     -0.067000
      7 C          -0.7410    0.0020   -1.2820 c3        1 FBA      0.180100
      8 N          -1.0220   -1.3920   -1.7710 n4        1 FBA     -0.846600
      9 F           2.0720    0.0300    3.5880 f         1 FBA     -0.098900
     10 H2          1.9600   -0.0000   -0.9470 ha        1 FBA      0.145500
     11 H3          3.2080    0.0190    1.2110 ha        1 FBA      0.180000
     12 H5         -0.5550    0.0270    3.3840 ha        1 FBA      0.180000
     13 H6         -1.8000    0.0070    1.2240 ha        1 FBA      0.145500
     14 H1         -0.1440    0.5250   -2.0850 hx        1 FBA      0.113700
     15 H2A        -1.7350    0.5240   -1.1670 hx        1 FBA      0.113700
     16 HN1        -1.5800   -1.8990   -1.0760 hn        1 FBA      0.458467
     17 HN2        -0.1410   -1.8980   -1.9060 hn        1 FBA      0.458467
     18 HN3        -1.5340   -1.3630   -2.6570 hn        1 FBA      0.458467
@<TRIPOS>BOND
     1    1    2 ar  
     2    1    6 ar  
     3    1    7 1   
     4    2    3 ar  
     5    2   10 1   
     6    3    4 ar  
     7    3   11 1   
     8    4    5 ar  
     9    4    9 1   
    10    5    6 ar  
    11    5   12 1   
    12    6   13 1   
    13    7    8 1   
    14    7   14 1   
    15    7   15 1   
    16    8   16 1   
    17    8   17 1   
    18    8   18 1   
@<TRIPOS>SUBSTRUCTURE
     1 FBA         1 TEMP              0 ****  ****    0 ROOT
