@<TRIPOS>MOLECULE
FBB
   16    13     1     0     0
SMALL
bcc


@<TRIPOS>ATOM
      1 F10        -3.8480   -0.0320    0.6090 f         1 FBB     -0.104000
      2 C5         -2.5090   -0.0320    0.6090 c2        1 FBB      0.087000
      3 C6         -1.8100   -0.0320    1.8330 c2        1 FBB     -0.157000
      4 C1         -0.4110   -0.0190    1.8410 c1        1 FBB     -0.065000
      5 C4         -1.8050   -0.0190   -0.5990 c1        1 FBB     -0.123000
      6 C3         -0.4170   -0.0070   -0.5930 c1        1 FBB     -0.304000
      7 S9          0.6230    0.0100   -1.7300 s         1 FBB      0.389000
      8 C8          2.0180    0.0210   -1.0800 c1        1 FBB     -0.098000
      9 N11         3.2510    0.0560   -1.7780 n2        1 FBB     -0.298000
     10 N7          1.8430    0.0110    0.3330 n2        1 FBB     -0.164000
     11 C2          0.2890   -0.0070    0.6440 c1        1 FBB     -0.037000
     12 H1         -2.3020   -0.0410    2.6760 ha        1 FBB      0.152000
     13 H2          0.0720   -0.0190    2.6890 ha        1 FBB      0.157000
     14 H3         -2.2900   -0.0200   -1.4460 ha        1 FBB      0.155000
     15 H4          4.0370    0.0660   -1.3160 hn        1 FBB      0.204500
     16 H5          3.2590    0.0650   -2.6900 hn        1 FBB      0.204500
@<TRIPOS>BOND
     1    1    2 1   
     2    2    3 1   
     3    2    5 1   
     4    3    4 1   
     5    3   12 1   
     6    4   13 1   
     7    5   14 1   
     8    6   11 1   
     9    7    8 1   
    10    8   10 1   
    11    9   15 1   
    12    9   16 1   
    13   10   11 1   
@<TRIPOS>SUBSTRUCTURE
     1 FBB         1 TEMP              0 ****  ****    0 ROOT
