@<TRIPOS>MOLECULE
FBB
   16    17     1     0     0
SMALL
bcc


@<TRIPOS>ATOM
      1 F10        -3.6590    0.6720    0.0190 f         1 FBB     -0.138900
      2 C5         -2.4010    0.1690    0.0080 ca        1 FBB      0.121900
      3 C6         -2.2160   -1.2350    0.0240 ca        1 FBB     -0.157000
      4 C1         -0.9450   -1.7770    0.0150 ca        1 FBB     -0.065000
      5 C4         -1.3060    1.0420   -0.0220 ca        1 FBB     -0.123000
      6 C3         -0.0240    0.5010   -0.0340 ca        1 FBB     -0.077100
      7 S9          1.4690    1.2930   -0.0760 ss        1 FBB     -0.062100
      8 C8          2.3130   -0.2650   -0.0490 cc        1 FBB      0.566100
      9 N11         3.6960   -0.2820   -0.1750 nh        1 FBB     -0.859800
     10 N7          1.5100   -1.3350   -0.0060 nd        1 FBB     -0.591100
     11 C2          0.1740   -0.9200   -0.0120 ca        1 FBB      0.102400
     12 H1         -3.1030   -1.8870    0.0450 ha        1 FBB      0.152000
     13 H2         -0.7990   -2.8680    0.0260 ha        1 FBB      0.157000
     14 H3         -1.4660    2.1290   -0.0370 ha        1 FBB      0.155000
     15 H4          4.1560    0.4110    0.3750 hn        1 FBB      0.409300
     16 H5          4.1200   -1.1850   -0.1120 hn        1 FBB      0.409300
@<TRIPOS>BOND
     1    1    2 1   
     2    2    3 ar  
     3    2    5 ar  
     4    3    4 ar  
     5    3   12 1   
     6    4   11 ar  
     7    4   13 1   
     8    5    6 ar  
     9    5   14 1   
    10    6    7 1   
    11    6   11 ar  
    12    7    8 1   
    13    8    9 1   
    14    8   10 2   
    15    9   15 1   
    16    9   16 1   
    17   10   11 1   
@<TRIPOS>SUBSTRUCTURE
     1 FBB         1 TEMP              0 ****  ****    0 ROOT
