@<TRIPOS>MOLECULE
FBB
   16    17     1     0     0
SMALL
bcc


@<TRIPOS>ATOM
      1 F10         0.0180   -0.0830   -0.0310 f         1 FBB     -0.138900
      2 C5          1.3720   -0.0410   -0.0250 ca        1 FBB      0.121900
      3 C6          2.0570    0.0380    1.2130 ca        1 FBB     -0.157000
      4 C1          3.4380    0.0810    1.2500 ca        1 FBB     -0.065000
      5 C4          2.0730   -0.0750   -1.2370 ca        1 FBB     -0.123000
      6 C3          3.4630   -0.0300   -1.2040 ca        1 FBB     -0.077100
      7 S9          4.5620   -0.0460   -2.4880 ss        1 FBB     -0.062100
      8 C8          5.9170    0.0310   -1.3480 cc        1 FBB      0.566100
      9 N11         7.2070    0.1540   -1.8460 nh        1 FBB     -0.859800
     10 N7          5.5610    0.0640   -0.0580 nd        1 FBB     -0.591100
     11 C2          4.1660    0.0450    0.0440 ca        1 FBB      0.102400
     12 H1          1.4700    0.0650    2.1430 ha        1 FBB      0.152000
     13 H2          3.9710    0.1440    2.2110 ha        1 FBB      0.157000
     14 H3          1.5260   -0.1340   -2.1900 ha        1 FBB      0.155000
     15 H4          7.9330    0.1520   -1.1590 hn        1 FBB      0.409300
     16 H5          7.3950   -0.4430   -2.6220 hn        1 FBB      0.409300
@<TRIPOS>BOND
     1    1    2 1   
     2    2    3 ar  
     3    2    5 ar  
     4    3    4 ar  
     5    3   12 1   
     6    4   11 ar  
     7    4   13 1   
     8    5    6 ar  
     9    5   14 1   
    10    6    7 1   
    11    6   11 ar  
    12    7    8 1   
    13    8    9 1   
    14    8   10 2   
    15    9   15 1   
    16    9   16 1   
    17   10   11 1   
@<TRIPOS>SUBSTRUCTURE
     1 FBB         1 TEMP              0 ****  ****    0 ROOT
