@<TRIPOS>MOLECULE
FBB
   17    18     1     0     0
SMALL
bcc


@<TRIPOS>ATOM
      1 F10         0.0160   -0.0000   -0.0250 f         1 FBB     -0.094900
      2 C5          1.3620   -0.0020   -0.0260 ca        1 FBB      0.212900
      3 C6          2.0560    0.0010    1.2190 ca        1 FBB     -0.153000
      4 C1          3.4310   -0.0000    1.2590 ca        1 FBB     -0.013000
      5 C4          2.0550   -0.0060   -1.2440 ca        1 FBB     -0.153000
      6 C3          3.4470   -0.0070   -1.2170 ca        1 FBB     -0.049100
      7 S9          4.5390   -0.0110   -2.4940 ss        1 FBB      0.159900
      8 C8          5.8610   -0.0100   -1.3820 cc        1 FBB      0.248100
      9 N11         7.2500   -0.0130   -1.8110 n4        1 FBB     -0.736600
     10 N7          5.5360   -0.0060   -0.0750 nd        1 FBB     -0.443100
     11 C2          4.1580   -0.0040    0.0400 ca        1 FBB      0.051400
     12 H1          1.4650    0.0040    2.1510 ha        1 FBB      0.185000
     13 H2          3.9730    0.0020    2.2200 ha        1 FBB      0.181000
     14 H3          1.4980   -0.0070   -2.1950 ha        1 FBB      0.182000
     15 H4          7.7290   -0.8490   -1.4470 hn        1 FBB      0.474800
     16 H5          7.7300    0.8250   -1.4510 hn        1 FBB      0.474800
     17 H113        7.2870   -0.0150   -2.8360 hn        1 FBB      0.474800
@<TRIPOS>BOND
     1    1    2 1   
     2    2    3 ar  
     3    2    5 ar  
     4    3    4 ar  
     5    3   12 1   
     6    4   11 ar  
     7    4   13 1   
     8    5    6 ar  
     9    5   14 1   
    10    6    7 1   
    11    6   11 ar  
    12    7    8 1   
    13    8    9 1   
    14    8   10 2   
    15    9   15 1   
    16    9   16 1   
    17    9   17 1   
    18   10   11 1   
@<TRIPOS>SUBSTRUCTURE
     1 FBB         1 TEMP              0 ****  ****    0 ROOT
