@<TRIPOS>MOLECULE
FBB
   16    17     1     0     0
SMALL
bcc


@<TRIPOS>ATOM
      1 F10         0.0170   -0.0750   -0.0390 f         1 FBB     -0.138900
      2 C5          1.3710   -0.0370   -0.0300 ca        1 FBB      0.121900
      3 C6          2.0540    0.0350    1.2090 ca        1 FBB     -0.157000
      4 C1          3.4350    0.0740    1.2500 ca        1 FBB     -0.065000
      5 C4          2.0740   -0.0670   -1.2410 ca        1 FBB     -0.123000
      6 C3          3.4640   -0.0250   -1.2050 ca        1 FBB     -0.077100
      7 S9          4.5660   -0.0380   -2.4870 ss        1 FBB     -0.062100
      8 C8          5.9190    0.0300   -1.3440 cc        1 FBB      0.566100
      9 N11         7.2100    0.1520   -1.8390 nv        1 FBB     -0.859800
     10 N7          5.5610    0.0580   -0.0550 nd        1 FBB     -0.591100
     11 C2          4.1650    0.0430    0.0450 ca        1 FBB      0.102400
     12 H1          1.4650    0.0590    2.1390 ha        1 FBB      0.152000
     13 H2          3.9670    0.1310    2.2120 ha        1 FBB      0.157000
     14 H3          1.5290   -0.1200   -2.1950 ha        1 FBB      0.155000
     15 H4          7.9350    0.1450   -1.1510 hn        1 FBB      0.409300
     16 H5          7.3980   -0.4420   -2.6180 hn        1 FBB      0.409300
@<TRIPOS>BOND
     1    1    2 1   
     2    2    3 ar  
     3    2    5 ar  
     4    3    4 ar  
     5    3   12 1   
     6    4   11 ar  
     7    4   13 1   
     8    5    6 ar  
     9    5   14 1   
    10    6    7 1   
    11    6   11 ar  
    12    7    8 1   
    13    8    9 1   
    14    8   10 2   
    15    9   15 1   
    16    9   16 1   
    17   10   11 1   
@<TRIPOS>SUBSTRUCTURE
     1 FBB         1 TEMP              0 ****  ****    0 ROOT
