@<TRIPOS>MOLECULE
FBC
   24    19     1     0     0
SMALL
bcc


@<TRIPOS>ATOM
      1 FL1        -3.2850    1.8420    2.5460 f         1 FBC     -0.115000
      2 C1         -2.2930    0.9570    2.3840 c2        1 FBC      0.107000
      3 C6         -1.9800    0.0730    3.4040 c2        1 FBC     -0.231000
      4 C5         -0.9720   -0.8620    3.2260 c1        1 FBC      0.107000
      5 FL2        -0.6930   -1.7390    4.1990 f         1 FBC     -0.115000
      6 C4         -0.2770   -0.9120    2.0280 c2        1 FBC     -0.183000
      7 C2         -1.5990    0.9070    1.1850 c1        1 FBC     -0.183000
      8 C3         -0.5910   -0.0280    1.0070 c1        1 FBC      0.062000
      9 C12         0.1300   -0.0530   -0.1760 c1        1 FBC     -0.106000
     10 C7          1.2410    0.7620   -0.3280 c1        1 FBC     -0.133000
     11 C8          1.9280    0.7810   -1.5310 c1        1 FBC     -0.115000
     12 C11        -0.2940   -0.8490   -1.2290 c1        1 FBC     -0.124000
     13 C10         0.3930   -0.8300   -2.4330 c1        1 FBC     -0.124000
     14 C9          1.5040   -0.0150   -2.5840 c1        1 FBC     -0.082000
     15 C           2.2530    0.0070   -3.8980 c2        1 FBC      0.355000
     16 OC3         1.9150    0.8160   -4.8020 o         1 FBC     -0.559000
     17 OC1         3.2020   -0.7970   -4.0960 o         1 FBC     -0.559000
     18 H6         -2.4530    0.1240    4.2560 ha        1 FBC      0.151000
     19 H4          0.4330   -1.5700    1.9020 ha        1 FBC      0.158000
     20 H2         -1.8310    1.5180    0.4610 ha        1 FBC      0.158000
     21 H7          1.5330    1.3310    0.4100 ha        1 FBC      0.111000
     22 H8          2.7110    1.3550   -1.6380 ha        1 FBC      0.156000
     23 H11        -1.0760   -1.4220   -1.1230 ha        1 FBC      0.133500
     24 H10         0.1000   -1.3970   -3.1710 ha        1 FBC      0.133500
@<TRIPOS>BOND
     1    1    2 1   
     2    2    3 1   
     3    2    7 1   
     4    3    4 1   
     5    3   18 1   
     6    4    6 1   
     7    6    8 1   
     8    6   19 1   
     9    7   20 1   
    10    9   10 1   
    11   10   21 1   
    12   11   14 1   
    13   11   22 1   
    14   12   13 1   
    15   12   23 1   
    16   13   24 1   
    17   14   15 1   
    18   15   16 1   
    19   15   17 1   
@<TRIPOS>SUBSTRUCTURE
     1 FBC         1 TEMP              0 ****  ****    0 ROOT
