@<TRIPOS>MOLECULE
FBC
   24    25     1     0     0
SMALL
bcc


@<TRIPOS>ATOM
      1 FL1        -0.0220   -0.0400    0.0170 f         1 FBC     -0.149900
      2 C1          1.3340   -0.0200    0.0190 ca        1 FBC      0.141900
      3 C6          2.0160    0.0070    1.2470 ca        1 FBC     -0.231000
      4 C5          3.4200    0.0300    1.2270 ca        1 FBC      0.141900
      5 FL2         4.0980    0.0540    2.4030 f         1 FBC     -0.149900
      6 C4          4.1290    0.0250    0.0160 ca        1 FBC     -0.183000
      7 C2          2.0330   -0.0220   -1.1980 ca        1 FBC     -0.183000
      8 C3          3.4350   -0.0000   -1.2020 cp        1 FBC      0.062000
      9 C12         4.1660   -0.0040   -2.4650 cp        1 FBC     -0.106000
     10 C7          5.3450    0.7450   -2.6080 ca        1 FBC     -0.133000
     11 C8          6.0380    0.7420   -3.8140 ca        1 FBC     -0.115000
     12 C11         3.7020   -0.7570   -3.5550 ca        1 FBC     -0.133000
     13 C10         4.4040   -0.7610   -4.7560 ca        1 FBC     -0.115000
     14 C9          5.5760   -0.0110   -4.8990 ca        1 FBC     -0.102600
     15 C           6.3400   -0.0150   -6.2180 c         1 FBC      0.906200
     16 OC3         7.3930    0.6780   -6.2880 o         1 FBC     -0.824300
     17 OC1         5.8760   -0.7120   -7.1630 o         1 FBC     -0.824300
     18 H6          1.4660    0.0100    2.1960 ha        1 FBC      0.151000
     19 H4          5.2290    0.0340    0.0260 ha        1 FBC      0.158000
     20 H2          1.4770   -0.0340   -2.1470 ha        1 FBC      0.158000
     21 H7          5.7130    1.3470   -1.7640 ha        1 FBC      0.111000
     22 H8          6.9620    1.3290   -3.9440 ha        1 FBC      0.156000
     23 H11         2.7860   -1.3570   -3.4520 ha        1 FBC      0.111000
     24 H10         4.0550   -1.3510   -5.6190 ha        1 FBC      0.156000
@<TRIPOS>BOND
     1    1    2 1   
     2    2    3 ar  
     3    2    7 ar  
     4    3    4 ar  
     5    3   18 1   
     6    4    5 1   
     7    4    6 ar  
     8    6    8 ar  
     9    6   19 1   
    10    7    8 ar  
    11    7   20 1   
    12    8    9 1   
    13    9   10 ar  
    14    9   12 ar  
    15   10   11 ar  
    16   10   21 1   
    17   11   14 ar  
    18   11   22 1   
    19   12   13 ar  
    20   12   23 1   
    21   13   14 ar  
    22   13   24 1   
    23   14   15 1   
    24   15   16 1   
    25   15   17 1   
@<TRIPOS>SUBSTRUCTURE
     1 FBC         1 TEMP              0 ****  ****    0 ROOT
