@<TRIPOS>MOLECULE
FBC
   24    25     1     0     0
SMALL
bcc


@<TRIPOS>ATOM
      1 FL1        -4.0050    2.3610    0.4000 f         1 FBC     -0.149900
      2 C1         -3.3340    1.1990    0.2000 ca        1 FBC      0.141900
      3 C6         -4.0600    0.0150   -0.0060 ca        1 FBC     -0.231000
      4 C5         -3.3450   -1.1770   -0.2090 ca        1 FBC      0.141900
      5 FL2        -4.0290   -2.3320   -0.4120 f         1 FBC     -0.149900
      6 C4         -1.9420   -1.1900   -0.2080 ca        1 FBC     -0.183000
      7 C2         -1.9300    1.1970    0.2060 ca        1 FBC     -0.183000
      8 C3         -1.2300   -0.0000    0.0010 cp        1 FBC      0.062000
      9 C12         0.2300   -0.0080    0.0040 cp        1 FBC     -0.106000
     10 C7          0.9350   -1.0850    0.5640 ca        1 FBC     -0.133000
     11 C8          2.3260   -1.0880    0.5680 ca        1 FBC     -0.115000
     12 C11         0.9490    1.0610   -0.5520 ca        1 FBC     -0.133000
     13 C10         2.3400    1.0490   -0.5490 ca        1 FBC     -0.115000
     14 C9          3.0430   -0.0230    0.0110 ca        1 FBC     -0.102600
     15 C           4.5660   -0.0310    0.0150 c         1 FBC      0.906200
     16 OC3         5.1470   -1.0260    0.5320 o         1 FBC     -0.824300
     17 OC1         5.1600    0.9570   -0.5000 o         1 FBC     -0.824300
     18 H6         -5.1570    0.0210   -0.0090 ha        1 FBC      0.151000
     19 H4         -1.4040   -2.1340   -0.3780 ha        1 FBC      0.158000
     20 H2         -1.3830    2.1350    0.3790 ha        1 FBC      0.158000
     21 H7          0.3830   -1.9240    1.0120 ha        1 FBC      0.111000
     22 H8          2.8940   -1.9240    1.0080 ha        1 FBC      0.156000
     23 H11         0.4080    1.9060   -1.0020 ha        1 FBC      0.111000
     24 H10         2.9200    1.8790   -0.9870 ha        1 FBC      0.156000
@<TRIPOS>BOND
     1    1    2 1   
     2    2    3 ar  
     3    2    7 ar  
     4    3    4 ar  
     5    3   18 1   
     6    4    5 1   
     7    4    6 ar  
     8    6    8 ar  
     9    6   19 1   
    10    7    8 ar  
    11    7   20 1   
    12    8    9 1   
    13    9   10 ar  
    14    9   12 ar  
    15   10   11 ar  
    16   10   21 1   
    17   11   14 ar  
    18   11   22 1   
    19   12   13 ar  
    20   12   23 1   
    21   13   14 ar  
    22   13   24 1   
    23   14   15 1   
    24   15   16 1   
    25   15   17 1   
@<TRIPOS>SUBSTRUCTURE
     1 FBC         1 TEMP              0 ****  ****    0 ROOT
