@<TRIPOS>MOLECULE
FBD
   43    41     1     0     0
SMALL
bcc


@<TRIPOS>ATOM
      1 F21        -2.4740    4.0720   -7.9440 f         1 FBD     -0.151000
      2 C20        -2.2390    3.3340   -6.8520 c2        1 FBD      0.031000
      3 C22        -3.2960    2.7730   -6.1550 c2        1 FBD     -0.191000
      4 C23        -3.0520    1.9960   -5.0330 c1        1 FBD     -0.121000
      5 C19        -0.9360    3.1190   -6.4280 c1        1 FBD     -0.176000
      6 C18        -0.6920    2.3420   -5.3070 c1        1 FBD     -0.089000
      7 C17        -1.7500    1.7800   -4.6090 c1        1 FBD     -0.027000
      8 C16        -1.4800    0.8680   -3.4320 c3        1 FBD     -0.262000
      9 S15        -0.6760    1.7860   -2.1450 ss        1 FBD     -0.035000
     10 C14        -1.2320    1.1980   -0.5650 c3        1 FBD     -0.237000
     11 C13        -0.0930    1.2700    0.4290 c3        1 FBD     -0.071000
     12 C24         0.0560    2.6910    0.9230 c2        1 FBD      0.332000
     13 O25         0.9190    3.4500    0.4090 o         1 FBD     -0.580000
     14 O26        -0.6910    3.1190    1.8410 o         1 FBD     -0.580000
     15 N12        -0.3680    0.4130    1.5270 n         1 FBD     -0.330000
     16 C11         0.6960   -0.0790    2.3270 c2        1 FBD      0.349000
     17 O27         1.7220    0.5620    2.4330 o         1 FBD     -0.458000
     18 N10         0.5480   -1.3030    3.0290 n         1 FBD     -0.332000
     19 C6          1.6200   -1.8060    3.8140 c3        1 FBD     -0.042000
     20 C7          2.9230   -1.6070    3.0740 c2        1 FBD      0.341000
     21 O8          3.0690   -2.0830    1.9180 o         1 FBD     -0.602000
     22 O9          3.8720   -0.9900    3.6240 o         1 FBD     -0.602000
     23 C5          1.4060   -3.2810    4.0730 c3        1 FBD     -0.148000
     24 C4          2.2170   -3.7040    5.2790 c3        1 FBD     -0.200000
     25 C2          2.2020   -5.2130    5.3920 c2        1 FBD      0.323000
     26 O3          3.1910   -5.8840    4.9950 o         1 FBD     -0.621500
     27 O1          1.2060   -5.7960    5.8940 o         1 FBD     -0.621500
     28 H22        -4.2110    2.9040   -6.4680 ha        1 FBD      0.113000
     29 H23        -3.7970    1.5980   -4.5430 ha        1 FBD      0.151000
     30 H19        -0.1910    3.4930   -6.9340 ha        1 FBD      0.131000
     31 H18         0.2250    2.1900   -5.0090 ha        1 FBD      0.237000
     32 H16        -0.9020    0.1310   -3.7170 h1        1 FBD      0.158000
     33 H16A       -2.3260    0.5080   -3.0970 h1        1 FBD      0.158000
     34 H14        -1.9730    1.7550   -0.2520 h1        1 FBD      0.121500
     35 H14A       -1.5330    0.2720   -0.6490 h1        1 FBD      0.121500
     36 H13         0.7360    0.9880   -0.0050 h1        1 FBD      0.078000
     37 HN12       -1.2270    0.1660    1.7090 hn        1 FBD      0.211000
     38 HN10       -0.2420   -1.7570    2.9930 hn        1 FBD      0.213000
     39 H6          1.6520   -1.3270    4.6660 h1        1 FBD      0.103000
     40 H5          1.6930   -3.7940    3.2910 hc        1 FBD      0.079000
     41 H5A         0.4580   -3.4480    4.2430 hc        1 FBD      0.079000
     42 H4          3.1400   -3.3940    5.1770 hc        1 FBD      0.071500
     43 H4A         1.8290   -3.3120    6.0860 hc        1 FBD      0.071500
@<TRIPOS>BOND
     1    1    2 1   
     2    2    3 1   
     3    2    5 1   
     4    3    4 1   
     5    3   28 1   
     6    4   29 1   
     7    5   30 1   
     8    6    7 1   
     9    6   31 1   
    10    7    8 1   
    11    8    9 1   
    12    8   32 1   
    13    8   33 1   
    14    9   10 1   
    15   10   11 1   
    16   10   34 1   
    17   10   35 1   
    18   11   12 1   
    19   11   15 1   
    20   11   36 1   
    21   12   13 1   
    22   12   14 1   
    23   15   16 1   
    24   15   37 1   
    25   16   17 1   
    26   16   18 1   
    27   18   19 1   
    28   18   38 1   
    29   19   20 1   
    30   19   23 1   
    31   19   39 1   
    32   20   21 1   
    33   20   22 1   
    34   23   24 1   
    35   23   40 1   
    36   23   41 1   
    37   24   25 1   
    38   24   42 1   
    39   24   43 1   
    40   25   26 1   
    41   25   27 1   
@<TRIPOS>SUBSTRUCTURE
     1 FBD         1 TEMP              0 ****  ****    0 ROOT
