@<TRIPOS>MOLECULE
FBD
   43    43     1     0     0
SMALL
bcc


@<TRIPOS>ATOM
      1 F21        -5.7650   -3.7080   -1.2570 f         1 FBD     -0.188900
      2 C20        -4.8990   -2.6800   -1.0340 ca        1 FBD      0.062900
      3 C22        -5.2680   -1.3730   -1.3850 ca        1 FBD     -0.183000
      4 C23        -4.3770   -0.3260   -1.1520 ca        1 FBD     -0.101500
      5 C19        -3.6410   -2.9300   -0.4550 ca        1 FBD     -0.183000
      6 C18        -2.7640   -1.8770   -0.2240 ca        1 FBD     -0.101500
      7 C17        -3.1280   -0.5610   -0.5680 ca        1 FBD     -0.039300
      8 C16        -2.1560    0.5250   -0.3150 c3        1 FBD      0.031000
      9 S15        -2.9390    2.1230   -0.4040 ss        1 FBD     -0.448200
     10 C14        -1.9430    3.2490    0.5520 c3        1 FBD      0.046700
     11 C13        -0.4500    3.3890    0.2380 c3        1 FBD     -0.028300
     12 C24        -0.0610    4.8410    0.7030 c         1 FBD      0.903600
     13 O25        -0.4920    5.7980   -0.0030 o         1 FBD     -0.850800
     14 O26         0.6250    4.9970    1.7520 o         1 FBD     -0.850800
     15 N12         0.3340    2.3550    0.8750 n         1 FBD     -0.549900
     16 C11         0.9970    1.3640    0.1230 c         1 FBD      0.733100
     17 O27         0.8300    1.2960   -1.1250 o         1 FBD     -0.687100
     18 N10         1.8720    0.4730    0.8010 n         1 FBD     -0.470900
     19 C6          1.9410   -0.8990    0.3000 c3        1 FBD     -0.045300
     20 C7          0.6710   -1.7390    0.6250 c         1 FBD      0.883600
     21 O8          0.4460   -2.7850   -0.0510 o         1 FBD     -0.869300
     22 O9         -0.1310   -1.3480    1.5300 o         1 FBD     -0.869300
     23 C5          3.1660   -1.6520    0.8480 c3        1 FBD     -0.046400
     24 C4          4.4840   -1.1390    0.3200 c3        1 FBD     -0.175400
     25 C2          5.6890   -1.9410    0.8220 c         1 FBD      0.902600
     26 O3          6.5270   -2.3720   -0.0310 o         1 FBD     -0.883800
     27 O1          5.8580   -2.1230    2.0670 o         1 FBD     -0.883800
     28 H22        -6.2480   -1.1830   -1.8390 ha        1 FBD      0.122000
     29 H23        -4.6660    0.7020   -1.4270 ha        1 FBD      0.194500
     30 H19        -3.3520   -3.9570   -0.1930 ha        1 FBD      0.122000
     31 H18        -1.7580   -2.0660    0.2300 ha        1 FBD      0.194500
     32 H16        -1.6540    0.3710    0.6810 h1        1 FBD      0.128200
     33 H16A       -1.3320    0.4900   -1.0810 h1        1 FBD      0.128200
     34 H14        -2.4280    4.2330    0.3180 h1        1 FBD      0.063700
     35 H14A       -2.0900    3.0160    1.6330 h1        1 FBD      0.063700
     36 H13        -0.3070    3.3430   -0.8810 h1        1 FBD      0.084700
     37 HN12        0.7670    2.6610    1.7210 hn        1 FBD      0.309500
     38 HN10        1.7360    0.4630    1.7950 hn        1 FBD      0.270500
     39 H6          2.0250   -0.8430   -0.8240 h1        1 FBD      0.073700
     40 H5          3.1790   -1.6170    1.9680 hc        1 FBD      0.044700
     41 H5A         3.0350   -2.7260    0.5480 hc        1 FBD      0.044700
     42 H4          4.4770   -1.1630   -0.8000 hc        1 FBD      0.024200
     43 H4A         4.6310   -0.0750    0.6360 hc        1 FBD      0.024200
@<TRIPOS>BOND
     1    1    2 1   
     2    2    3 ar  
     3    2    5 ar  
     4    3    4 ar  
     5    3   28 1   
     6    4    7 ar  
     7    4   29 1   
     8    5    6 ar  
     9    5   30 1   
    10    6    7 ar  
    11    6   31 1   
    12    7    8 1   
    13    8    9 1   
    14    8   32 1   
    15    8   33 1   
    16    9   10 1   
    17   10   11 1   
    18   10   34 1   
    19   10   35 1   
    20   11   12 1   
    21   11   15 1   
    22   11   36 1   
    23   12   13 1   
    24   12   14 1   
    25   15   16 1   
    26   15   37 1   
    27   16   17 2   
    28   16   18 1   
    29   18   19 1   
    30   18   38 1   
    31   19   20 1   
    32   19   23 1   
    33   19   39 1   
    34   20   21 1   
    35   20   22 1   
    36   23   24 1   
    37   23   40 1   
    38   23   41 1   
    39   24   25 1   
    40   24   42 1   
    41   24   43 1   
    42   25   26 1   
    43   25   27 1   
@<TRIPOS>SUBSTRUCTURE
     1 FBD         1 TEMP              0 ****  ****    0 ROOT
