@<TRIPOS>MOLECULE
FBD
   45    45     1     0     0
SMALL
bcc


@<TRIPOS>ATOM
      1 F21         1.2500    1.7620   -1.9420 f         1 FBD     -0.156900
      2 C20         2.5120    1.4290   -1.5720 ca        1 FBD      0.107900
      3 C22         2.7170    0.3740   -0.6650 ca        1 FBD     -0.171500
      4 C23         4.0140    0.0350   -0.2920 ca        1 FBD     -0.100500
      5 C19         3.6100    2.1350   -2.0980 ca        1 FBD     -0.171500
      6 C18         4.8990    1.7830   -1.7150 ca        1 FBD     -0.100500
      7 C17         5.1120    0.7340   -0.8080 ca        1 FBD     -0.071300
      8 C16         6.4920    0.3670   -0.4220 c3        1 FBD      0.027000
      9 S15         6.9100    1.0720    1.1590 ss        1 FBD     -0.360200
     10 C14         8.4070    1.9780    0.8750 c3        1 FBD     -0.014300
     11 C13         8.2870    3.3460    0.1970 c3        1 FBD      0.045500
     12 C24         8.6900    3.2350   -1.2950 c         1 FBD      0.902600
     13 O25         8.0040    2.5280   -2.0920 o         1 FBD     -0.848800
     14 O26         9.6780    3.9180   -1.6960 o         1 FBD     -0.848800
     15 N12         7.0130    4.0230    0.3040 n3        1 FBD     -0.908800
     16 C11         7.6590    6.7240    0.1980 c         1 FBD      0.824600
     17 O27         7.8890    6.6580    1.4010 o         1 FBD     -0.583500
     18 N10         8.4720    6.5800   -0.9490 n         1 FBD     -0.506900
     19 C6          7.6470    6.8690   -2.1280 c3        1 FBD     -0.010300
     20 C7          6.2760    7.2240   -1.5390 c         1 FBD      0.708600
     21 O8          5.2130    7.5690   -2.0270 o         1 FBD     -0.559500
     22 O9          6.3570    7.1680   -0.1510 os        1 FBD     -0.432200
     23 C5          7.5490    5.7770   -3.1880 c3        1 FBD     -0.088400
     24 C4          8.8370    5.7020   -3.9810 c3        1 FBD     -0.185400
     25 C2          8.7590    4.6590   -5.0570 c         1 FBD      0.642100
     26 O3          8.6620    4.8890   -6.2700 o         1 FBD     -0.562000
     27 O1          8.8330    3.3460   -4.7440 oh        1 FBD     -0.595100
     28 H22         1.8540   -0.1710   -0.2590 ha        1 FBD      0.140000
     29 H23         4.1760   -0.7880    0.4190 ha        1 FBD      0.161500
     30 H19         3.4400    2.9580   -2.8060 ha        1 FBD      0.140000
     31 H18         5.7760    2.3230   -2.1280 ha        1 FBD      0.161500
     32 H16         6.5880   -0.7420   -0.3210 h1        1 FBD      0.098200
     33 H16A        7.2240    0.7270   -1.1970 h1        1 FBD      0.098200
     34 H14         9.1240    1.3520    0.2920 h1        1 FBD      0.068700
     35 H14A        8.8110    2.1110    1.9110 h1        1 FBD      0.068700
     36 H13         9.0520    4.0200    0.6930 h1        1 FBD      0.066700
     37 HN12        6.7340    4.0850    1.2650 hn        1 FBD      0.355300
     38 HN10        8.8850    3.2170   -3.7700 ho        1 FBD      0.496000
     39 H6          8.0660    7.8070   -2.6010 h1        1 FBD      0.091700
     40 H5          7.3460    4.7750   -2.7140 hc        1 FBD      0.085200
     41 H5A         6.6890    6.0270   -3.8640 hc        1 FBD      0.085200
     42 H4          9.0580    6.6910   -4.4600 hc        1 FBD      0.087700
     43 H4A         9.6880    5.4340   -3.2910 hc        1 FBD      0.087700
     44 H122        6.3110    3.5140   -0.2040 hn        1 FBD      0.355300
     45 H102        9.0300    5.7370   -0.9920 hn        1 FBD      0.370500
@<TRIPOS>BOND
     1    1    2 1   
     2    2    3 ar  
     3    2    5 ar  
     4    3    4 ar  
     5    3   28 1   
     6    4    7 ar  
     7    4   29 1   
     8    5    6 ar  
     9    5   30 1   
    10    6    7 ar  
    11    6   31 1   
    12    7    8 1   
    13    8    9 1   
    14    8   32 1   
    15    8   33 1   
    16    9   10 1   
    17   10   11 1   
    18   10   34 1   
    19   10   35 1   
    20   11   12 1   
    21   11   15 1   
    22   11   36 1   
    23   12   13 1   
    24   12   14 1   
    25   15   37 1   
    26   15   44 1   
    27   16   17 2   
    28   16   18 1   
    29   16   22 1   
    30   18   19 1   
    31   18   45 1   
    32   19   20 1   
    33   19   23 1   
    34   19   39 1   
    35   20   21 2   
    36   20   22 1   
    37   23   24 1   
    38   23   40 1   
    39   23   41 1   
    40   24   25 1   
    41   24   42 1   
    42   24   43 1   
    43   25   26 2   
    44   25   27 1   
    45   27   38 1   
@<TRIPOS>SUBSTRUCTURE
     1 FBD         1 TEMP              0 ****  ****    0 ROOT
