@<TRIPOS>MOLECULE
FBD
   45    45     1     0     0
SMALL
bcc


@<TRIPOS>ATOM
      1 F21         0.9690   -0.0560   -0.7060 f         1 FBD     -0.148900
      2 C20         2.2530    0.0560   -0.2860 ca        1 FBD      0.119900
      3 C22         2.5290    0.2130    1.0840 ca        1 FBD     -0.169500
      4 C23         3.8500    0.3200    1.5060 ca        1 FBD     -0.096500
      5 C19         3.3050    0.0120   -1.2200 ca        1 FBD     -0.169500
      6 C18         4.6200    0.1210   -0.7800 ca        1 FBD     -0.096500
      7 C17         4.9030    0.2760    0.5840 ca        1 FBD     -0.095300
      8 C16         6.3030    0.3650    1.0470 c3        1 FBD      0.036000
      9 S15         6.7840    2.0750    1.2520 ss        1 FBD     -0.348200
     10 C14         8.3510    2.1850    0.4330 c3        1 FBD     -0.018300
     11 C13         8.2570    2.3550   -1.0720 c3        1 FBD     -0.033500
     12 C24         7.9650    0.9640   -1.7840 c         1 FBD      0.918600
     13 O25         8.5900   -0.0200   -1.3350 o         1 FBD     -0.782800
     14 O26         7.1300    0.9860   -2.7280 o         1 FBD     -0.782800
     15 N12         7.2240    3.3580   -1.4730 n4        1 FBD     -0.654800
     16 C11         7.7690    4.7670   -1.6380 c         1 FBD      0.614100
     17 O27         8.7990    5.0290   -0.9900 o         1 FBD     -0.569100
     18 N10         7.1460    5.5830   -2.5430 n         1 FBD     -0.469900
     19 C6          7.2600    7.0360   -2.4080 c3        1 FBD     -0.084300
     20 C7          5.8210    7.7120   -2.4820 c         1 FBD      0.921600
     21 O8          5.8080    8.9570   -2.3590 o         1 FBD     -0.798300
     22 O9          4.8340    6.9450   -2.6390 o         1 FBD     -0.798300
     23 C5          8.1490    7.6570   -3.4830 c3        1 FBD     -0.072400
     24 C4          9.6190    7.4470   -3.1870 c3        1 FBD     -0.183400
     25 C2         10.4860    7.7320   -4.3730 c         1 FBD      0.631100
     26 O3         11.3920    8.5620   -4.4590 o         1 FBD     -0.512000
     27 O1         10.3270    6.9920   -5.5150 oh        1 FBD     -0.596100
     28 H22         1.7020    0.2520    1.8060 ha        1 FBD      0.146500
     29 H23         4.0670    0.4430    2.5790 ha        1 FBD      0.162000
     30 H19         3.0820   -0.1080   -2.2900 ha        1 FBD      0.146500
     31 H18         5.4490    0.0890   -1.5170 ha        1 FBD      0.162000
     32 H16         7.0010   -0.1370    0.3220 h1        1 FBD      0.098200
     33 H16A        6.4210   -0.1260    2.0450 h1        1 FBD      0.098200
     34 H14         8.8530    3.0720    0.8960 h1        1 FBD      0.106700
     35 H14A        8.9720    1.2710    0.6190 h1        1 FBD      0.106700
     36 H13         9.2570    2.7060   -1.4590 hx        1 FBD      0.109700
     37 HN12        6.4910    3.3730   -0.7420 hn        1 FBD      0.473300
     38 HN10        9.5960    6.3700   -5.4000 ho        1 FBD      0.428000
     39 H6          7.6870    7.2880   -1.3950 h1        1 FBD      0.072700
     40 H5          7.9130    8.7580   -3.4920 hc        1 FBD      0.071700
     41 H5A         7.8850    7.2510   -4.4940 hc        1 FBD      0.071700
     42 H4          9.9340    8.1190   -2.3440 hc        1 FBD      0.081700
     43 H4A         9.8090    6.3880   -2.8590 hc        1 FBD      0.081700
     44 H122        6.8030    3.0020   -2.3540 hn        1 FBD      0.473300
     45 H102        6.2330    5.3200   -2.8910 hn        1 FBD      0.348500
@<TRIPOS>BOND
     1    1    2 1   
     2    2    3 ar  
     3    2    5 ar  
     4    3    4 ar  
     5    3   28 1   
     6    4    7 ar  
     7    4   29 1   
     8    5    6 ar  
     9    5   30 1   
    10    6    7 ar  
    11    6   31 1   
    12    7    8 1   
    13    8    9 1   
    14    8   32 1   
    15    8   33 1   
    16    9   10 1   
    17   10   11 1   
    18   10   34 1   
    19   10   35 1   
    20   11   12 1   
    21   11   15 1   
    22   11   36 1   
    23   12   13 1   
    24   12   14 1   
    25   15   16 1   
    26   15   37 1   
    27   15   44 1   
    28   16   17 2   
    29   16   18 1   
    30   18   19 1   
    31   18   45 1   
    32   19   20 1   
    33   19   23 1   
    34   19   39 1   
    35   20   21 1   
    36   20   22 1   
    37   23   24 1   
    38   23   40 1   
    39   23   41 1   
    40   24   25 1   
    41   24   42 1   
    42   24   43 1   
    43   25   26 2   
    44   25   27 1   
    45   27   38 1   
@<TRIPOS>SUBSTRUCTURE
     1 FBD         1 TEMP              0 ****  ****    0 ROOT
