@<TRIPOS>MOLECULE
FBD
   45    45     1     0     0
SMALL
bcc


@<TRIPOS>ATOM
      1 F21         1.2570    1.7330   -1.8830 f         1 FBD     -0.155900
      2 C20         2.5250    1.4060   -1.5250 ca        1 FBD      0.107900
      3 C22         2.7440    0.3540   -0.6180 ca        1 FBD     -0.171500
      4 C23         4.0460    0.0230   -0.2580 ca        1 FBD     -0.100500
      5 C19         3.6130    2.1170   -2.0630 ca        1 FBD     -0.171500
      6 C18         4.9080    1.7720   -1.6920 ca        1 FBD     -0.100500
      7 C17         5.1350    0.7260   -0.7860 ca        1 FBD     -0.071300
      8 C16         6.5200    0.3670   -0.4130 c3        1 FBD      0.027000
      9 S15         6.9510    1.0770    1.1620 ss        1 FBD     -0.360200
     10 C14         8.4400    1.9910    0.8620 c3        1 FBD     -0.014300
     11 C13         8.3050    3.3560    0.1830 c3        1 FBD      0.045500
     12 C24         8.6940    3.2450   -1.3120 c         1 FBD      0.902600
     13 O25         8.0050    2.5330   -2.1020 o         1 FBD     -0.848800
     14 O26         9.6740    3.9350   -1.7250 o         1 FBD     -0.848800
     15 N12         7.0280    4.0260    0.3020 n8        1 FBD     -0.908800
     16 C11         7.6560    6.7310    0.1840 c         1 FBD      0.824600
     17 O27         7.8980    6.6690    1.3850 o         1 FBD     -0.583500
     18 N10         8.4580    6.5900   -0.9710 ns        1 FBD     -0.506900
     19 C6          7.6190    6.8710   -2.1420 c3        1 FBD     -0.010300
     20 C7          6.2530    7.2180   -1.5400 c         1 FBD      0.708600
     21 O8          5.1820    7.5560   -2.0190 o         1 FBD     -0.559500
     22 O9          6.3470    7.1650   -0.1530 os        1 FBD     -0.432200
     23 C5          7.5180    5.7770   -3.1990 c3        1 FBD     -0.088400
     24 C4          8.7990    5.7080   -4.0050 c3        1 FBD     -0.185400
     25 C2          8.7160    4.6630   -5.0780 c         1 FBD      0.642100
     26 O3          8.6060    4.8900   -6.2900 o         1 FBD     -0.562000
     27 O1          8.8020    3.3510   -4.7640 oh        1 FBD     -0.595100
     28 H22         1.8880   -0.1940   -0.2030 ha        1 FBD      0.140000
     29 H23         4.2190   -0.7980    0.4540 ha        1 FBD      0.161500
     30 H19         3.4320    2.9380   -2.7710 ha        1 FBD      0.140000
     31 H18         5.7770    2.3150   -2.1150 ha        1 FBD      0.161500
     32 H16         6.6240   -0.7410   -0.3110 h1        1 FBD      0.098200
     33 H16A        7.2430    0.7290   -1.1960 h1        1 FBD      0.098200
     34 H14         9.1540    1.3680    0.2720 h1        1 FBD      0.068700
     35 H14A        8.8540    2.1270    1.8930 h1        1 FBD      0.068700
     36 H13         9.0710    4.0360    0.6700 h1        1 FBD      0.066700
     37 HN12        6.7580    4.0890    1.2650 hn        1 FBD      0.355300
     38 HN10        9.0210    5.7510   -1.0180 hn        1 FBD      0.370500
     39 H6          8.0270    7.8110   -2.6210 h1        1 FBD      0.091700
     40 H5          6.6490    6.0190   -3.8660 hc        1 FBD      0.085200
     41 H5A         7.3270    4.7740   -2.7210 hc        1 FBD      0.085200
     42 H4          9.6580    5.4470   -3.3230 hc        1 FBD      0.087700
     43 H4A         9.0080    6.6980   -4.4870 hc        1 FBD      0.087700
     44 H122        6.3240    3.5120   -0.1980 hn        1 FBD      0.355300
     45 H102        8.8650    3.2240   -3.7890 ho        1 FBD      0.496000
@<TRIPOS>BOND
     1    1    2 1   
     2    2    3 ar  
     3    2    5 ar  
     4    3    4 ar  
     5    3   28 1   
     6    4    7 ar  
     7    4   29 1   
     8    5    6 ar  
     9    5   30 1   
    10    6    7 ar  
    11    6   31 1   
    12    7    8 1   
    13    8    9 1   
    14    8   32 1   
    15    8   33 1   
    16    9   10 1   
    17   10   11 1   
    18   10   34 1   
    19   10   35 1   
    20   11   12 1   
    21   11   15 1   
    22   11   36 1   
    23   12   13 1   
    24   12   14 1   
    25   15   37 1   
    26   15   44 1   
    27   16   17 2   
    28   16   18 1   
    29   16   22 1   
    30   18   19 1   
    31   18   38 1   
    32   19   20 1   
    33   19   23 1   
    34   19   39 1   
    35   20   21 2   
    36   20   22 1   
    37   23   24 1   
    38   23   40 1   
    39   23   41 1   
    40   24   25 1   
    41   24   42 1   
    42   24   43 1   
    43   25   26 2   
    44   25   27 1   
    45   27   45 1   
@<TRIPOS>SUBSTRUCTURE
     1 FBD         1 TEMP              0 ****  ****    0 ROOT
