@<TRIPOS>MOLECULE
FBE
   16    13     1     0     0
SMALL
bcc


@<TRIPOS>ATOM
      1 C           1.4030    0.6210   -2.4290 c1        1 FBE      0.340000
      2 O           2.6620    0.6210   -2.4290 o         1 FBE     -0.574500
      3 C1          0.6460    0.6210   -1.1190 c2        1 FBE     -0.225000
      4 C2          0.3940   -0.8050   -0.6820 c2        1 FBE     -0.086000
      5 C3         -0.2680   -1.0520    0.4650 c1        1 FBE     -0.276000
      6 C4         -0.7600    0.0980    1.3160 c2        1 FBE     -0.033000
      7 N          -1.4260   -0.4140    2.4690 n3        1 FBE     -0.354000
      8 O2          0.7730    0.6210   -3.5200 o         1 FBE     -0.574500
      9 H11        -0.2070    1.0810   -1.2360 ha        1 FBE      0.073000
     10 H12         1.1740    1.0810   -0.4390 ha        1 FBE      0.073000
     11 H2          0.7120   -1.5470   -1.2310 ha        1 FBE      0.101000
     12 H3         -0.4310   -1.9720    0.7470 ha        1 FBE      0.091000
     13 H41        -0.0010    0.6450    1.5950 h4        1 FBE      0.060000
     14 H42        -1.3810    0.6440    0.7980 h4        1 FBE      0.060000
     15 HN1        -2.2900   -0.1220    2.4760 hn        1 FBE      0.162500
     16 HN2        -1.0000   -0.1220    3.2200 hn        1 FBE      0.162500
@<TRIPOS>BOND
     1    1    2 1   
     2    1    8 1   
     3    3    4 1   
     4    3    9 1   
     5    3   10 1   
     6    4    5 1   
     7    4   11 1   
     8    5   12 1   
     9    6    7 1   
    10    6   13 1   
    11    6   14 1   
    12    7   15 1   
    13    7   16 1   
@<TRIPOS>SUBSTRUCTURE
     1 FBE         1 TEMP              0 ****  ****    0 ROOT
