@<TRIPOS>MOLECULE
FBE
   16    15     1     0     0
SMALL
bcc


@<TRIPOS>ATOM
      1 C          -1.9860   -0.0750   -0.1550 c         1 FBE      0.915600
      2 O          -2.0780   -1.0030    0.6980 o         1 FBE     -0.843800
      3 C1         -0.8810    0.9900    0.0380 c3        1 FBE     -0.194200
      4 C2          0.3940    0.3820    0.4620 c2        1 FBE     -0.061200
      5 C3          1.5980    0.7680    0.0260 c2        1 FBE     -0.321200
      6 C4          2.8750    0.1330    0.4710 c3        1 FBE      0.195000
      7 N           3.5690   -0.6590   -0.5230 n3        1 FBE     -0.906800
      8 O2         -2.7520    0.0600   -1.1490 o         1 FBE     -0.843800
      9 H11        -0.7670    1.5800   -0.9060 hc        1 FBE      0.037200
     10 H12        -1.2390    1.6860    0.8420 hc        1 FBE      0.037200
     11 H2          0.2750   -0.4530    1.1780 ha        1 FBE      0.139000
     12 H3          1.7080    1.5870   -0.7000 ha        1 FBE      0.104000
     13 H41         3.5850    0.9460    0.8030 h1        1 FBE      0.036200
     14 H42         2.6850   -0.5320    1.3620 h1        1 FBE      0.036200
     15 HN1         3.0180   -1.4640   -0.7610 hn        1 FBE      0.335800
     16 HN2         3.6940   -0.1220   -1.3610 hn        1 FBE      0.335800
@<TRIPOS>BOND
     1    1    2 1   
     2    1    3 1   
     3    1    8 1   
     4    3    4 1   
     5    3    9 1   
     6    3   10 1   
     7    4    5 2   
     8    4   11 1   
     9    5    6 1   
    10    5   12 1   
    11    6    7 1   
    12    6   13 1   
    13    6   14 1   
    14    7   15 1   
    15    7   16 1   
@<TRIPOS>SUBSTRUCTURE
     1 FBE         1 TEMP              0 ****  ****    0 ROOT
