@<TRIPOS>MOLECULE
FBF
   21    21     1     0     0
SMALL
bcc


@<TRIPOS>ATOM
      1 C1         -0.0180    0.5840    0.0650 ca        1 FBF     -0.099500
      2 C2          1.3750    0.5300    0.0450 ca        1 FBF     -0.068500
      3 C3          2.0650    0.0420    1.1580 ca        1 FBF     -0.116300
      4 C4          1.3760   -0.3890    2.2940 ca        1 FBF     -0.068500
      5 C5         -0.0180   -0.3350    2.3190 ca        1 FBF     -0.099500
      6 C6         -0.7090    0.1500    1.2030 ca        1 FBF     -0.241900
      7 C7         -2.1840    0.2480    1.2510 ce        1 FBF      0.584800
      8 N8         -2.9650    1.0210    1.8990 n2        1 FBF     -0.699100
      9 N9         -2.8370   -0.7740    0.3550 nz        1 FBF     -0.824600
     10 C10         3.5980   -0.0020    1.1380 c3        1 FBF      0.687200
     11 F11         4.1280   -0.2010   -0.1110 f         1 FBF     -0.215967
     12 F12         4.1790    1.1540    1.5910 f         1 FBF     -0.215967
     13 F13         4.1330   -0.9980    1.9140 f         1 FBF     -0.215967
     14 H1         -0.5570    0.9900   -0.8040 ha        1 FBF      0.155500
     15 H2          1.9340    0.8710   -0.8450 ha        1 FBF      0.185000
     16 H4          1.9330   -0.7730    3.1670 ha        1 FBF      0.185000
     17 H5         -0.5600   -0.6690    3.2190 ha        1 FBF      0.155500
     18 HN8        -2.5710    1.7170    2.4990 hn        1 FBF      0.495400
     19 HN9        -2.4380   -0.6760   -0.5850 hn        1 FBF      0.472467
     20 HN9A       -3.8580   -0.6560    0.3110 hn        1 FBF      0.472467
     21 H93        -2.6180   -1.7080    0.7180 hn        1 FBF      0.472467
@<TRIPOS>BOND
     1    1    2 ar  
     2    1    6 ar  
     3    1   14 1   
     4    2    3 ar  
     5    2   15 1   
     6    3    4 ar  
     7    3   10 1   
     8    4    5 ar  
     9    4   16 1   
    10    5    6 ar  
    11    5   17 1   
    12    6    7 1   
    13    7    8 2   
    14    7    9 1   
    15    8   18 1   
    16    9   19 1   
    17    9   20 1   
    18    9   21 1   
    19   10   11 1   
    20   10   12 1   
    21   10   13 1   
@<TRIPOS>SUBSTRUCTURE
     1 FBF         1 TEMP              0 ****  ****    0 ROOT
