@<TRIPOS>MOLECULE
FBF
   20    20     1     0     0
SMALL
bcc


@<TRIPOS>ATOM
      1 C1         -1.1530   -1.1790   -0.3770 ca        1 FBF     -0.105500
      2 C2          0.2400   -1.1870   -0.3210 ca        1 FBF     -0.089000
      3 C3          0.9270   -0.0120   -0.0080 ca        1 FBF     -0.159300
      4 C4          0.2320    1.1730    0.2400 ca        1 FBF     -0.089000
      5 C5         -1.1610    1.1820    0.1830 ca        1 FBF     -0.105500
      6 C6         -1.8530    0.0050   -0.1190 ca        1 FBF     -0.110900
      7 C7         -3.3520    0.0190   -0.1790 ce        1 FBF      0.645800
      8 N8         -3.9260    0.9300   -0.9060 n2        1 FBF     -0.820100
      9 N9         -3.9690   -1.0360    0.5250 nh        1 FBF     -0.958800
     10 C10         2.4500   -0.0200    0.0410 c3        1 FBF      0.686200
     11 F11         3.0020   -1.2170    0.4270 f         1 FBF     -0.236633
     12 F12         3.0540    0.2540   -1.1620 f         1 FBF     -0.236633
     13 F13         2.9990    0.8960    0.9070 f         1 FBF     -0.236633
     14 H1         -1.6930   -2.1020   -0.6370 ha        1 FBF      0.156000
     15 H2          0.7990   -2.1140   -0.5210 ha        1 FBF      0.154500
     16 H4          0.7840    2.0950    0.4810 ha        1 FBF      0.154500
     17 H5         -1.7120    2.1190    0.3620 ha        1 FBF      0.156000
     18 HN8        -4.9230    0.9170   -0.9340 hn        1 FBF      0.388400
     19 HN9        -3.4180   -1.4610    1.2330 hn        1 FBF      0.401800
     20 HN9A       -4.9260   -0.9160    0.7650 hn        1 FBF      0.401800
@<TRIPOS>BOND
     1    1    2 ar  
     2    1    6 ar  
     3    1   14 1   
     4    2    3 ar  
     5    2   15 1   
     6    3    4 ar  
     7    3   10 1   
     8    4    5 ar  
     9    4   16 1   
    10    5    6 ar  
    11    5   17 1   
    12    6    7 1   
    13    7    8 2   
    14    7    9 1   
    15    8   18 1   
    16    9   19 1   
    17    9   20 1   
    18   10   11 1   
    19   10   12 1   
    20   10   13 1   
@<TRIPOS>SUBSTRUCTURE
     1 FBF         1 TEMP              0 ****  ****    0 ROOT
