@<TRIPOS>MOLECULE
FBF
   21    21     1     0     0
SMALL
bcc


@<TRIPOS>ATOM
      1 C1         -0.0260    0.5780    0.0640 ca        1 FBF     -0.099500
      2 C2          1.3660    0.5180    0.0300 ca        1 FBF     -0.068500
      3 C3          2.0660    0.0340    1.1390 ca        1 FBF     -0.116300
      4 C4          1.3860   -0.3880    2.2840 ca        1 FBF     -0.068500
      5 C5         -0.0070   -0.3270    2.3230 ca        1 FBF     -0.099500
      6 C6         -0.7070    0.1550    1.2120 ca        1 FBF     -0.241900
      7 C7         -2.1810    0.2600    1.2740 ce        1 FBF      0.584800
      8 N8         -2.9520    1.0400    1.9250 n2        1 FBF     -0.699100
      9 N9         -2.8480   -0.7650    0.3900 n4        1 FBF     -0.824600
     10 C10         3.5980   -0.0170    1.1030 c3        1 FBF      0.687200
     11 F11         4.1140   -0.2280   -0.1500 f         1 FBF     -0.215967
     12 F12         4.1890    1.1400    1.5410 f         1 FBF     -0.215967
     13 F13         4.1370   -1.0100    1.8800 f         1 FBF     -0.215967
     14 H1         -0.5720    0.9820   -0.8030 ha        1 FBF      0.155500
     15 H2          1.9170    0.8510   -0.8680 ha        1 FBF      0.185000
     16 H4          1.9510   -0.7680    3.1540 ha        1 FBF      0.185000
     17 H5         -0.5410   -0.6520    3.2300 ha        1 FBF      0.155500
     18 HN8        -2.5480    1.7380    2.5170 hn        1 FBF      0.495400
     19 HN9        -3.8680   -0.6420    0.3560 hn        1 FBF      0.472467
     20 HN9A       -2.4580   -0.6740   -0.5540 hn        1 FBF      0.472467
     21 H93        -2.6300   -1.6970    0.7570 hn        1 FBF      0.472467
@<TRIPOS>BOND
     1    1    2 ar  
     2    1    6 ar  
     3    1   14 1   
     4    2    3 ar  
     5    2   15 1   
     6    3    4 ar  
     7    3   10 1   
     8    4    5 ar  
     9    4   16 1   
    10    5    6 ar  
    11    5   17 1   
    12    6    7 1   
    13    7    8 2   
    14    7    9 1   
    15    8   18 1   
    16    9   19 1   
    17    9   20 1   
    18    9   21 1   
    19   10   11 1   
    20   10   12 1   
    21   10   13 1   
@<TRIPOS>SUBSTRUCTURE
     1 FBF         1 TEMP              0 ****  ****    0 ROOT
