@<TRIPOS>MOLECULE
FBF
   21    21     1     0     0
SMALL
bcc


@<TRIPOS>ATOM
      1 C1         -0.0020    0.6240    0.0870 ca        1 FBF     -0.099500
      2 C2          1.3890    0.5410    0.0680 ca        1 FBF     -0.068500
      3 C3          2.0650   -0.0020    1.1640 ca        1 FBF     -0.116300
      4 C4          1.3630   -0.4590    2.2810 ca        1 FBF     -0.068500
      5 C5         -0.0300   -0.3760    2.3050 ca        1 FBF     -0.099500
      6 C6         -0.7060    0.1650    1.2060 ca        1 FBF     -0.241900
      7 C7         -2.1790    0.2930    1.2540 ce        1 FBF      0.584800
      8 N8         -2.9450    1.0590    1.9270 n2        1 FBF     -0.699100
      9 N9         -2.8510   -0.6820    0.3200 n4        1 FBF     -0.824600
     10 C10         3.5960   -0.0780    1.1460 c3        1 FBF      0.687200
     11 F11         4.1270   -0.2390   -0.1090 f         1 FBF     -0.215967
     12 F12         4.2020    1.0460    1.6460 f         1 FBF     -0.215967
     13 F13         4.1070   -1.1150    1.8830 f         1 FBF     -0.215967
     14 H1         -0.5300    1.0740   -0.7690 ha        1 FBF      0.155500
     15 H2          1.9580    0.9020   -0.8080 ha        1 FBF      0.185000
     16 H4          1.9090   -0.8860    3.1410 ha        1 FBF      0.185000
     17 H5         -0.5810   -0.7300    3.1910 ha        1 FBF      0.155500
     18 HN8        -2.5380    1.7240    2.5530 hn        1 FBF      0.495400
     19 HN9        -2.4470   -0.5590   -0.6150 hn        1 FBF      0.472467
     20 HN9A       -3.8690   -0.5400    0.2780 hn        1 FBF      0.472467
     21 H93        -2.6530   -1.6330    0.6500 hn        1 FBF      0.472467
@<TRIPOS>BOND
     1    1    2 ar  
     2    1    6 ar  
     3    1   14 1   
     4    2    3 ar  
     5    2   15 1   
     6    3    4 ar  
     7    3   10 1   
     8    4    5 ar  
     9    4   16 1   
    10    5    6 ar  
    11    5   17 1   
    12    6    7 1   
    13    7    8 2   
    14    7    9 1   
    15    8   18 1   
    16    9   19 1   
    17    9   20 1   
    18    9   21 1   
    19   10   11 1   
    20   10   12 1   
    21   10   13 1   
@<TRIPOS>SUBSTRUCTURE
     1 FBF         1 TEMP              0 ****  ****    0 ROOT
