@<TRIPOS>MOLECULE
FBF
   20    16     1     0     0
SMALL
bcc


@<TRIPOS>ATOM
      1 C1         -0.3000   -0.0850   -1.1970 c1        1 FBF     -0.043500
      2 C2          1.0860   -0.0850   -1.1970 c1        1 FBF     -0.029500
      3 C3          1.7800   -0.0850    0.0040 c1        1 FBF     -0.123100
      4 C4          1.0860   -0.0850    1.2040 c1        1 FBF     -0.045000
      5 C5         -0.3000   -0.0850    1.2040 c1        1 FBF     -0.045000
      6 C6         -0.9930   -0.0850    0.0040 cg        1 FBF     -0.117300
      7 C7         -2.5050   -0.0670    0.0040 ce        1 FBF      0.225300
      8 N8         -3.1720   -1.1890    0.0600 n1        1 FBF     -0.292000
      9 N9         -3.2000    1.1690   -0.0570 nh        1 FBF     -0.821600
     10 C10         3.2920   -0.0600    0.0040 c3        1 FBF      0.652000
     11 F11         3.7290    0.5240   -1.1190 f         1 FBF     -0.234967
     12 F12         3.7590   -1.3130    0.0660 f         1 FBF     -0.234967
     13 F13         3.7270    0.6310    1.0650 f         1 FBF     -0.234967
     14 H1         -0.7880   -0.0850   -2.0420 ha        1 FBF      0.102500
     15 H2          1.5750   -0.0850   -2.0420 ha        1 FBF      0.098500
     16 H4          1.5740   -0.0850    2.0490 ha        1 FBF      0.095000
     17 H5         -0.7880   -0.0850    2.0490 ha        1 FBF      0.095000
     18 HN8        -2.7250   -1.9840    0.0990 DU        1 FBF      0.153000
     19 HN9        -3.6730    1.3900   -0.8060 hn        1 FBF      0.400800
     20 HN9A       -3.1670    1.7460    0.6480 hn        1 FBF      0.400800
@<TRIPOS>BOND
     1    1    6 3   
     2    1   14 1   
     3    2    3 3   
     4    2   15 1   
     5    3   10 1   
     6    4    5 3   
     7    4   16 1   
     8    5   17 1   
     9    6    7 1   
    10    7    8 2   
    11    7    9 1   
    12    9   19 1   
    13    9   20 1   
    14   10   11 1   
    15   10   12 1   
    16   10   13 1   
@<TRIPOS>SUBSTRUCTURE
     1 FBF         1 TEMP              0 ****  ****    0 ROOT
