@<TRIPOS>MOLECULE
FBG
   20    21     1     0     0
SMALL
bcc


@<TRIPOS>ATOM
      1 F14        -0.0060   -0.2820    0.0160 f         1 FBG     -0.169900
      2 C5          1.3490   -0.1650   -0.0060 ca        1 FBG      0.074900
      3 C6          2.0680   -0.1040    1.2030 ca        1 FBG     -0.128000
      4 C1          3.4570    0.0030    1.2020 ca        1 FBG     -0.083600
      5 C11         4.2040   -0.0110    2.5370 c         1 FBG      0.925200
      6 O13         4.9430   -1.0040    2.7710 o         1 FBG     -0.813300
      7 O12         3.9950    0.9480    3.3260 o         1 FBG     -0.813300
      8 C4          2.0140   -0.1140   -1.2410 ca        1 FBG     -0.166000
      9 C3          3.4020    0.0200   -1.2540 ca        1 FBG     -0.182300
     10 C7          4.1530    0.0810   -2.5380 c3        1 FBG      0.188700
     11 O8          5.5470    0.3340   -2.3600 os        1 FBG     -0.452600
     12 C9          6.0980   -0.2830   -1.2130 c3        1 FBG      0.318200
     13 O10         5.4820    0.2860   -0.0710 os        1 FBG     -0.309900
     14 C2          4.1080    0.0870   -0.0410 ca        1 FBG      0.121100
     15 H1          1.5330   -0.1420    2.1640 ha        1 FBG      0.155000
     16 H3          1.4480   -0.1720   -2.1790 ha        1 FBG      0.124000
     17 H4          4.0370   -0.8820   -3.1060 h1        1 FBG      0.043200
     18 H5          3.8020    0.9380   -3.1750 h1        1 FBG      0.043200
     19 H6          7.1720    0.0370   -1.1700 h2        1 FBG      0.062200
     20 H7          5.9650   -1.3960   -1.2400 h2        1 FBG      0.062200
@<TRIPOS>BOND
     1    1    2 1   
     2    2    3 ar  
     3    2    8 ar  
     4    3    4 ar  
     5    3   15 1   
     6    4    5 1   
     7    4   14 ar  
     8    5    6 1   
     9    5    7 1   
    10    8    9 ar  
    11    8   16 1   
    12    9   10 1   
    13    9   14 ar  
    14   10   11 1   
    15   10   17 1   
    16   10   18 1   
    17   11   12 1   
    18   12   13 1   
    19   12   19 1   
    20   12   20 1   
    21   13   14 1   
@<TRIPOS>SUBSTRUCTURE
     1 FBG         1 TEMP              0 ****  ****    0 ROOT
