@<TRIPOS>MOLECULE
FBG
   20    21     1     0     0
SMALL
bcc


@<TRIPOS>ATOM
      1 F14         2.0640   -2.9860   -0.3100 f         1 FBG     -0.169900
      2 C5          1.2210   -1.9260   -0.1840 ca        1 FBG      0.074900
      3 C6          1.7420   -0.6190   -0.1190 ca        1 FBG     -0.128000
      4 C1          0.8950    0.4800   -0.0030 ca        1 FBG     -0.083600
      5 C11         1.4980    1.8870   -0.0140 c         1 FBG      0.925200
      6 O13         1.2280    2.6200   -1.0020 o         1 FBG     -0.813300
      7 O12         2.2560    2.1980    0.9430 o         1 FBG     -0.813300
      8 C4         -0.1630   -2.1510   -0.1270 ca        1 FBG     -0.166000
      9 C3         -1.0180   -1.0590    0.0160 ca        1 FBG     -0.182300
     10 C7         -2.4940   -1.2470    0.0840 c3        1 FBG      0.188700
     11 O8         -3.2000   -0.0340    0.3450 os        1 FBG     -0.452600
     12 C9         -2.6310    1.1040   -0.2690 c3        1 FBG      0.318200
     13 O10        -1.3470    1.3090    0.2950 os        1 FBG     -0.309900
     14 C2         -0.4860    0.2390    0.0860 ca        1 FBG      0.121100
     15 H1          2.8300   -0.4570   -0.1620 ha        1 FBG      0.155000
     16 H3         -0.5610   -3.1710   -0.1880 ha        1 FBG      0.124000
     17 H4         -2.8780   -1.6800   -0.8800 h1        1 FBG      0.043200
     18 H5         -2.7810   -1.9170    0.9390 h1        1 FBG      0.043200
     19 H6         -2.5760    0.9870   -1.3820 h2        1 FBG      0.062200
     20 H7         -3.2490    1.9800    0.0590 h2        1 FBG      0.062200
@<TRIPOS>BOND
     1    1    2 1   
     2    2    3 ar  
     3    2    8 ar  
     4    3    4 ar  
     5    3   15 1   
     6    4    5 1   
     7    4   14 ar  
     8    5    6 1   
     9    5    7 1   
    10    8    9 ar  
    11    8   16 1   
    12    9   10 1   
    13    9   14 ar  
    14   10   11 1   
    15   10   17 1   
    16   10   18 1   
    17   11   12 1   
    18   12   13 1   
    19   12   19 1   
    20   12   20 1   
    21   13   14 1   
@<TRIPOS>SUBSTRUCTURE
     1 FBG         1 TEMP              0 ****  ****    0 ROOT
