@<TRIPOS>MOLECULE
FBG
   20    16     1     0     0
SMALL
bcc


@<TRIPOS>ATOM
      1 F14        -3.7550    0.5080    0.2720 f         1 FBG     -0.135000
      2 C5         -2.4260    0.3450    0.2830 c1        1 FBG      0.040000
      3 C6         -1.7320    0.2760    1.5170 c1        1 FBG     -0.128000
      4 C1         -0.3410    0.1140    1.5310 c1        1 FBG     -0.063000
      5 C11         0.3940    0.0070    2.8490 c1        1 FBG      0.374000
      6 O13         0.9170    1.0300    3.3640 o         1 FBG     -0.549000
      7 O12         0.4980   -1.1100    3.4220 os        1 FBG     -0.547000
      8 C4         -1.7220    0.2510   -0.9250 c1        1 FBG     -0.166000
      9 C3         -0.3410    0.0900   -0.9140 c1        1 FBG     -0.175000
     10 C7          0.5020    0.0760   -2.1970 c2        1 FBG      0.031000
     11 O8          1.8070    0.1430   -2.0380 os        1 FBG     -0.309000
     12 C9          2.3590   -0.5120   -0.9380 c3        1 FBG      0.096000
     13 O10         1.8200   -0.2230    0.2800 os        1 FBG     -0.193000
     14 C2          0.3610    0.0200    0.3340 c2        1 FBG      0.076000
     15 H1         -2.2240    0.3430    2.3570 ha        1 FBG      0.155000
     16 H3         -2.2000    0.3060   -1.7740 ha        1 FBG      0.124000
     17 H4          0.2980   -0.7490   -2.6850 h4        1 FBG      0.082500
     18 H5          0.2240    0.8350   -2.7510 h4        1 FBG      0.082500
     19 H6          3.3100   -0.2730   -0.9020 h2        1 FBG      0.101500
     20 H7          2.2500   -1.4760   -1.0860 h2        1 FBG      0.101500
@<TRIPOS>BOND
     1    1    2 1   
     2    2    8 1   
     3    3    4 1   
     4    3   15 1   
     5    4   14 1   
     6    5    6 1   
     7    8   16 1   
     8    9   14 1   
     9   10   11 1   
    10   10   17 1   
    11   10   18 1   
    12   11   12 1   
    13   12   13 1   
    14   12   19 1   
    15   12   20 1   
    16   13   14 1   
@<TRIPOS>SUBSTRUCTURE
     1 FBG         1 TEMP              0 ****  ****    0 ROOT
