@<TRIPOS>MOLECULE
FBG
   20    21     1     0     0
SMALL
bcc


@<TRIPOS>ATOM
      1 F14         0.0050   -0.4320    0.0190 f         1 FBG     -0.169900
      2 C5          1.3540   -0.2630   -0.0040 ca        1 FBG      0.074900
      3 C6          2.0730   -0.1930    1.2060 ca        1 FBG     -0.128000
      4 C1          3.4570   -0.0320    1.2040 ca        1 FBG     -0.083600
      5 C11         4.2070   -0.0390    2.5370 c         1 FBG      0.925200
      6 O13         4.9860   -1.0060    2.7530 o         1 FBG     -0.813300
      7 O12         3.9620    0.8970    3.3430 o         1 FBG     -0.813300
      8 C4          2.0140   -0.1650   -1.2380 ca        1 FBG     -0.166000
      9 C3          3.3960    0.0220   -1.2510 ca        1 FBG     -0.182300
     10 C7          4.1410    0.1330   -2.5350 c3        1 FBG      0.188700
     11 O8          5.5240    0.4370   -2.3550 os        1 FBG     -0.452600
     12 C9          6.1020   -0.1770   -1.2200 c3        1 FBG      0.318200
     13 O10         5.4670    0.3500   -0.0680 os        1 FBG     -0.309900
     14 C2          4.1010    0.0970   -0.0380 ca        1 FBG      0.121100
     15 H1          1.5430   -0.2680    2.1670 ha        1 FBG      0.155000
     16 H3          1.4480   -0.2310   -2.1760 ha        1 FBG      0.124000
     17 H4          3.7560    0.9860   -3.1580 h1        1 FBG      0.043200
     18 H5          4.0610   -0.8250   -3.1190 h1        1 FBG      0.043200
     19 H6          6.0110   -1.2930   -1.2650 h2        1 FBG      0.062200
     20 H7          7.1630    0.1840   -1.1730 h2        1 FBG      0.062200
@<TRIPOS>BOND
     1    1    2 1   
     2    2    3 ar  
     3    2    8 ar  
     4    3    4 ar  
     5    3   15 1   
     6    4    5 1   
     7    4   14 ar  
     8    5    6 1   
     9    5    7 1   
    10    8    9 ar  
    11    8   16 1   
    12    9   10 1   
    13    9   14 ar  
    14   10   11 1   
    15   10   17 1   
    16   10   18 1   
    17   11   12 1   
    18   12   13 1   
    19   12   19 1   
    20   12   20 1   
    21   13   14 1   
@<TRIPOS>SUBSTRUCTURE
     1 FBG         1 TEMP              0 ****  ****    0 ROOT
