@<TRIPOS>MOLECULE
FBI
   62    62     1     0     0
SMALL
bcc


@<TRIPOS>ATOM
      1 O1S        -0.0160    2.2930    0.6520 o         1 FBI     -0.933000
      2 O2S         0.8730    0.3310   -0.3290 o         1 FBI     -0.933000
      3 N3          1.8800    2.5900   -0.9380 nh        1 FBI     -0.744000
      4 C12         1.2970    3.8470   -1.3290 c3        1 FBI     -0.075000
      5 S1          1.1320    1.6160    0.1700 s6        1 FBI      2.819000
      6 C13         2.2250    1.5090    1.4680 c3        1 FBI     -0.930000
      7 C8          4.8400    0.6620   -1.6760 c2        1 FBI      0.064000
      8 C10         5.4290    1.3830   -2.7390 c2        1 FBI     -0.156000
      9 C9          4.7660    2.5840   -3.1460 c2        1 FBI      0.103000
     10 N2          3.6050    2.9910   -2.5900 n2        1 FBI     -0.183000
     11 C11         3.0970    2.2130   -1.5690 c2        1 FBI      0.159000
     12 N1          3.6880    1.0720   -1.0810 n2        1 FBI     -0.272000
     13 C83         7.5720   -1.3160   -0.6990 cu        1 FBI     -0.275500
     14 C82         6.7320   -0.3630   -0.2990 c2        1 FBI     -0.048000
     15 C81         5.4190   -0.5930   -1.0830 c3        1 FBI     -0.051000
     16 C86         5.7440   -1.7250   -2.0840 c2        1 FBI     -0.048000
     17 C85         6.9710   -2.1440   -1.7780 cu        1 FBI     -0.275500
     18 C84         8.3390   -2.4420   -1.2890 cx        1 FBI      0.272000
     19 F1          9.4310   -2.2120   -2.0660 f         1 FBI     -0.119000
     20 O1B         7.3330    4.3440   -6.1660 o         1 FBI     -0.564500
     21 O1A         9.1830    5.3340   -6.9370 o         1 FBI     -0.564500
     22 O3         11.1310    5.4300   -8.6590 oh        1 FBI     -0.441000
     23 C2          8.5630    3.2300   -7.9450 c3        1 FBI     -0.309000
     24 C3          8.6110    1.9640   -7.2610 c1        1 FBI     -0.086000
     25 C4          7.3500    1.3990   -6.7790 c3        1 FBI     -0.262000
     26 C5          7.5860    0.3560   -5.6860 c3        1 FBI      0.049000
     27 C6          6.3920    0.2510   -4.7380 c3        1 FBI     -0.158000
     28 C92         4.4140    3.5830   -5.4110 c3        1 FBI     -0.211000
     29 C93         5.7810    4.7620   -3.6530 c1        1 FBI     -0.056000
     30 O5          7.7660   -0.9360   -6.2620 oh        1 FBI     -0.352000
     31 H121        2.0360    4.6850   -1.2070 h1        1 FBI      0.099333
     32 H122        0.4000    4.0570   -0.6850 h1        1 FBI      0.099333
     33 H123        0.9750    3.8150   -2.4050 h1        1 FBI      0.099333
     34 H131        3.0310    2.2820    1.4840 h1        1 FBI      0.157667
     35 H132        2.7500    0.5200    1.4830 h1        1 FBI      0.157667
     36 H133        1.6830    1.6060    2.4430 h1        1 FBI      0.157667
     37 H83         6.8320    0.4360    0.4300 ha        1 FBI      0.164000
     38 H82         4.6860   -1.0420   -0.3460 hc        1 FBI      0.142000
     39 H86         5.0260   -2.0580   -2.8290 ha        1 FBI      0.164000
     40 H85         8.4820   -3.3590   -0.6650 h1        1 FBI      0.131000
     41 HO3        11.0940    4.9390   -7.8300 ho        1 FBI      0.215000
     42 H21         7.7020    3.3260   -8.6610 hc        1 FBI      0.094500
     43 H22         9.5170    3.4330   -8.4960 hc        1 FBI      0.094500
     44 H3         10.2880    5.8960   -8.6600 ho        1 FBI      0.215000
     45 H41         6.8050    0.9190   -7.6390 hc        1 FBI      0.120500
     46 H42         6.6810    2.2220   -6.3830 hc        1 FBI      0.120500
     47 H5          8.5200    0.6220   -5.1110 h1        1 FBI      0.094000
     48 H61         5.4880    0.7080   -5.2200 hc        1 FBI      0.089500
     49 H62         6.1600   -0.8320   -4.5540 hc        1 FBI      0.089500
     50 H71         7.2390    0.2260   -2.7450 hc        1 FBI      0.108500
     51 H72         7.3590    1.8180   -3.5610 hc        1 FBI      0.108500
     52 H91         6.3390    3.0690   -4.5980 hc        1 FBI      0.204000
     53 H921        4.1120    2.5650   -5.7570 hc        1 FBI      0.086333
     54 H922        3.4940    4.1620   -5.1560 hc        1 FBI      0.086333
     55 H923        4.9600    4.0990   -6.2420 hc        1 FBI      0.086333
     56 H931        5.9650    5.5490   -4.4030 ha        1 FBI      0.078000
     57 H932        3.7160    5.8610   -3.5380 ha        1 FBI      0.008500
     58 H933        3.9190    5.8550   -2.8880 ha        1 FBI      0.008500
     59 HO5         8.5110   -0.8470   -6.8710 ho        1 FBI      0.209000
     60 C7          6.6760    0.9360   -3.4100 c3        1 FBI     -0.128000
     61 C91         5.3420    3.4890   -4.2150 c3        1 FBI     -0.157000
     62 C1          8.3470    4.3960   -6.9150 c2        1 FBI      0.376000
@<TRIPOS>BOND
     1    1    5 1   
     2    2    5 1   
     3    3    4 1   
     4    3    5 1   
     5    3   11 1   
     6    4   31 1   
     7    4   32 1   
     8    4   33 1   
     9    5    6 1   
    10    6   34 1   
    11    6   35 1   
    12    6   36 1   
    13    7    8 1   
    14    7   12 1   
    15    7   15 1   
    16    8    9 1   
    17    8   60 1   
    18    9   10 1   
    19    9   61 1   
    20   10   11 1   
    21   11   12 1   
    22   13   14 1   
    23   13   17 1   
    24   13   18 1   
    25   14   15 1   
    26   14   37 1   
    27   15   16 1   
    28   15   38 1   
    29   16   17 1   
    30   16   39 1   
    31   17   18 1   
    32   18   19 1   
    33   18   40 1   
    34   20   62 1   
    35   21   62 1   
    36   22   41 1   
    37   22   44 1   
    38   23   24 1   
    39   23   42 1   
    40   23   43 1   
    41   23   62 1   
    42   24   25 1   
    43   25   26 1   
    44   25   45 1   
    45   25   46 1   
    46   26   27 1   
    47   26   30 1   
    48   26   47 1   
    49   27   48 1   
    50   27   49 1   
    51   27   60 1   
    52   28   53 1   
    53   28   54 1   
    54   28   55 1   
    55   28   61 1   
    56   29   56 1   
    57   29   61 1   
    58   30   59 1   
    59   50   60 1   
    60   51   60 1   
    61   52   61 1   
    62   57   58 1   
@<TRIPOS>SUBSTRUCTURE
     1 FBI         1 TEMP              0 ****  ****    0 ROOT
