@<TRIPOS>MOLECULE
FBI
   62    63     1     0     0
SMALL
bcc


@<TRIPOS>ATOM
      1 O1S        -0.6810    1.2120   -6.9640 o         1 FBI     -0.649300
      2 O2S         0.5390    2.0300   -5.1030 o         1 FBI     -0.649300
      3 N3         -1.3350    0.3550   -4.7170 nh        1 FBI     -0.755200
      4 C12        -2.6910    0.2810   -5.1930 c3        1 FBI      0.202100
      5 S1         -0.1240    0.9440   -5.6900 s6        1 FBI      1.463900
      6 C13         0.9530   -0.3530   -5.8800 c3        1 FBI     -0.355300
      7 C8          0.5010   -0.4510   -1.7280 cp        1 FBI      0.528800
      8 C10        -0.5230   -0.7000   -0.7770 ca        1 FBI     -0.297900
      9 C9         -1.8620   -0.5980   -1.2480 ca        1 FBI      0.478600
     10 N2         -2.1570   -0.2650   -2.5250 nb        1 FBI     -0.718000
     11 C11        -1.0950   -0.0190   -3.3690 ca        1 FBI      0.876900
     12 N1          0.2350   -0.1140   -3.0110 nb        1 FBI     -0.770000
     13 C83         3.8600   -1.8710   -0.7460 ca        1 FBI     -0.168500
     14 C82         2.5080   -1.7820   -1.0590 ca        1 FBI     -0.073000
     15 C81         1.9330   -0.5430   -1.3680 cp        1 FBI     -0.165500
     16 C86         2.7230    0.6120   -1.3760 ca        1 FBI     -0.073000
     17 C85         4.0770    0.5400   -1.0600 ca        1 FBI     -0.168500
     18 C84         4.6490   -0.7060   -0.7450 ca        1 FBI      0.134900
     19 F1          5.9670   -0.7860   -0.4440 f         1 FBI     -0.142900
     20 O1B        -3.2570    1.4620    7.9920 o         1 FBI     -0.845300
     21 O1A        -1.6690   -0.1030    8.1300 o         1 FBI     -0.845300
     22 O3          0.0210   -0.3910    5.9480 oh        1 FBI     -0.675800
     23 C2         -1.5980    1.4060    6.2520 c3        1 FBI     -0.236400
     24 C3         -1.1060    0.2640    5.3780 c3        1 FBI      0.172100
     25 C4         -0.6760    0.7690    4.0000 c3        1 FBI     -0.122400
     26 C5         -0.3910   -0.3780    3.0370 c3        1 FBI      0.155100
     27 C6         -0.4390    0.1060    1.5870 c3        1 FBI     -0.077400
     28 C92        -3.9000    0.3740   -0.1850 c3        1 FBI     -0.087100
     29 C93        -3.8570   -2.0370   -0.8290 c3        1 FBI     -0.087100
     30 O5          0.9000   -0.9380    3.2430 oh        1 FBI     -0.633800
     31 H121       -3.3500    1.0000   -4.6350 h1        1 FBI      0.059033
     32 H122       -2.7160    0.5400   -6.2870 h1        1 FBI      0.059033
     33 H123       -3.1030   -0.7550   -5.0570 h1        1 FBI      0.059033
     34 H131        1.2960   -0.4240   -6.9440 h1        1 FBI      0.121700
     35 H132        1.8720   -0.2220   -5.2520 h1        1 FBI      0.121700
     36 H133        0.5500   -1.3600   -5.6180 h1        1 FBI      0.121700
     37 H83         4.3150   -2.8390   -0.4920 ha        1 FBI      0.150000
     38 H82         1.8870   -2.6910   -1.0570 ha        1 FBI      0.149000
     39 H86         2.2730    1.5840   -1.6350 ha        1 FBI      0.149000
     40 H85         4.7000    1.4450   -1.0540 ha        1 FBI      0.150000
     41 HO3        -0.1970   -0.5520    6.8850 ho        1 FBI      0.467000
     42 H21        -0.7400    2.0690    6.5240 hc        1 FBI      0.037200
     43 H22        -2.3540    2.0120    5.6970 hc        1 FBI      0.037200
     44 H3         -1.9330   -0.4950    5.2610 h1        1 FBI      0.027700
     45 H41         0.2440    1.3990    4.1070 hc        1 FBI      0.050700
     46 H42        -1.4970    1.4080    3.5880 hc        1 FBI      0.050700
     47 H5         -1.1570   -1.1940    3.1830 h1        1 FBI      0.028700
     48 H61         0.3450    0.8910    1.4340 hc        1 FBI      0.047200
     49 H62        -1.4400    0.5740    1.3990 hc        1 FBI      0.047200
     50 H71        -0.8110   -1.9380    0.9470 hc        1 FBI      0.065700
     51 H72         0.8750   -1.3600    0.7290 hc        1 FBI      0.065700
     52 H91        -2.6410   -1.1280    0.6950 hc        1 FBI      0.076700
     53 H921       -3.2830    1.2430    0.1470 hc        1 FBI      0.041700
     54 H922       -4.3920    0.6340   -1.1520 hc        1 FBI      0.041700
     55 H923       -4.6930    0.1890    0.5790 hc        1 FBI      0.041700
     56 H931       -3.2090   -2.9360   -0.9700 hc        1 FBI      0.041700
     57 H932       -4.6500   -2.2830   -0.0810 hc        1 FBI      0.041700
     58 H933       -4.3500   -1.7960   -1.8010 hc        1 FBI      0.041700
     59 HO5         1.0220   -1.0160    4.2000 ho        1 FBI      0.440000
     60 C7         -0.2010   -1.0480    0.6300 c3        1 FBI     -0.034100
     61 C91        -3.0370   -0.8650   -0.3280 c3        1 FBI     -0.124000
     62 C1         -2.2260    0.8820    7.5550 c         1 FBI      0.909600
@<TRIPOS>BOND
     1    1    5 2   
     2    2    5 2   
     3    3    4 1   
     4    3    5 1   
     5    3   11 1   
     6    4   31 1   
     7    4   32 1   
     8    4   33 1   
     9    5    6 1   
    10    6   34 1   
    11    6   35 1   
    12    6   36 1   
    13    7    8 ar  
    14    7   12 ar  
    15    7   15 1   
    16    8    9 ar  
    17    8   60 1   
    18    9   10 ar  
    19    9   61 1   
    20   10   11 ar  
    21   11   12 ar  
    22   13   14 ar  
    23   13   18 ar  
    24   13   37 1   
    25   14   15 ar  
    26   14   38 1   
    27   15   16 ar  
    28   16   17 ar  
    29   16   39 1   
    30   17   18 ar  
    31   17   40 1   
    32   18   19 1   
    33   20   62 1   
    34   21   62 1   
    35   22   24 1   
    36   22   41 1   
    37   23   24 1   
    38   23   42 1   
    39   23   43 1   
    40   23   62 1   
    41   24   25 1   
    42   24   44 1   
    43   25   26 1   
    44   25   45 1   
    45   25   46 1   
    46   26   27 1   
    47   26   30 1   
    48   26   47 1   
    49   27   48 1   
    50   27   49 1   
    51   27   60 1   
    52   28   53 1   
    53   28   54 1   
    54   28   55 1   
    55   28   61 1   
    56   29   56 1   
    57   29   57 1   
    58   29   58 1   
    59   29   61 1   
    60   30   59 1   
    61   50   60 1   
    62   51   60 1   
    63   52   61 1   
@<TRIPOS>SUBSTRUCTURE
     1 FBI         1 TEMP              0 ****  ****    0 ROOT
