@<TRIPOS>MOLECULE
FBI
   62    61     1     0     0
SMALL
bcc


@<TRIPOS>ATOM
      1 O1S         0.6770    1.8810    1.6410 o         1 FBI     -0.909000
      2 O2S         0.6850   -0.3190    0.7040 o         1 FBI     -0.909000
      3 N3          1.5490    1.6080   -0.7470 nh        1 FBI     -0.541000
      4 C12         0.3810    1.9820   -1.2000 c1        1 FBI     -0.132000
      5 S1          1.2880    0.9350    0.8080 s6        1 FBI      2.841000
      6 C13         2.8640    0.7230    1.3930 c3        1 FBI     -0.959000
      7 C8          4.7900    0.7830   -2.1740 c2        1 FBI      0.053000
      8 C10         5.1630    2.0000   -2.8020 c2        1 FBI     -0.110000
      9 C9          4.2260    3.0680   -2.7280 c2        1 FBI      0.032000
     10 N2          3.0620    2.9530   -2.0500 n2        1 FBI     -0.168000
     11 C11         2.8080    1.7410   -1.4510 c2        1 FBI      0.040000
     12 N1          3.6240    0.6380   -1.4990 n2        1 FBI     -0.180000
     13 C83         8.0680   -0.4690   -1.6410 c2        1 FBI     -0.175000
     14 C82         6.7810   -0.4290   -1.2930 c2        1 FBI     -0.161000
     15 C81         5.6780   -0.4070   -2.2470 c2        1 FBI     -0.009000
     16 C86         5.3970   -1.3830   -3.1350 c2        1 FBI     -0.003000
     17 C85         6.1350   -2.5590   -3.2920 c1        1 FBI     -0.121000
     18 C84         6.7440   -3.5780   -3.4500 c1        1 FBI     -0.012000
     19 F1          7.3990   -4.6820   -3.6220 f         1 FBI      0.004000
     20 O1B         9.4380    4.9440   -8.8330 o         1 FBI     -0.404000
     21 O1A        11.1420    3.8470   -8.0520 oh        1 FBI     -0.344000
     22 O3         10.2740    1.1930   -7.0620 oh        1 FBI     -0.260000
     23 C2          9.2410    2.4620   -8.8500 c3        1 FBI      0.000000
     24 C3          9.1180    1.6600   -7.6520 c2        1 FBI     -0.629000
     25 C4          7.8490    1.3650   -7.0060 c3        1 FBI     -0.009000
     26 C5          7.8700    1.6840   -5.5030 c3        1 FBI      0.017000
     27 C6          6.4570    1.6880   -4.9210 c3        1 FBI     -0.157000
     28 C92         3.2820    5.0310   -4.0010 c3        1 FBI     -0.204500
     29 C93         5.2020    5.3270   -2.4420 c3        1 FBI     -0.204500
     30 O5          8.6300    0.7270   -4.7660 oh        1 FBI     -0.388000
     31 H121       -0.2130    4.1910   -0.2500 ha        1 FBI      0.004000
     32 H122       -0.2780    3.7850    0.2910 ha        1 FBI      0.004000
     33 H123        0.2400    2.4600   -2.1810 ha        1 FBI      0.105000
     34 H131        2.8440    0.6300    2.5100 h1        1 FBI      0.163333
     35 H132        3.5710    1.5590    1.1750 h1        1 FBI      0.163333
     36 H133        3.3500   -0.2120    1.0130 h1        1 FBI      0.163333
     37 H83         8.8680   -0.4870   -0.8890 ha        1 FBI      0.134500
     38 H82         6.4660   -0.4020   -0.2350 ha        1 FBI      0.122000
     39 H86         4.5250   -1.2890   -3.8120 ha        1 FBI      0.149000
     40 H85         8.4050   -0.4640   -2.6920 ha        1 FBI      0.134500
     41 HO3        10.4930    1.8350   -6.3570 ho        1 FBI      0.095000
     42 H21         8.2390    2.6400   -9.3180 hc        1 FBI      0.055500
     43 H22         9.9080    1.9680   -9.6170 hc        1 FBI      0.055500
     44 H3         11.4070    2.9380   -7.8460 ho        1 FBI      0.236000
     45 H41         7.0220    1.9520   -7.4880 hc        1 FBI      0.030500
     46 H42         7.5730    0.2730   -7.0940 hc        1 FBI      0.030500
     47 H5          8.3500    2.6880   -5.3330 h1        1 FBI      0.075000
     48 H61         6.0280    0.6540   -4.9890 hc        1 FBI      0.079000
     49 H62         5.8160    2.3750   -5.5300 hc        1 FBI      0.079000
     50 H71         6.8420    3.1960   -3.4100 hc        1 FBI      0.109500
     51 H72         7.2420    1.5070   -2.9260 hc        1 FBI      0.109500
     52 H91         5.2260    4.1680   -4.2720 hc        1 FBI      0.122000
     53 H921        2.5940    5.3880   -3.1980 hc        1 FBI      0.080667
     54 H922        2.7320    4.3070   -4.6480 hc        1 FBI      0.080667
     55 H923        3.5820    5.9080   -4.6240 hc        1 FBI      0.080667
     56 H931        4.5240    5.5700   -1.5890 hc        1 FBI      0.080667
     57 H932        6.1360    4.8680   -2.0380 hc        1 FBI      0.080667
     58 H933        5.4710    6.2770   -2.9650 hc        1 FBI      0.080667
     59 HO5         9.2290    0.3010   -5.3960 ho        1 FBI      0.234000
     60 C7          6.4800    2.1350   -3.4710 c3        1 FBI     -0.137000
     61 C91         4.5220    4.3850   -3.4150 c3        1 FBI     -0.068000
     62 C1          9.8840    3.8120   -8.6040 c2        1 FBI      0.270000
@<TRIPOS>BOND
     1    1    5 1   
     2    2    5 1   
     3    3    4 1   
     4    3    5 1   
     5    3   11 1   
     6    4   33 1   
     7    5    6 1   
     8    6   34 1   
     9    6   35 1   
    10    6   36 1   
    11    7    8 1   
    12    7   12 1   
    13    7   15 1   
    14    8    9 1   
    15    8   60 1   
    16    9   10 1   
    17    9   61 1   
    18   10   11 1   
    19   11   12 1   
    20   13   14 1   
    21   13   37 1   
    22   13   40 1   
    23   14   15 1   
    24   14   38 1   
    25   15   16 1   
    26   16   17 1   
    27   16   39 1   
    28   17   18 1   
    29   18   19 1   
    30   20   62 1   
    31   21   44 1   
    32   21   62 1   
    33   22   24 1   
    34   22   41 1   
    35   23   24 1   
    36   23   42 1   
    37   23   43 1   
    38   23   62 1   
    39   24   25 1   
    40   25   26 1   
    41   25   45 1   
    42   25   46 1   
    43   26   27 1   
    44   26   30 1   
    45   26   47 1   
    46   27   48 1   
    47   27   49 1   
    48   27   60 1   
    49   28   53 1   
    50   28   54 1   
    51   28   55 1   
    52   28   61 1   
    53   29   56 1   
    54   29   57 1   
    55   29   58 1   
    56   29   61 1   
    57   30   59 1   
    58   31   32 1   
    59   50   60 1   
    60   51   60 1   
    61   52   61 1   
@<TRIPOS>SUBSTRUCTURE
     1 FBI         1 TEMP              0 ****  ****    0 ROOT
