@<TRIPOS>MOLECULE
FBI
   62    62     1     0     0
SMALL
bcc


@<TRIPOS>ATOM
      1 O1S         0.8120    1.9910    1.7770 o         1 FBI     -0.906500
      2 O2S         0.7160   -0.2220    0.8710 o         1 FBI     -0.906500
      3 N3          1.5710    1.6640   -0.6420 nh        1 FBI     -0.540000
      4 C12         0.3860    2.0390   -1.0480 c1        1 FBI     -0.131000
      5 S1          1.3580    1.0150    0.9340 s6        1 FBI      2.843000
      6 C13         2.9500    0.7620    1.4520 c3        1 FBI     -0.960000
      7 C8          4.7540    0.8330   -2.1850 c2        1 FBI      0.033000
      8 C10         5.0960    2.0410   -2.8490 c2        1 FBI     -0.116000
      9 C9          4.1530    3.1020   -2.7620 c2        1 FBI      0.038000
     10 N2          3.0180    2.9890   -2.0340 n2        1 FBI     -0.166000
     11 C11         2.7970    1.7880   -1.4000 c2        1 FBI      0.048000
     12 N1          3.6200    0.6890   -1.4600 n2        1 FBI     -0.171000
     13 C83         7.8190   -1.2720   -1.7650 c2        1 FBI     -0.113000
     14 C82         6.8730   -0.3400   -1.5350 c2        1 FBI     -0.172000
     15 C81         5.6540   -0.3350   -2.3170 c2        1 FBI      0.077000
     16 C86         5.3640   -1.3660   -3.1650 c2        1 FBI     -0.205000
     17 C85         6.2660   -2.4490   -3.3780 c1        1 FBI     -0.044000
     18 C84         7.6500   -2.2470   -2.8930 c3        1 FBI      0.000000
     19 F1          8.3520   -3.4210   -2.6730 f         1 FBI     -0.144000
     20 O1B         9.8000    4.9600   -8.2780 o         1 FBI     -0.403000
     21 O1A        11.3370    3.5470   -7.6790 oh        1 FBI     -0.343000
     22 O3         10.0990    0.9020   -7.1390 oh        1 FBI     -0.259000
     23 C2          9.3130    2.5580   -8.7250 c3        1 FBI     -0.002000
     24 C3          9.0390    1.6040   -7.6720 c2        1 FBI     -0.628000
     25 C4          7.7180    1.3930   -7.1010 c3        1 FBI     -0.010000
     26 C5          7.7340    1.4800   -5.5660 c3        1 FBI      0.018000
     27 C6          6.3270    1.6350   -4.9920 c3        1 FBI     -0.159000
     28 C92         3.1390    5.0320   -4.0300 c3        1 FBI     -0.205000
     29 C93         5.1300    5.3710   -2.5720 c3        1 FBI     -0.205000
     30 O5          8.3010    0.3040   -4.9810 oh        1 FBI     -0.401000
     31 H121       -0.1950    3.8730    0.4400 ha        1 FBI      0.004000
     32 H122       -0.1490    4.2660   -0.1120 ha        1 FBI      0.004000
     33 H123        0.1990    2.5060   -2.0260 ha        1 FBI      0.107000
     34 H131        2.9730    0.6610    2.5680 h1        1 FBI      0.163667
     35 H132        3.6660    1.5850    1.2120 h1        1 FBI      0.163667
     36 H133        3.4000   -0.1800    1.0480 h1        1 FBI      0.163667
     37 H83         8.7540   -1.3280   -1.1910 ha        1 FBI      0.147000
     38 H82         6.9920    0.4300   -0.7580 ha        1 FBI      0.139000
     39 H86         4.4050   -1.4000   -3.7080 ha        1 FBI      0.159000
     40 H85         8.1120   -1.7160   -3.8190 h1        1 FBI      0.205000
     41 HO3        10.3850    1.4050   -6.3500 ho        1 FBI      0.092000
     42 H21         8.3620    2.9330   -9.1840 hc        1 FBI      0.057500
     43 H22         9.9490    2.1070   -9.5420 hc        1 FBI      0.057500
     44 H3         11.4870    2.5900   -7.6330 ho        1 FBI      0.235000
     45 H41         6.9960    2.1520   -7.5020 hc        1 FBI      0.033500
     46 H42         7.3030    0.3740   -7.3560 hc        1 FBI      0.033500
     47 H5          8.3730    2.3510   -5.2460 h1        1 FBI      0.076000
     48 H61         5.8120    0.6390   -5.0060 hc        1 FBI      0.085000
     49 H62         5.7420    2.3410   -5.6340 hc        1 FBI      0.085000
     50 H71         6.7330    3.2310   -3.5780 hc        1 FBI      0.105500
     51 H72         7.1790    1.5790   -3.0150 hc        1 FBI      0.105500
     52 H91         5.0720    4.1700   -4.3740 hc        1 FBI      0.122000
     53 H921        2.4870    5.4030   -3.2030 hc        1 FBI      0.081500
     54 H922        2.5630    4.2920   -4.6350 hc        1 FBI      0.081500
     55 H923        3.4050    5.8980   -4.6850 hc        1 FBI      0.081500
     56 H931        4.4920    5.6300   -1.6930 hc        1 FBI      0.081500
     57 H932        6.0850    4.9250   -2.2030 hc        1 FBI      0.081500
     58 H933        5.3690    6.3090   -3.1290 hc        1 FBI      0.081500
     59 HO5         8.9010   -0.0680   -5.6450 ho        1 FBI      0.238000
     60 C7          6.3890    2.1620   -3.5680 c3        1 FBI     -0.137000
     61 C91         4.4090    4.4040   -3.4900 c3        1 FBI     -0.068000
     62 C1         10.1030    3.7600   -8.2450 c2        1 FBI      0.269000
@<TRIPOS>BOND
     1    1    5 1   
     2    2    5 1   
     3    3    4 1   
     4    3    5 1   
     5    3   11 1   
     6    4   33 1   
     7    5    6 1   
     8    6   34 1   
     9    6   35 1   
    10    6   36 1   
    11    7    8 1   
    12    7   12 1   
    13    7   15 1   
    14    8    9 1   
    15    8   60 1   
    16    9   10 1   
    17    9   61 1   
    18   10   11 1   
    19   11   12 1   
    20   13   14 1   
    21   13   18 1   
    22   13   37 1   
    23   14   15 1   
    24   14   38 1   
    25   15   16 1   
    26   16   17 1   
    27   16   39 1   
    28   17   18 1   
    29   18   19 1   
    30   18   40 1   
    31   20   62 1   
    32   21   44 1   
    33   21   62 1   
    34   22   24 1   
    35   22   41 1   
    36   23   24 1   
    37   23   42 1   
    38   23   43 1   
    39   23   62 1   
    40   24   25 1   
    41   25   26 1   
    42   25   45 1   
    43   25   46 1   
    44   26   27 1   
    45   26   30 1   
    46   26   47 1   
    47   27   48 1   
    48   27   49 1   
    49   27   60 1   
    50   28   53 1   
    51   28   54 1   
    52   28   55 1   
    53   28   61 1   
    54   29   56 1   
    55   29   57 1   
    56   29   58 1   
    57   29   61 1   
    58   30   59 1   
    59   31   32 1   
    60   50   60 1   
    61   51   60 1   
    62   52   61 1   
@<TRIPOS>SUBSTRUCTURE
     1 FBI         1 TEMP              0 ****  ****    0 ROOT
