@<TRIPOS>MOLECULE
FBI
   62    55     1     0     0
SMALL
bcc


@<TRIPOS>ATOM
      1 O1S        -0.5490    2.2760    5.6010 o         1 FBI     -0.525400
      2 O2S        -1.4520    3.7860    4.2000 o         1 FBI     -0.525400
      3 N3         -2.3080    1.3490    3.9480 n3        1 FBI     -0.754000
      4 C12        -3.4370    0.5030    4.3270 c3        1 FBI     -0.050000
      5 S1         -1.8100    2.5900    4.9650 s4        1 FBI      2.054800
      6 C13        -3.0830    2.9560    6.1890 c2        1 FBI     -0.938000
      7 C8          0.1970    0.5660    1.3700 c1        1 FBI      0.088000
      8 C10        -0.5820    0.6010    0.2300 c1        1 FBI     -0.148000
      9 C9         -1.9310    0.9340    0.3180 c1        1 FBI      0.053000
     10 N2         -2.4680    1.2180    1.4970 n1        1 FBI     -0.190000
     11 C11        -1.6840    1.1840    2.6490 c1        1 FBI      0.140000
     12 N1         -0.3520    0.8560    2.5660 n1        1 FBI     -0.211000
     13 C83         3.6110   -0.6700    1.9550 c1        1 FBI     -0.177000
     14 C82         2.2270   -0.6460    1.8700 c1        1 FBI     -0.074000
     15 C81         1.5870    0.4250    1.2550 c1        1 FBI     -0.058000
     16 C86         2.3370    1.4710    0.7250 c1        1 FBI     -0.114500
     17 C85         3.7170    1.4450    0.8090 c1        1 FBI     -0.114500
     18 C84         4.3580    0.3800    1.4220 c1        1 FBI      0.098000
     19 F1          5.6650    0.4280    1.6200 f         1 FBI     -0.109000
     20 O1B         4.9030   -3.5290   -5.8920 o         1 FBI     -0.581000
     21 O1A         4.9700   -2.2870   -4.1070 o         1 FBI     -0.581000
     22 O3          2.2870   -1.8510   -4.8390 oh        1 FBI     -0.391000
     23 C1          4.4330   -3.1890   -4.7500 c2        1 FBI      0.327000
     24 C2          3.2440   -3.9410   -4.1610 c3        1 FBI     -0.263000
     25 C3          1.9880   -3.0210   -4.1840 c3        1 FBI      0.064000
     26 C4          1.5610   -2.7100   -2.7430 c3        1 FBI     -0.236000
     27 C5          0.4630   -1.6240   -2.7400 c3        1 FBI      0.045000
     28 C6          0.1020   -1.2580   -1.2770 c3        1 FBI     -0.153000
     29 C7          0.0360    0.2180   -1.1490 c3        1 FBI     -0.129000
     30 C91        -2.7680    1.1180   -0.9840 c3        1 FBI     -0.082000
     31 C92        -4.1290    0.6360   -0.7610 c3        1 FBI     -0.199500
     32 C93        -2.8080    2.5340   -1.3560 c3        1 FBI     -0.199500
     33 O5          0.9270   -0.4940   -3.4020 oh        1 FBI     -0.371000
     34 H121       -3.4750   -0.2330    3.7640 h1        1 FBI      0.084000
     35 H122       -4.2460    1.0000    4.2530 h1        1 FBI      0.084000
     36 H123       -3.3260    0.2120    5.2150 h1        1 FBI      0.084000
     37 H131       -3.0130    3.9050    6.4620 ha        1 FBI      0.148333
     38 H132       -3.9700    2.7910    5.8000 ha        1 FBI      0.148333
     39 H133       -2.9580    2.3790    6.9770 ha        1 FBI      0.148333
     40 H83         4.0860   -1.4620    2.4100 ha        1 FBI      0.143000
     41 H82         1.7120   -1.3680    2.2370 ha        1 FBI      0.143000
     42 H86         1.8830    2.2330    0.2870 ha        1 FBI      0.157500
     43 H85         4.2300    2.1650    0.4440 ha        1 FBI      0.157500
     44 HO3         2.2140   -1.9810   -5.7650 ho        1 FBI      0.256000
     45 H21         3.4580   -4.2120   -3.1870 hc        1 FBI      0.078500
     46 H22         3.0680   -4.7450   -4.6930 hc        1 FBI      0.078500
     47 H3          1.2540   -3.4810   -4.6530 h1        1 FBI      0.064000
     48 H41         1.2220   -3.5130   -2.3320 hc        1 FBI      0.114000
     49 H42         2.3710   -2.3730   -2.2140 hc        1 FBI      0.114000
     50 H5         -0.3410   -1.9650   -3.2020 h1        1 FBI      0.062000
     51 H61         0.8080   -1.6200   -0.6560 hc        1 FBI      0.080500
     52 H62        -0.7980   -1.6600   -1.0370 hc        1 FBI      0.080500
     53 H71         0.9130    0.5800   -1.2160 hc        1 FBI      0.115500
     54 H72        -0.5000    0.5680   -1.8390 hc        1 FBI      0.115500
     55 H91        -2.3650    0.6180   -1.6910 hc        1 FBI      0.149000
     56 H921       -4.6000    0.6050   -1.6010 hc        1 FBI      0.077333
     57 H922       -4.0980   -0.2310   -0.3840 hc        1 FBI      0.077333
     58 H923       -4.5970    1.2470   -0.1450 hc        1 FBI      0.077333
     59 H931       -3.3080    3.0450   -0.6650 hc        1 FBI      0.077333
     60 H932       -3.2670    2.6320   -2.2440 hc        1 FBI      0.077333
     61 H933       -1.9300    2.8680   -1.4200 hc        1 FBI      0.077333
     62 HO5         0.3190   -0.2560   -4.0750 ho        1 FBI      0.237000
@<TRIPOS>BOND
     1    1    5 1   
     2    2    5 1   
     3    3    4 1   
     4    3    5 1   
     5    3   11 1   
     6    4   34 1   
     7    4   35 1   
     8    4   36 1   
     9    6   37 1   
    10    6   38 1   
    11    6   39 1   
    12    7    8 1   
    13    8   29 1   
    14    9   10 1   
    15    9   30 1   
    16   11   12 1   
    17   13   18 1   
    18   13   40 1   
    19   14   15 1   
    20   14   41 1   
    21   16   17 1   
    22   16   42 1   
    23   17   43 1   
    24   18   19 1   
    25   20   23 1   
    26   21   23 1   
    27   22   25 1   
    28   22   44 1   
    29   23   24 1   
    30   24   25 1   
    31   24   45 1   
    32   24   46 1   
    33   25   26 1   
    34   25   47 1   
    35   26   27 1   
    36   26   48 1   
    37   26   49 1   
    38   27   28 1   
    39   27   33 1   
    40   27   50 1   
    41   28   29 1   
    42   28   51 1   
    43   28   52 1   
    44   29   53 1   
    45   29   54 1   
    46   30   31 1   
    47   30   32 1   
    48   30   55 1   
    49   31   56 1   
    50   31   57 1   
    51   31   58 1   
    52   32   59 1   
    53   32   60 1   
    54   32   61 1   
    55   33   62 1   
@<TRIPOS>SUBSTRUCTURE
     1 FBI         1 TEMP              0 ****  ****    0 ROOT
