@<TRIPOS>MOLECULE
FBL
   54    52     1     0     0
SMALL
bcc


@<TRIPOS>ATOM
      1 C22        -6.5510    8.1360   -2.6580 c3        1 FBL     -0.083000
      2 N1         -3.6640    0.9730   -1.3570 n3        1 FBL     -0.367000
      3 C2         -2.2300   -1.7820   -0.0330 c1        1 FBL     -0.101000
      4 C6         -4.9760    0.6110   -1.1760 c2        1 FBL      0.375000
      5 C4         -4.7090   -1.7740   -0.9190 c2        1 FBL      0.410000
      6 C3         -3.3730   -1.7580   -0.4510 c1        1 FBL     -0.563000
      7 N5         -5.4630   -0.6880   -1.1900 n2        1 FBL     -0.363000
      8 C11        -9.1830   -4.1900   -2.2580 c2        1 FBL     -0.234000
      9 C10        -8.4930   -5.0050   -1.3420 c1        1 FBL     -0.036000
     10 C9         -7.1950   -4.5740   -0.8240 c3        1 FBL     -0.103000
     11 C8         -6.5470   -3.3760   -1.4930 c2        1 FBL      0.050000
     12 C12        -8.5580   -3.1250   -2.8550 c2        1 FBL      0.061000
     13 C17        -4.8570    5.0000   -2.1700 c2        1 FBL     -0.252000
     14 C16        -5.0610    3.5620   -2.2140 c2        1 FBL     -0.159000
     15 C13        -7.2310   -2.7090   -2.4700 c2        1 FBL     -0.185000
     16 C15        -5.7130    2.9760   -1.1720 c2        1 FBL      0.065000
     17 C18        -5.8110    5.9030   -2.5180 c2        1 FBL      0.085000
     18 C19        -6.2330    5.1830   -0.2510 c1        1 FBL      0.191000
     19 C20        -6.2630    3.8540   -0.1390 c2        1 FBL     -0.460000
     20 O21        -5.4530    7.2240   -2.5420 os        1 FBL     -0.198000
     21 N7         -5.2680   -3.0330   -1.0380 n3        1 FBL     -0.232000
     22 CL30       -9.2960   -2.2490   -4.0980 cl        1 FBL      0.036000
     23 C23         0.4360   -0.7630    1.5800 c2        1 FBL      0.037000
     24 C24         1.6600   -0.5690    2.0960 c2        1 FBL     -0.387000
     25 N25         1.7400   -3.9720    1.4760 n3        1 FBL     -0.087000
     26 C26         2.3800   -3.5500    0.4310 c2        1 FBL      0.068000
     27 C27         2.0710   -5.1490    2.2440 c3        1 FBL     -0.160000
     28 O28         0.1510   -1.8460    0.8260 oh        1 FBL     -0.534000
     29 H221       -7.2160    8.0500   -1.7650 h1        1 FBL      0.098333
     30 H222       -7.1200    7.9420   -3.5990 h1        1 FBL      0.098333
     31 H2         -3.3870    1.9280   -1.3350 hn        1 FBL      0.267500
     32 H3         -2.9520    0.2740   -1.3500 hn        1 FBL      0.267500
     33 H10        -7.3720   -4.3270    0.2700 h1        1 FBL      0.184000
     34 H17        -3.8440    5.3400   -1.8930 ha        1 FBL      0.170000
     35 H16        -4.6520    3.0160   -3.0770 ha        1 FBL      0.155000
     36 H13        -6.8070   -1.8390   -2.9970 ha        1 FBL      0.172000
     37 H19        -6.8390    5.6470   -2.8220 h4        1 FBL      0.148000
     38 H20        -6.7090    3.4030    0.7670 ha        1 FBL      0.191000
     39 H7         -4.7030   -3.7920   -0.7000 hn        1 FBL      0.276000
     40 H23        -6.0520    9.1370   -2.6900 h1        1 FBL      0.098333
     41 H241        1.8880    0.3060    2.7110 ha        1 FBL      0.105000
     42 H242       -0.3950   -0.0550    1.7480 h4        1 FBL      0.115000
     43 H261        3.2640   -4.0870    0.0330 h4        1 FBL      0.206500
     44 H262        2.4950   -1.2530    1.9210 ha        1 FBL      0.105000
     45 H263        2.0230   -2.6160   -0.0740 h4        1 FBL      0.206500
     46 H271        1.1870   -5.8450    2.2410 h1        1 FBL      0.140000
     47 H272        2.9650   -5.6770    1.8170 h1        1 FBL      0.140000
     48 H273        2.2920   -4.8400    3.3040 h1        1 FBL      0.140000
     49 H28        -0.9250   -1.8010    0.4400 ho        1 FBL      0.358000
     50 CL29       -6.0950   -5.9550   -0.8350 cl        1 FBL     -0.044000
     51 H251        0.9290   -3.4260    1.7970 hn        1 FBL      0.321000
     52 N14        -5.9500    1.5880   -1.0530 n3        1 FBL     -0.259000
     53 H11       -10.2120   -4.4810   -2.5310 ha        1 FBL      0.181000
     54 H14        -6.8940    1.3040   -0.8760 hn        1 FBL      0.285000
@<TRIPOS>BOND
     1    1   20 1   
     2    1   29 1   
     3    1   30 1   
     4    1   40 1   
     5    2    4 1   
     6    2   31 1   
     7    2   32 1   
     8    3    6 1   
     9    4    7 1   
    10    4   52 1   
    11    5    6 1   
    12    5    7 1   
    13    5   21 1   
    14    8    9 1   
    15    8   12 1   
    16    8   53 1   
    17    9   10 1   
    18   10   11 1   
    19   10   33 1   
    20   10   50 1   
    21   11   15 1   
    22   11   21 1   
    23   12   15 1   
    24   12   22 1   
    25   13   14 1   
    26   13   17 1   
    27   13   34 1   
    28   14   16 1   
    29   14   35 1   
    30   15   36 1   
    31   16   19 1   
    32   16   52 1   
    33   17   20 1   
    34   17   37 1   
    35   18   19 1   
    36   19   38 1   
    37   21   39 1   
    38   23   24 1   
    39   23   28 1   
    40   23   42 1   
    41   24   41 1   
    42   24   44 1   
    43   25   26 1   
    44   25   27 1   
    45   25   51 1   
    46   26   43 1   
    47   26   45 1   
    48   27   46 1   
    49   27   47 1   
    50   27   48 1   
    51   28   49 1   
    52   52   54 1   
@<TRIPOS>SUBSTRUCTURE
     1 FBL         1 TEMP              0 ****  ****    0 ROOT
