@<TRIPOS>MOLECULE
FBL
   53    55     1     0     0
SMALL
bcc


@<TRIPOS>ATOM
      1 C22         1.3240   -0.1590    5.7950 c3        1 FBL      0.094400
      2 N1         -2.1730    0.4570   -0.5970 nb        1 FBL     -0.752000
      3 C2         -2.9810    1.1270   -1.4330 ca        1 FBL      0.481200
      4 C6         -1.0630   -0.1410   -1.1800 ca        1 FBL      0.893900
      5 C4         -1.5960    0.6120   -3.3340 ca        1 FBL      0.707200
      6 C3         -2.7640    1.2500   -2.8090 ca        1 FBL     -0.458600
      7 N5         -0.7300   -0.0640   -2.5240 nb        1 FBL     -0.800000
      8 C11         2.1030   -0.6970   -6.7030 ca        1 FBL     -0.133000
      9 C10         1.6530    0.6040   -6.8990 ca        1 FBL     -0.099000
     10 C9          0.5240    1.0710   -6.2240 ca        1 FBL     -0.029600
     11 C8         -0.1930    0.2280   -5.3380 ca        1 FBL      0.158600
     12 C12         1.4040   -1.5360   -5.8300 ca        1 FBL      0.030400
     13 C17        -1.1430   -0.9260    3.2210 ca        1 FBL     -0.171000
     14 C16        -1.2530   -1.0300    1.8430 ca        1 FBL     -0.097500
     15 C13         0.2650   -1.0940   -5.1560 ca        1 FBL     -0.106000
     16 C15        -0.1390   -0.7710    1.0150 ca        1 FBL      0.088600
     17 C18         0.0880   -0.5700    3.8010 ca        1 FBL      0.121100
     18 C19         1.2030   -0.3170    2.9970 ca        1 FBL     -0.171000
     19 C20         1.0860   -0.4120    1.6130 ca        1 FBL     -0.097500
     20 O21         0.0780   -0.4960    5.1810 os        1 FBL     -0.329900
     21 N7         -1.3800    0.6720   -4.7220 nh        1 FBL     -0.726300
     22 CL30        1.9440   -3.1300   -5.5900 cl        1 FBL     -0.083400
     23 C23         1.0770   -0.2130    7.3120 c3        1 FBL      0.140100
     24 C24         0.1640    0.9530    7.7210 c3        1 FBL      0.134800
     25 N25         0.0520    1.1730    9.1550 n3        1 FBL     -0.739600
     26 C26        -0.8780    2.2400    9.4590 c3        1 FBL      0.152100
     27 C27        -0.1960   -0.0280    9.9180 c3        1 FBL      0.152100
     28 O28         2.3300   -0.2250    7.9660 oh        1 FBL     -0.589800
     29 H221        1.6430    0.8650    5.4710 h1        1 FBL      0.049200
     30 H222        2.1100   -0.9090    5.5160 h1        1 FBL      0.049200
     31 H2         -3.8620    1.5990   -0.9570 h4        1 FBL      0.028100
     32 H3         -3.4610    1.8020   -3.4460 ha        1 FBL      0.155000
     33 H11         2.9980   -1.0580   -7.2310 ha        1 FBL      0.154000
     34 H10         2.1950    1.2720   -7.5870 ha        1 FBL      0.154000
     35 H17        -2.0090   -1.1230    3.8700 ha        1 FBL      0.145500
     36 H16        -2.2210   -1.3150    1.4010 ha        1 FBL      0.146000
     37 H13        -0.2730   -1.7810   -4.4810 ha        1 FBL      0.174000
     38 H19         2.1720   -0.0410    3.4360 ha        1 FBL      0.145500
     39 H20         1.9730   -0.2070    0.9920 ha        1 FBL      0.146000
     40 H7         -1.8170    1.4580   -5.1610 hn        1 FBL      0.440800
     41 H23         0.6030   -1.2010    7.5750 h1        1 FBL      0.086700
     42 H241       -0.8390    0.7620    7.2360 h1        1 FBL      0.045700
     43 H242        0.5800    1.9050    7.2820 h1        1 FBL      0.045700
     44 H261       -0.8330    2.4520   10.5590 h1        1 FBL      0.034700
     45 H262       -0.5710    3.1630    8.9020 h1        1 FBL      0.034700
     46 H263       -1.9400    1.9940    9.1850 h1        1 FBL      0.034700
     47 H271        0.6920   -0.7070    9.8100 h1        1 FBL      0.034700
     48 H272       -0.3100    0.2410   11.0010 h1        1 FBL      0.034700
     49 H273       -1.1180   -0.5820    9.5900 h1        1 FBL      0.034700
     50 H28         2.6010    0.6910    8.1020 ho        1 FBL      0.412000
     51 N14        -0.2170   -0.9510   -0.3900 nh        1 FBL     -0.697300
     52 CL29        0.0210    2.6760   -6.4950 cl        1 FBL     -0.095400
     53 H14         0.6630   -1.1660   -0.8180 hn        1 FBL      0.435800
@<TRIPOS>BOND
     1    1   20 1   
     2    1   23 1   
     3    1   29 1   
     4    1   30 1   
     5    2    3 ar  
     6    2    4 ar  
     7    3    6 ar  
     8    3   31 1   
     9    4    7 ar  
    10    4   51 1   
    11    5    6 ar  
    12    5    7 ar  
    13    5   21 1   
    14    6   32 1   
    15    8    9 ar  
    16    8   12 ar  
    17    8   33 1   
    18    9   10 ar  
    19    9   34 1   
    20   10   11 ar  
    21   10   52 1   
    22   11   15 ar  
    23   11   21 1   
    24   12   15 ar  
    25   12   22 1   
    26   13   14 ar  
    27   13   17 ar  
    28   13   35 1   
    29   14   16 ar  
    30   14   36 1   
    31   15   37 1   
    32   16   19 ar  
    33   16   51 1   
    34   17   18 ar  
    35   17   20 1   
    36   18   19 ar  
    37   18   38 1   
    38   19   39 1   
    39   21   40 1   
    40   23   24 1   
    41   23   28 1   
    42   23   41 1   
    43   24   25 1   
    44   24   42 1   
    45   24   43 1   
    46   25   26 1   
    47   25   27 1   
    48   26   44 1   
    49   26   45 1   
    50   26   46 1   
    51   27   47 1   
    52   27   48 1   
    53   27   49 1   
    54   28   50 1   
    55   51   53 1   
@<TRIPOS>SUBSTRUCTURE
     1 FBL         1 TEMP              0 ****  ****    0 ROOT
