@<TRIPOS>MOLECULE
FBL
   54    55     1     0     0
SMALL
bcc


@<TRIPOS>ATOM
      1 C22        -0.6320   -0.5320    1.5730 c3        1 FBL     -0.057000
      2 N1         -6.9660   -3.9550   -2.2180 n7        1 FBL     -0.164000
      3 C2         -7.7930   -3.8180   -3.3340 c2        1 FBL     -0.040000
      4 C6         -6.8010   -2.8490   -1.4020 c2        1 FBL      0.141000
      5 C4         -8.1670   -1.5220   -2.7550 c2        1 FBL      0.195000
      6 C3         -8.3850   -2.6290   -3.6440 c1        1 FBL     -0.354000
      7 N5         -7.3890   -1.6420   -1.6150 n2        1 FBL     -0.245000
      8 C11        -8.6740    3.5140   -1.2780 c2        1 FBL     -0.256000
      9 C10        -8.9380    3.4350   -2.6560 c1        1 FBL     -0.040000
     10 C9         -9.0530    2.1190   -3.2930 c3        1 FBL     -0.114000
     11 C8         -8.7420    0.8940   -2.4480 c2        1 FBL      0.085000
     12 C12        -8.4970    2.3780   -0.5260 c2        1 FBL      0.084000
     13 C17        -3.1700   -0.5640   -0.8810 c2        1 FBL      0.066000
     14 C16        -4.2790   -1.4250   -1.0490 c2        1 FBL     -0.283000
     15 C13        -8.5320    1.0640   -1.1010 c2        1 FBL     -0.249000
     16 C15        -4.8880   -2.1370   -0.0340 c2        1 FBL      0.209000
     17 C18        -2.5520   -0.2270    0.2310 c1        1 FBL      0.079000
     18 C19        -5.0850   -1.8310    2.4180 c2        1 FBL     -0.107000
     19 C20        -4.3450   -2.0780    1.3350 c2        1 FBL     -0.241000
     20 O21        -1.9060    0.1630    1.2340 os        1 FBL      0.046000
     21 N7         -8.7650   -0.3260   -3.1080 n7        1 FBL     -0.211000
     22 Cl30       -8.2130    2.4670    1.1440 cl        1 FBL      0.006000
     23 C23         0.4650   -0.0180    0.6480 c3        1 FBL     -0.046000
     24 C24         0.9000    1.4100    1.0560 c3        1 FBL     -0.086000
     25 N25         1.7030    2.1540    0.1350 n7        1 FBL     -0.305000
     26 C26         3.0540    1.7060   -0.1040 c3        1 FBL     -0.084000
     27 C27         3.2450    0.6290   -1.1630 c3        1 FBL     -0.259000
     28 O28        -0.0970   -0.0420   -0.6590 oh        1 FBL     -0.372000
     29 H221       -0.7920   -1.6330    1.4780 h1        1 FBL      0.146500
     30 H222       -4.6440   -1.7860    3.4250 ha        1 FBL      0.145500
     31 H2         -6.5050   -4.8160   -2.0030 hn        1 FBL      0.255000
     32 H3         -7.9250   -4.7340   -3.9370 h4        1 FBL      0.189000
     33 H10       -10.1330    2.0560   -3.6390 h1        1 FBL      0.187000
     34 H17        -2.7850   -0.0330   -1.7910 ha        1 FBL      0.236000
     35 H16        -4.6730   -1.4730   -2.0810 ha        1 FBL      0.185000
     36 H13        -8.3890    0.2150   -0.4160 ha        1 FBL      0.166000
     37 H19        -6.1680   -1.6370    2.3790 ha        1 FBL      0.145500
     38 H20        -3.2620   -2.2810    1.4030 ha        1 FBL      0.139000
     39 H7         -9.1810   -0.3490   -4.0260 hn        1 FBL      0.290000
     40 H23        -0.4780   -0.2080    2.6360 h1        1 FBL      0.146500
     41 H241       -0.0360    2.0110    1.2410 h1        1 FBL      0.109500
     42 H242        1.3390   -0.7280    0.7090 h1        1 FBL      0.122000
     43 H261        1.4600    1.3180    2.0300 h1        1 FBL      0.109500
     44 H262        3.6310    2.6230   -0.4250 h1        1 FBL      0.108500
     45 H263        3.5000    1.3500    0.8670 h1        1 FBL      0.108500
     46 H271        4.3390    0.4580   -1.3160 hc        1 FBL      0.080667
     47 H272        2.8010    0.9380   -2.1400 hc        1 FBL      0.080667
     48 H273        2.7830   -0.3390   -0.8520 hc        1 FBL      0.080667
     49 H28         0.6300    0.0660   -1.2880 ho        1 FBL      0.246000
     50 Cl29       -8.0710    2.1180   -4.7560 cl        1 FBL     -0.031000
     51 H251        1.2160    2.3370   -0.7210 hn        1 FBL      0.171000
     52 N14        -5.9470   -3.0000   -0.2450 n7        1 FBL     -0.246000
     53 H11        -8.6170    4.5170   -0.8240 ha        1 FBL      0.176000
     54 H14        -6.4190   -3.3430    0.5700 hn        1 FBL      0.255000
@<TRIPOS>BOND
     1    1   20 1   
     2    1   23 1   
     3    1   29 1   
     4    1   40 1   
     5    2    3 1   
     6    2    4 1   
     7    2   31 1   
     8    3    6 1   
     9    3   32 1   
    10    4    7 1   
    11    4   52 1   
    12    5    6 1   
    13    5    7 1   
    14    5   21 1   
    15    8    9 1   
    16    8   12 1   
    17    8   53 1   
    18    9   10 1   
    19   10   11 1   
    20   10   33 1   
    21   10   50 1   
    22   11   15 1   
    23   11   21 1   
    24   12   15 1   
    25   12   22 1   
    26   13   14 1   
    27   13   17 1   
    28   13   34 1   
    29   14   16 1   
    30   14   35 1   
    31   15   36 1   
    32   16   19 1   
    33   16   52 1   
    34   17   20 1   
    35   18   19 1   
    36   18   30 1   
    37   18   37 1   
    38   19   38 1   
    39   21   39 1   
    40   23   24 1   
    41   23   28 1   
    42   23   42 1   
    43   24   25 1   
    44   24   41 1   
    45   24   43 1   
    46   25   26 1   
    47   25   51 1   
    48   26   27 1   
    49   26   44 1   
    50   26   45 1   
    51   27   46 1   
    52   27   47 1   
    53   27   48 1   
    54   28   49 1   
    55   52   54 1   
@<TRIPOS>SUBSTRUCTURE
     1 FBL         1 TEMP              0 ****  ****    0 ROOT
