@<TRIPOS>MOLECULE
FBL
   56    54     1     0     0
SMALL
bcc


@<TRIPOS>ATOM
      1 C22       573.2230  -66.3620 -127.1620 c3        1 FBL     -0.047000
      2 N1        566.9490  -66.0320 -126.6710 n2        1 FBL     -0.234000
      3 C2        566.4950  -67.0500 -122.4140 c1        1 FBL      0.418000
      4 C6        567.1070  -64.8760 -126.1180 c2        1 FBL      0.083000
      5 C4        566.6390  -64.9730 -123.7640 c2        1 FBL      0.154000
      6 C3        566.9410  -66.3530 -123.4560 c2        1 FBL     -0.601000
      7 N5        566.7310  -64.3100 -124.8670 n2        1 FBL     -0.252000
      8 C11     -1906.9380  216.0320  421.4130 c2        1 FBL     -0.123000
      9 C10     -1906.0620  215.5880  422.2770 c1        1 FBL     -0.142000
     10 C9      -1905.2630  215.2020  423.2300 c2        1 FBL     -0.063000
     11 C8      -1904.8640  214.8110  419.6300 c1        1 FBL      0.351000
     12 C12     -1906.6170  216.4510  420.0600 c2        1 FBL      0.143000
     13 C17       570.4280  -65.3230 -129.2360 c2        1 FBL     -0.275000
     14 C16       569.2130  -64.9360 -128.5820 c2        1 FBL      0.024000
     15 C13     -1905.6570  215.8980  419.2620 c2        1 FBL     -0.249000
     16 C15       569.0650  -64.1450 -127.4900 c2        1 FBL     -0.133000
     17 C18       571.5960  -65.7180 -128.6810 c2        1 FBL      0.241000
     18 C19       570.2920  -62.2430 -126.5040 c2        1 FBL     -0.154000
     19 C20       570.1430  -63.5540 -126.6960 c2        1 FBL     -0.176000
     20 O21       571.8770  -65.8600 -127.3510 os        1 FBL     -0.210000
     21 N7      -1904.1840  213.9010  419.8780 n2        1 FBL     -0.136000
     22 CL30    -1907.5430  217.7100  419.4440 cl        1 FBL      0.136000
     23 C23       573.7800  -66.5290 -128.5780 c3        1 FBL      0.003000
     24 C24       574.9870  -65.6720 -128.8630 c3        1 FBL     -0.234000
     25 N25       573.6680  -66.2780 -132.5000 n3        1 FBL     -0.092000
     26 C26       574.5160  -65.1840 -132.9360 c3        1 FBL     -0.164000
     27 C27       573.3500  -67.2960 -133.2370 c2        1 FBL      0.076000
     28 O28       572.6830  -66.1060 -129.4440 os        1 FBL     -0.294000
     29 H221      573.1280  -67.3280 -126.6050 h1        1 FBL      0.143000
     30 H222      571.1230  -61.8400 -125.9050 ha        1 FBL      0.138500
     31 H2        566.5260  -66.7520 -126.1230 hn        1 FBL      0.220000
     32 H3        567.6530  -66.8970 -124.1170 ha        1 FBL      0.206000
     33 H10     -1904.7920  215.9080  423.9410 h4        1 FBL      0.209000
     34 H17       570.3690  -65.3390 -130.3390 ha        1 FBL      0.161000
     35 H16       568.3110  -65.3200 -129.1090 ha        1 FBL      0.159000
     36 H13     -1905.4570  216.2830  418.2380 ha        1 FBL      0.229000
     37 H19       569.6220  -61.4810 -126.9260 ha        1 FBL      0.138500
     38 H20       570.8490  -64.2880 -126.2640 ha        1 FBL      0.169000
     39 H7      -1903.6130  213.1250  420.0770 hn        1 FBL      0.398000
     40 H23       573.7700  -65.5960 -126.5560 h1        1 FBL      0.143000
     41 H241      575.8490  -66.0300 -128.2460 hc        1 FBL      0.103667
     42 H242      573.9630  -67.6080 -128.8330 h1        1 FBL      0.133000
     43 H261      574.7880  -64.6010 -128.6170 hc        1 FBL      0.103667
     44 H262      575.3930  -65.1040 -132.2340 h1        1 FBL      0.153333
     45 H263      573.9220  -64.2280 -132.8990 h1        1 FBL      0.153333
     46 H271      573.7220  -67.3930 -134.2830 h4        1 FBL      0.209500
     47 H272      574.8900  -65.3500 -133.9830 h1        1 FBL      0.153333
     48 H273      572.6940  -68.1040 -132.8420 h4        1 FBL      0.209500
     49 H28       573.3250  -66.1990 -131.5460 hn        1 FBL      0.296000
     50 CL29    -1904.8510  213.5880  423.4900 cl        1 FBL      0.042000
     51 H72       566.2660  -64.3490 -122.9120 h4        1 FBL      0.199000
     52 H251      575.2660  -65.7430 -129.9420 hc        1 FBL      0.103667
     53 N14       567.7100  -63.8020 -127.0210 n4        1 FBL      0.038000
     54 H11     -1908.0040  216.1420  421.7150 ha        1 FBL      0.205000
     55 H14       567.0800  -63.6770 -127.8230 hn        1 FBL      0.267000
     56 H142      567.7600  -62.9160 -126.4940 hn        1 FBL      0.267000
@<TRIPOS>BOND
     1    1   20 1   
     2    1   23 1   
     3    1   29 1   
     4    1   40 1   
     5    2    4 1   
     6    2   31 1   
     7    3    6 1   
     8    4    7 1   
     9    4   53 1   
    10    5    6 1   
    11    5    7 1   
    12    5   51 1   
    13    6   32 1   
    14    8    9 1   
    15    8   12 1   
    16    8   54 1   
    17    9   10 1   
    18   10   33 1   
    19   10   50 1   
    20   11   15 1   
    21   11   21 1   
    22   12   15 1   
    23   12   22 1   
    24   13   14 1   
    25   13   17 1   
    26   13   34 1   
    27   14   16 1   
    28   14   35 1   
    29   15   36 1   
    30   16   19 1   
    31   16   53 1   
    32   17   20 1   
    33   17   28 1   
    34   18   19 1   
    35   18   30 1   
    36   18   37 1   
    37   19   38 1   
    38   21   39 1   
    39   23   24 1   
    40   23   28 1   
    41   23   42 1   
    42   24   41 1   
    43   24   43 1   
    44   24   52 1   
    45   25   26 1   
    46   25   27 1   
    47   25   49 1   
    48   26   44 1   
    49   26   45 1   
    50   26   47 1   
    51   27   46 1   
    52   27   48 1   
    53   53   55 1   
    54   53   56 1   
@<TRIPOS>SUBSTRUCTURE
     1 FBL         1 TEMP              0 ****  ****    0 ROOT
