@<TRIPOS>MOLECULE
FBL
   53    46     1     0     0
SMALL
bcc


@<TRIPOS>ATOM
      1 C22         4.3080   -0.2980    1.1900 c3        1 FBL      0.124400
      2 N1         -2.7190    1.4240   -0.8220 n1        1 FBL     -0.574800
      3 C2         -3.5910    2.2200   -1.4550 c1        1 FBL     -0.082250
      4 C6         -2.8690    0.0680   -0.8730 c1        1 FBL      0.559600
      5 C4         -4.7810    0.3130   -2.2040 c1        1 FBL      0.559600
      6 C3         -4.6310    1.6740   -2.1530 c1        1 FBL     -0.082250
      7 N5         -3.9090   -0.4800   -1.5710 n1        1 FBL     -0.574800
      8 C11        -9.8180   -0.6290   -1.7680 c1        1 FBL     -0.059500
      9 C10        -9.3690    0.5660   -2.3130 c1        1 FBL     -0.059500
     10 C9         -8.0420    0.7000   -2.6940 c1        1 FBL      0.020900
     11 C8         -7.1620   -0.3630   -2.5280 c1        1 FBL      0.103300
     12 C12        -8.9420   -1.6880   -1.6030 c1        1 FBL      0.020900
     13 C17         1.6650   -0.3360   -0.9560 c1        1 FBL     -0.089500
     14 C16         0.3080   -0.5980   -1.1260 c1        1 FBL     -0.092000
     15 C13        -7.6150   -1.5580   -1.9820 c1        1 FBL     -0.092000
     16 C15        -0.5810   -0.3660   -0.0850 c1        1 FBL      0.103300
     17 C18         2.1300    0.1580    0.2570 c1        1 FBL      0.106600
     18 C19         1.2390    0.3890    1.2990 c1        1 FBL     -0.082250
     19 C20        -0.1160    0.1270    1.1280 c1        1 FBL     -0.082250
     20 O21         3.5160    0.5740    0.3840 os        1 FBL     -0.318400
     21 N7         -5.8150   -0.2670   -3.0270 n3        1 FBL     -0.552900
     22 N14        -1.9410   -0.7700   -0.2120 n3        1 FBL     -0.552900
     23 CL29       -7.5210    2.1380   -3.5210 cl        1 FBL     -0.093400
     24 CL30       -9.8220   -2.9810   -0.8160 cl        1 FBL     -0.093400
     25 C23         5.7600    0.1460    1.1440 c3        1 FBL      0.141100
     26 C24         6.5170   -0.4630    2.3230 c3        1 FBL      0.138800
     27 N25         7.8070    0.1410    2.4220 n3        1 FBL     -0.761600
     28 C26         7.9770    0.6990    3.7470 c3        1 FBL      0.162600
     29 C27         8.8370   -0.8680    2.1820 c3        1 FBL      0.162600
     30 O28         5.8250    1.5420    1.2190 oh        1 FBL     -0.606800
     31 H221        4.2370   -1.2100    0.8500 h1        1 FBL      0.055200
     32 H222        3.9870   -0.2680    2.1150 h1        1 FBL      0.055200
     33 H2         -3.4820    3.1910   -1.4180 ha        1 FBL      0.100500
     34 H3         -5.2640    2.2520   -2.6130 ha        1 FBL      0.100500
     35 H11       -10.7570   -0.7230   -1.4990 ha        1 FBL      0.097500
     36 H10        -9.9910    1.3150   -2.4290 ha        1 FBL      0.097500
     37 H17         2.2890   -0.4990   -1.6880 ha        1 FBL      0.092500
     38 H16        -0.0220   -0.9480   -1.9860 ha        1 FBL      0.092500
     39 H13        -7.0000   -2.3050   -1.8650 ha        1 FBL      0.092500
     40 H19         1.5650    0.7360    2.1510 ha        1 FBL      0.100500
     41 H20        -0.7450    0.2910    1.8650 ha        1 FBL      0.100500
     42 H7         -5.6040   -0.6200   -3.8440 hn        1 FBL      0.443800
     43 H14        -2.2010   -1.5890    0.0850 hn        1 FBL      0.443800
     44 H23         6.1680   -0.1560    0.3020 h1        1 FBL      0.061700
     45 H241        6.0160   -0.3020    3.1510 h1        1 FBL      0.051200
     46 H242        6.6170   -1.4240    2.1840 h1        1 FBL      0.051200
     47 H261        7.3960    1.4910    3.8480 h1        1 FBL      0.032533
     48 H262        7.7320    0.0240    4.4200 h1        1 FBL      0.032533
     49 H263        8.9110    0.9620    3.8740 h1        1 FBL      0.032533
     50 H271        8.8020   -1.5470    2.8940 h1        1 FBL      0.032533
     51 H272        8.6790   -1.2990    1.3100 h1        1 FBL      0.032533
     52 H273        9.7200   -0.4410    2.1790 h1        1 FBL      0.032533
     53 H28         6.3030    1.8560    0.5270 ho        1 FBL      0.418000
@<TRIPOS>BOND
     1    1   20 1   
     2    1   25 1   
     3    1   31 1   
     4    1   32 1   
     5    2    4 3   
     6    3    6 3   
     7    3   33 1   
     8    4   22 1   
     9    5    7 3   
    10    5   21 1   
    11    6   34 1   
    12    8   12 3   
    13    8   35 1   
    14    9   10 3   
    15    9   36 1   
    16   10   23 1   
    17   11   15 3   
    18   11   21 1   
    19   12   24 1   
    20   13   17 3   
    21   13   37 1   
    22   14   16 3   
    23   14   38 1   
    24   15   39 1   
    25   16   22 1   
    26   17   20 1   
    27   18   19 3   
    28   18   40 1   
    29   19   41 1   
    30   21   42 1   
    31   22   43 1   
    32   25   26 1   
    33   25   30 1   
    34   25   44 1   
    35   26   27 1   
    36   26   45 1   
    37   26   46 1   
    38   27   28 1   
    39   27   29 1   
    40   28   47 1   
    41   28   48 1   
    42   28   49 1   
    43   29   50 1   
    44   29   51 1   
    45   29   52 1   
    46   30   53 1   
@<TRIPOS>SUBSTRUCTURE
     1 FBL         1 TEMP              0 ****  ****    0 ROOT
