@<TRIPOS>MOLECULE
FBN
   58    62     1     0     0
SMALL
bcc


@<TRIPOS>ATOM
      1 C1         -5.9600    0.7730   -0.0770 ca        1 FBN      0.448800
      2 N2         -7.2220    0.2900   -0.2900 nb        1 FBN     -0.766000
      3 C3         -8.1130    1.2730   -0.5650 ca        1 FBN      0.690900
      4 N4         -7.9350    2.6160   -0.6580 nb        1 FBN     -0.794000
      5 C5         -6.6650    3.1090   -0.4510 ca        1 FBN      0.766200
      6 C6         -5.6090    2.1850   -0.1400 ca        1 FBN     -0.227200
      7 N8         -4.2440    2.3530    0.1410 nc        1 FBN     -0.542100
      8 C9         -3.7740    1.1190    0.3650 cd        1 FBN      0.427700
      9 N10        -4.7610    0.1090    0.2280 na        1 FBN     -0.301000
     10 N11        -6.4020    4.4470   -0.5540 nh        1 FBN     -0.955500
     11 C15        -4.6620   -1.3000    0.5280 c3        1 FBN      0.228800
     12 O16        -3.3010   -1.6640    0.7870 os        1 FBN     -0.394600
     13 C17        -2.7870   -2.5240   -0.2340 c3        1 FBN      0.076100
     14 C18        -3.9490   -2.9650   -1.1510 c3        1 FBN      0.129100
     15 C19        -5.1930   -2.2220   -0.6190 c3        1 FBN      0.084100
     16 O21        -4.0770   -4.3630   -1.1780 oh        1 FBN     -0.575800
     17 O23        -6.0790   -3.1710   -0.0660 oh        1 FBN     -0.596800
     18 C27        -1.7060   -1.7900   -1.0440 c3        1 FBN      0.035300
     19 N29        -0.4990   -1.5060   -0.2980 na        1 FBN      0.050400
     20 C32         0.5890   -2.3820   -0.1630 cc        1 FBN     -0.198600
     21 C33         1.4600   -1.7090    0.7110 cd        1 FBN      0.213600
     22 N34         0.8340   -0.4800    1.0420 nd        1 FBN     -0.354000
     23 N35        -0.2880   -0.3980    0.4580 nc        1 FBN     -0.152800
     24 C37         2.7810   -2.1470    1.2360 c3        1 FBN      0.073700
     25 N38         3.8160   -1.1500    1.1420 n         1 FBN     -0.530900
     26 C41         4.7770   -1.1980    0.1560 c         1 FBN      0.677700
     27 C42         5.7090   -0.0410    0.0220 ca        1 FBN     -0.201600
     28 O43         4.9220   -2.2180   -0.5590 o         1 FBN     -0.638100
     29 C45         7.0510   -0.2640   -0.3320 ca        1 FBN      0.157100
     30 C46         7.9450    0.8350   -0.4490 ca        1 FBN      0.087100
     31 C47         7.4990    2.1390   -0.2410 ca        1 FBN     -0.060000
     32 C48         6.1470    2.3410    0.0860 ca        1 FBN     -0.188200
     33 C49         5.2560    1.2690    0.2160 ca        1 FBN     -0.044000
     34 O52         7.6200   -1.4830   -0.5670 oh        1 FBN     -0.514100
     35 O53         9.2720    0.6720   -0.7630 oh        1 FBN     -0.483100
     36 N54         5.6560    3.7290    0.2950 no        1 FBN      0.318200
     37 O55         6.4250    4.6430    0.1660 o         1 FBN     -0.203500
     38 O56         4.5030    3.8970    0.5890 o         1 FBN     -0.203500
     39 H3         -9.1570    0.9330   -0.7400 h5        1 FBN      0.051100
     40 H9         -2.7390    0.8590    0.6330 h5        1 FBN      0.101800
     41 HN11       -7.1310    5.0950   -0.7200 hn        1 FBN      0.451800
     42 HN1A       -5.4920    4.7730   -0.3390 hn        1 FBN      0.451800
     43 H15        -5.2170   -1.5080    1.4950 h2        1 FBN      0.105700
     44 H17        -2.3540   -3.4090    0.3120 h1        1 FBN      0.094700
     45 H18        -3.7550   -2.6790   -2.2220 h1        1 FBN      0.091700
     46 H19        -5.6880   -1.6460   -1.4430 h1        1 FBN      0.091700
     47 HO21       -4.5210   -4.6480   -0.3660 ho        1 FBN      0.431000
     48 HO23       -6.9460   -2.7450   -0.0090 ho        1 FBN      0.439000
     49 H27        -1.4180   -2.4400   -1.9190 h1        1 FBN      0.083700
     50 H27A       -2.1320   -0.8180   -1.4250 h1        1 FBN      0.083700
     51 H32         0.6570   -3.3390   -0.6750 h4        1 FBN      0.198000
     52 H37         2.6630   -2.4070    2.3300 h1        1 FBN      0.081200
     53 H37A        3.1050   -3.0730    0.6770 h1        1 FBN      0.081200
     54 HN38        3.6410   -0.2850    1.6030 hn        1 FBN      0.327500
     55 H47         8.2010    2.9850   -0.3400 ha        1 FBN      0.193000
     56 H49         4.1960    1.4730    0.4540 ha        1 FBN      0.179000
     57 HO52        6.9300   -2.1670   -0.6480 ho        1 FBN      0.480000
     58 HO53        9.4300   -0.2690   -0.9440 ho        1 FBN      0.446000
@<TRIPOS>BOND
     1    1    2 ar  
     2    1    6 ar  
     3    1    9 1   
     4    2    3 ar  
     5    3    4 ar  
     6    3   39 1   
     7    4    5 ar  
     8    5    6 ar  
     9    5   10 1   
    10    6    7 1   
    11    7    8 2   
    12    8    9 1   
    13    8   40 1   
    14    9   11 1   
    15   10   41 1   
    16   10   42 1   
    17   11   12 1   
    18   11   15 1   
    19   11   43 1   
    20   12   13 1   
    21   13   14 1   
    22   13   18 1   
    23   13   44 1   
    24   14   15 1   
    25   14   16 1   
    26   14   45 1   
    27   15   17 1   
    28   15   46 1   
    29   16   47 1   
    30   17   48 1   
    31   18   19 1   
    32   18   49 1   
    33   18   50 1   
    34   19   20 1   
    35   19   23 1   
    36   20   21 2   
    37   20   51 1   
    38   21   22 1   
    39   21   24 1   
    40   22   23 2   
    41   24   25 1   
    42   24   52 1   
    43   24   53 1   
    44   25   26 1   
    45   25   54 1   
    46   26   27 1   
    47   26   28 2   
    48   27   29 ar  
    49   27   33 ar  
    50   29   30 ar  
    51   29   34 1   
    52   30   31 ar  
    53   30   35 1   
    54   31   32 ar  
    55   31   55 1   
    56   32   33 ar  
    57   32   36 1   
    58   33   56 1   
    59   34   57 1   
    60   35   58 1   
    61   36   37 1   
    62   36   38 1   
@<TRIPOS>SUBSTRUCTURE
     1 FBN         1 TEMP              0 ****  ****    0 ROOT
