@<TRIPOS>MOLECULE
FBN
   59    63     1     0     0
SMALL
bcc


@<TRIPOS>ATOM
      1 C1         -0.2030    0.1270   -0.2430 ca        1 FBN      0.458800
      2 N2          0.9650   -0.5270    0.0250 nb        1 FBN     -0.768000
      3 C3          1.1400   -0.7520    1.3510 ca        1 FBN      0.700900
      4 N4          0.3470   -0.4340    2.4040 nb        1 FBN     -0.786000
      5 C5         -0.8360    0.2240    2.1410 ca        1 FBN      0.772200
      6 C6         -1.1580    0.5400    0.7760 ca        1 FBN     -0.234200
      7 N8         -2.2420    1.2030    0.1790 nc        1 FBN     -0.534100
      8 C9         -1.9770    1.2030   -1.1320 cd        1 FBN      0.409700
      9 N10        -0.7650    0.5400   -1.4640 na        1 FBN     -0.307000
     10 N11        -1.6940    0.5580    3.1500 nh        1 FBN     -0.950500
     11 C15        -0.0880    0.5090   -2.7370 c3        1 FBN      0.234800
     12 O16        -0.9620    0.9890   -3.7740 os        1 FBN     -0.405600
     13 C17        -1.3500   -0.0660   -4.6550 c3        1 FBN      0.079100
     14 C18        -0.5750   -1.3500   -4.2800 c3        1 FBN      0.129100
     15 C19         0.3950   -0.9180   -3.1580 c3        1 FBN      0.087100
     16 O21         0.0400   -1.9130   -5.4070 oh        1 FBN     -0.577800
     17 O23         1.6880   -0.8030   -3.7110 oh        1 FBN     -0.597800
     18 C27        -2.8650   -0.3020   -4.5470 c3        1 FBN      0.022300
     19 N29        -3.6660    0.8020   -5.0520 na        1 FBN      0.081400
     20 C32        -4.0130    0.9930   -6.3930 cc        1 FBN     -0.142600
     21 C33        -4.6950    2.2270   -6.3920 cd        1 FBN      0.131600
     22 N34        -4.7020    2.6880   -5.0490 nd        1 FBN     -0.376000
     23 N35        -4.1020    1.8510   -4.3100 nc        1 FBN     -0.108800
     24 C37        -5.2580    2.9800   -7.5270 c3        1 FBN      0.129500
     25 N38        -6.4040    3.8440   -7.0960 n4        1 FBN     -0.674800
     26 C41        -7.1000    4.5420   -8.2490 c         1 FBN      0.589700
     27 C42        -8.3600    5.1920   -7.8650 ca        1 FBN     -0.236600
     28 O43        -6.5530    4.5010   -9.3360 o         1 FBN     -0.379100
     29 C45        -8.5080    6.5770   -8.0710 ca        1 FBN      0.225100
     30 C46        -9.7560    7.1910   -7.7740 ca        1 FBN      0.057100
     31 C47       -10.8200    6.4450   -7.2830 ca        1 FBN     -0.072000
     32 C48       -10.6400    5.0610   -7.0780 ca        1 FBN     -0.169200
     33 C49        -9.4280    4.4340   -7.3650 ca        1 FBN     -0.041000
     34 O52        -7.4270    7.2700   -8.5150 oh        1 FBN     -0.475100
     35 O53        -9.7960    8.5440   -8.0060 oh        1 FBN     -0.494100
     36 N54       -11.7730    4.2490   -6.5410 no        1 FBN      0.322200
     37 O55       -12.8220    4.7910   -6.3470 o         1 FBN     -0.175000
     38 O56       -11.5760    3.0860   -6.3230 o         1 FBN     -0.175000
     39 H3          2.0820   -1.2790    1.6230 h5        1 FBN      0.059100
     40 H9         -2.5970    1.6570   -1.9160 h5        1 FBN      0.084800
     41 HN11       -1.4630    0.3720    4.0950 hn        1 FBN      0.454800
     42 HN1A       -2.5120    1.0720    2.9350 hn        1 FBN      0.454800
     43 H15         0.7800    1.2370   -2.7230 h2        1 FBN      0.112700
     44 H17        -1.0660    0.2770   -5.6890 h1        1 FBN      0.089700
     45 H18        -1.2710   -2.1500   -3.9010 h1        1 FBN      0.092700
     46 H19         0.3750   -1.6550   -2.3140 h1        1 FBN      0.104700
     47 HO21        0.8780   -1.4540   -5.5700 ho        1 FBN      0.438000
     48 HO23        2.3200   -0.9740   -2.9990 ho        1 FBN      0.444000
     49 H27        -3.1310   -1.2150   -5.1510 h1        1 FBN      0.098200
     50 H27A       -3.1370   -0.4730   -3.4650 h1        1 FBN      0.098200
     51 H32        -3.7690    0.2850   -7.1860 h4        1 FBN      0.214000
     52 H37        -5.6300    2.2730   -8.3260 hx        1 FBN      0.115700
     53 H37A       -4.4770    3.6590   -7.9850 hx        1 FBN      0.115700
     54 HN38       -6.0540    4.5650   -6.4480 hn        1 FBN      0.471800
     55 H47       -11.7930    6.9200   -7.0550 ha        1 FBN      0.202000
     56 H49        -9.3300    3.3420   -7.2220 ha        1 FBN      0.178000
     57 HO52       -7.6830    8.1980   -8.6840 ho        1 FBN      0.485000
     58 HO53      -10.7010    8.8630   -7.8520 ho        1 FBN      0.464000
     59 H382       -7.0880    3.2760   -6.5800 hn        1 FBN      0.471800
@<TRIPOS>BOND
     1    1    2 ar  
     2    1    6 ar  
     3    1    9 1   
     4    2    3 ar  
     5    3    4 ar  
     6    3   39 1   
     7    4    5 ar  
     8    5    6 ar  
     9    5   10 1   
    10    6    7 1   
    11    7    8 2   
    12    8    9 1   
    13    8   40 1   
    14    9   11 1   
    15   10   41 1   
    16   10   42 1   
    17   11   12 1   
    18   11   15 1   
    19   11   43 1   
    20   12   13 1   
    21   13   14 1   
    22   13   18 1   
    23   13   44 1   
    24   14   15 1   
    25   14   16 1   
    26   14   45 1   
    27   15   17 1   
    28   15   46 1   
    29   16   47 1   
    30   17   48 1   
    31   18   19 1   
    32   18   49 1   
    33   18   50 1   
    34   19   20 1   
    35   19   23 1   
    36   20   21 2   
    37   20   51 1   
    38   21   22 1   
    39   21   24 1   
    40   22   23 2   
    41   24   25 1   
    42   24   52 1   
    43   24   53 1   
    44   25   26 1   
    45   25   54 1   
    46   25   59 1   
    47   26   27 1   
    48   26   28 2   
    49   27   29 ar  
    50   27   33 ar  
    51   29   30 ar  
    52   29   34 1   
    53   30   31 ar  
    54   30   35 1   
    55   31   32 ar  
    56   31   55 1   
    57   32   33 ar  
    58   32   36 1   
    59   33   56 1   
    60   34   57 1   
    61   35   58 1   
    62   36   37 1   
    63   36   38 1   
@<TRIPOS>SUBSTRUCTURE
     1 FBN         1 TEMP              0 ****  ****    0 ROOT
