@<TRIPOS>MOLECULE
FBN
   58    62     1     0     0
SMALL
bcc


@<TRIPOS>ATOM
      1 C1         -0.4230    0.1190   -0.3080 ca        1 FBN      0.447800
      2 N2          0.5460   -0.7820    0.0370 nb        1 FBN     -0.765000
      3 C3          0.5910   -1.0060    1.3720 ca        1 FBN      0.690900
      4 N4         -0.1630   -0.4860    2.3740 nb        1 FBN     -0.794000
      5 C5         -1.1450    0.4170    2.0320 ca        1 FBN      0.765200
      6 C6         -1.3110    0.7650    0.6490 ca        1 FBN     -0.227200
      7 N8         -2.1790    1.6430   -0.0190 nc        1 FBN     -0.546100
      8 C9         -1.8510    1.5490   -1.3140 cd        1 FBN      0.427700
      9 N10        -0.8030    0.6240   -1.5620 na        1 FBN     -0.299000
     10 N11        -1.9630    0.9640    2.9830 nh        1 FBN     -0.956500
     11 C15        -0.0990    0.3630   -2.7960 c3        1 FBN      0.227800
     12 O16        -0.7480    1.0160   -3.8930 os        1 FBN     -0.394600
     13 C17        -1.3250    0.0700   -4.7980 c3        1 FBN      0.076100
     14 C18        -0.8420   -1.3470   -4.4170 c3        1 FBN      0.129100
     15 C19         0.0090   -1.1590   -3.1430 c3        1 FBN      0.084100
     16 O21        -0.1610   -1.9590   -5.4820 oh        1 FBN     -0.574800
     17 O23         1.3520   -1.4600   -3.4530 oh        1 FBN     -0.595800
     18 C27        -2.8600    0.1540   -4.7380 c3        1 FBN      0.036300
     19 N29        -3.4060    1.3870   -5.2570 na        1 FBN      0.047400
     20 C32        -3.7430    1.6160   -6.6010 cc        1 FBN     -0.202600
     21 C33        -4.1370    2.9650   -6.6280 cd        1 FBN      0.222600
     22 N34        -4.0050    3.4530   -5.3030 nd        1 FBN     -0.353000
     23 N35        -3.5760    2.5310   -4.5460 nc        1 FBN     -0.160800
     24 C37        -4.6030    3.7790   -7.7840 c3        1 FBN      0.080700
     25 N38        -5.8450    4.4640   -7.5540 n         1 FBN     -0.542900
     26 C41        -7.0270    4.0400   -8.1170 c         1 FBN      0.683700
     27 C42        -8.3030    4.6940   -7.6870 ca        1 FBN     -0.161600
     28 O43        -7.0540    3.1270   -8.9700 o         1 FBN     -0.611100
     29 C45        -8.4210    6.0320   -7.2800 ca        1 FBN      0.190100
     30 C46        -9.6970    6.5410   -6.9140 ca        1 FBN      0.024100
     31 C47       -10.8310    5.7420   -6.9470 ca        1 FBN     -0.098000
     32 C48       -10.6940    4.4030   -7.3610 ca        1 FBN     -0.193200
     33 C49        -9.4500    3.8860   -7.7350 ca        1 FBN     -0.011000
     34 O52        -7.3090    6.8250   -7.2440 oh        1 FBN     -0.483100
     35 O53        -9.7120    7.8660   -6.5280 oh        1 FBN     -0.513100
     36 N54       -11.8980    3.5350   -7.4010 no        1 FBN      0.320200
     37 O55       -12.9630    4.0120   -7.1090 o         1 FBN     -0.204500
     38 O56       -11.7780    2.3840   -7.7200 o         1 FBN     -0.204500
     39 H3          1.3680   -1.7290    1.7070 h5        1 FBN      0.051100
     40 H9         -2.3110    2.1090   -2.1430 h5        1 FBN      0.102800
     41 HN11       -2.6170    1.6540    2.7110 hn        1 FBN      0.450800
     42 HN1A       -1.8250    0.7670    3.9430 hn        1 FBN      0.450800
     43 H15         0.9310    0.8310   -2.7340 h2        1 FBN      0.104700
     44 H17        -0.9430    0.3610   -5.8160 h1        1 FBN      0.095700
     45 H18        -1.7100   -2.0320   -4.2060 h1        1 FBN      0.091700
     46 H19        -0.3670   -1.8190   -2.3180 h1        1 FBN      0.090700
     47 HO21        0.7310   -1.5870   -5.5310 ho        1 FBN      0.430000
     48 HO23        1.8050   -1.6170   -2.6130 ho        1 FBN      0.438000
     49 H27        -3.2840   -0.6900   -5.3530 h1        1 FBN      0.083200
     50 H27A       -3.1900    0.0360   -3.6650 h1        1 FBN      0.083200
     51 H32        -3.6940    0.8500   -7.3720 h4        1 FBN      0.198000
     52 H37        -4.7120    3.1020   -8.6820 h1        1 FBN      0.077700
     53 H37A       -3.8160    4.5580   -8.0120 h1        1 FBN      0.077700
     54 HN38       -5.8640    5.1430   -6.8270 hn        1 FBN      0.334500
     55 H47       -11.8190    6.1410   -6.6580 ha        1 FBN      0.177000
     56 H49        -9.3520    2.8390   -8.0840 ha        1 FBN      0.200000
     57 HO52       -7.5710    7.7240   -6.9770 ho        1 FBN      0.458000
     58 HO53      -10.6290    8.1160   -6.3410 ho        1 FBN      0.443000
@<TRIPOS>BOND
     1    1    2 ar  
     2    1    6 ar  
     3    1    9 1   
     4    2    3 ar  
     5    3    4 ar  
     6    3   39 1   
     7    4    5 ar  
     8    5    6 ar  
     9    5   10 1   
    10    6    7 1   
    11    7    8 2   
    12    8    9 1   
    13    8   40 1   
    14    9   11 1   
    15   10   41 1   
    16   10   42 1   
    17   11   12 1   
    18   11   15 1   
    19   11   43 1   
    20   12   13 1   
    21   13   14 1   
    22   13   18 1   
    23   13   44 1   
    24   14   15 1   
    25   14   16 1   
    26   14   45 1   
    27   15   17 1   
    28   15   46 1   
    29   16   47 1   
    30   17   48 1   
    31   18   19 1   
    32   18   49 1   
    33   18   50 1   
    34   19   20 1   
    35   19   23 1   
    36   20   21 2   
    37   20   51 1   
    38   21   22 1   
    39   21   24 1   
    40   22   23 2   
    41   24   25 1   
    42   24   52 1   
    43   24   53 1   
    44   25   26 1   
    45   25   54 1   
    46   26   27 1   
    47   26   28 2   
    48   27   29 ar  
    49   27   33 ar  
    50   29   30 ar  
    51   29   34 1   
    52   30   31 ar  
    53   30   35 1   
    54   31   32 ar  
    55   31   55 1   
    56   32   33 ar  
    57   32   36 1   
    58   33   56 1   
    59   34   57 1   
    60   35   58 1   
    61   36   37 1   
    62   36   38 1   
@<TRIPOS>SUBSTRUCTURE
     1 FBN         1 TEMP              0 ****  ****    0 ROOT
