@<TRIPOS>MOLECULE
FBN
   59    63     1     0     0
SMALL
bcc


@<TRIPOS>ATOM
      1 C1         -0.7850   -0.3260   -0.1500 ca        1 FBN      0.458800
      2 N2          0.4980   -0.4500    0.3020 nb        1 FBN     -0.768000
      3 C3          0.5710   -1.1420    1.4670 ca        1 FBN      0.700900
      4 N4         -0.4120   -1.7060    2.2120 nb        1 FBN     -0.786000
      5 C5         -1.7090   -1.5890    1.7590 ca        1 FBN      0.771200
      6 C6         -1.9480   -0.8720    0.5360 ca        1 FBN     -0.234200
      7 N8         -3.1170   -0.5570   -0.1740 nc        1 FBN     -0.534100
      8 C9         -2.7070    0.1440   -1.2370 cd        1 FBN      0.409700
      9 N10        -1.2960    0.2980   -1.3020 na        1 FBN     -0.307000
     10 N11        -2.7470   -2.1510    2.4460 nv        1 FBN     -0.950500
     11 C15        -0.5350    1.1400   -2.1920 c3        1 FBN      0.234800
     12 O16        -1.3650    1.5950   -3.2740 os        1 FBN     -0.404600
     13 C17        -0.9800    0.9980   -4.5120 c3        1 FBN      0.079100
     14 C18         0.3060    0.1670   -4.2950 c3        1 FBN      0.130100
     15 C19         0.7050    0.4260   -2.8260 c3        1 FBN      0.087100
     16 O21         1.2860    0.5010   -5.2400 oh        1 FBN     -0.577800
     17 O23         1.7900    1.3280   -2.8140 oh        1 FBN     -0.597800
     18 C27        -2.1160    0.1030   -5.0330 c3        1 FBN      0.022300
     19 N29        -3.3060    0.8410   -5.4270 na        1 FBN      0.081400
     20 C32        -3.5000    1.4440   -6.6720 cc        1 FBN     -0.138600
     21 C33        -4.7370    2.1070   -6.5370 cd        1 FBN      0.126600
     22 N34        -5.1930    1.8540   -5.2150 nd        1 FBN     -0.371000
     23 N35        -4.3500    1.1300   -4.6080 nc        1 FBN     -0.107800
     24 C37        -5.4510    2.9640   -7.4990 c3        1 FBN      0.131500
     25 N38        -6.9390    2.8330   -7.3500 ny        1 FBN     -0.678800
     26 C41        -7.6800    3.5960   -8.4330 c         1 FBN      0.588700
     27 C42        -8.5280    4.6870   -7.9460 ca        1 FBN     -0.234600
     28 O43        -7.5010    3.2080   -9.5750 o         1 FBN     -0.388100
     29 C45        -9.8470    4.7950   -8.4310 ca        1 FBN      0.233100
     30 C46       -10.6510    5.8940   -8.0170 ca        1 FBN      0.054100
     31 C47       -10.1540    6.8540   -7.1460 ca        1 FBN     -0.071000
     32 C48        -8.8320    6.7190   -6.6700 ca        1 FBN     -0.171200
     33 C49        -8.0240    5.6520   -7.0590 ca        1 FBN     -0.041000
     34 O52       -10.3020    3.8170   -9.2550 oh        1 FBN     -0.467100
     35 O53       -11.9190    5.9020   -8.5420 oh        1 FBN     -0.495100
     36 N54        -8.2860    7.7450   -5.7310 no        1 FBN      0.322200
     37 O55        -8.9860    8.6640   -5.4200 o         1 FBN     -0.175000
     38 O56        -7.1650    7.5990   -5.3300 o         1 FBN     -0.175000
     39 H3          1.5960   -1.2660    1.8820 h5        1 FBN      0.059100
     40 H9         -3.3520    0.5810   -2.0100 h5        1 FBN      0.084800
     41 HN11       -3.6710   -2.0020    2.1260 hn        1 FBN      0.454300
     42 HN1A       -2.5930   -2.6140    3.3080 hn        1 FBN      0.454300
     43 H15        -0.2180    2.0810   -1.6460 h2        1 FBN      0.113700
     44 H17        -0.7810    1.8530   -5.2170 h1        1 FBN      0.088700
     45 H18         0.1130   -0.9310   -4.4540 h1        1 FBN      0.092700
     46 H19         0.9680   -0.5350   -2.3120 h1        1 FBN      0.104700
     47 HO21        1.7500    1.2980   -4.9430 ho        1 FBN      0.438000
     48 HO23        2.2980    1.1550   -2.0100 ho        1 FBN      0.444000
     49 H27        -2.4040   -0.6350   -4.2290 h1        1 FBN      0.098200
     50 H27A       -1.7480   -0.4540   -5.9410 h1        1 FBN      0.098200
     51 H32        -2.7960    1.3590   -7.5010 h4        1 FBN      0.214000
     52 H37        -5.1780    2.6810   -8.5580 hx        1 FBN      0.113200
     53 H37A       -5.1920    4.0510   -7.3270 hx        1 FBN      0.113200
     54 HN38       -7.1890    1.8370   -7.4130 hn        1 FBN      0.471300
     55 H47       -10.7750    7.7120   -6.8250 ha        1 FBN      0.202000
     56 H49        -6.9860    5.5900   -6.6850 ha        1 FBN      0.176000
     57 HO52      -11.2010    4.0430   -9.5630 ho        1 FBN      0.485000
     58 HO53      -12.3710    6.7160   -8.2620 ho        1 FBN      0.464000
     59 H382       -7.2210    3.1720   -6.4210 hn        1 FBN      0.471300
@<TRIPOS>BOND
     1    1    2 ar  
     2    1    6 ar  
     3    1    9 1   
     4    2    3 ar  
     5    3    4 ar  
     6    3   39 1   
     7    4    5 ar  
     8    5    6 ar  
     9    5   10 1   
    10    6    7 1   
    11    7    8 2   
    12    8    9 1   
    13    8   40 1   
    14    9   11 1   
    15   10   41 1   
    16   10   42 1   
    17   11   12 1   
    18   11   15 1   
    19   11   43 1   
    20   12   13 1   
    21   13   14 1   
    22   13   18 1   
    23   13   44 1   
    24   14   15 1   
    25   14   16 1   
    26   14   45 1   
    27   15   17 1   
    28   15   46 1   
    29   16   47 1   
    30   17   48 1   
    31   18   19 1   
    32   18   49 1   
    33   18   50 1   
    34   19   20 1   
    35   19   23 1   
    36   20   21 2   
    37   20   51 1   
    38   21   22 1   
    39   21   24 1   
    40   22   23 2   
    41   24   25 1   
    42   24   52 1   
    43   24   53 1   
    44   25   26 1   
    45   25   54 1   
    46   25   59 1   
    47   26   27 1   
    48   26   28 2   
    49   27   29 ar  
    50   27   33 ar  
    51   29   30 ar  
    52   29   34 1   
    53   30   31 ar  
    54   30   35 1   
    55   31   32 ar  
    56   31   55 1   
    57   32   33 ar  
    58   32   36 1   
    59   33   56 1   
    60   34   57 1   
    61   35   58 1   
    62   36   37 1   
    63   36   38 1   
@<TRIPOS>SUBSTRUCTURE
     1 FBN         1 TEMP              0 ****  ****    0 ROOT
