@<TRIPOS>MOLECULE
FBO
   66    67     1     0     0
SMALL
bcc


@<TRIPOS>ATOM
      1 C1          1.4010    0.4060    0.2630 ca        1 FBO     -0.098000
      2 C2          2.4340   -0.4800    0.5830 ca        1 FBO     -0.036000
      3 C3          2.4270   -1.1440    1.8150 ca        1 FBO     -0.098000
      4 C4          1.3910   -0.9280    2.7200 ca        1 FBO     -0.119000
      5 C5          0.3490   -0.0380    2.4010 ca        1 FBO     -0.249300
      6 C6          0.3610    0.6250    1.1640 ca        1 FBO     -0.119000
      7 C7         -0.8070    0.1010    3.3160 c3        1 FBO     -0.022100
      8 C8         -0.6440    1.3660    4.2180 c3        1 FBO      0.052500
      9 C9         -1.6750    1.3260    5.3490 c         1 FBO      0.525100
     10 N10        -3.1350    1.3330    4.9310 n4        1 FBO     -0.685800
     11 O11        -1.4490    1.2450    6.5450 o         1 FBO     -0.391100
     12 N12         0.7510    1.4680    4.7520 n4        1 FBO     -0.843600
     13 C13        -7.3690    4.8710    4.4290 c3        1 FBO      0.105800
     14 C14        -4.1380    1.3360    6.0690 c3        1 FBO      0.092500
     15 C15        -5.5620    1.6770    5.5780 c3        1 FBO     -0.117400
     16 C16        -5.7340    3.1220    5.1420 c3        1 FBO     -0.086400
     17 C17        -7.2070    3.4230    4.8900 c3        1 FBO     -0.105400
     18 N18        -8.7680    5.2530    4.1030 n4        1 FBO     -0.665800
     19 C20        -8.8200    6.6030    3.3630 c         1 FBO      0.634100
     20 O21       -10.0080    7.1490    3.5210 os        1 FBO     -0.405900
     21 O22        -7.8360    6.9880    2.7510 o         1 FBO     -0.440000
     22 C23       -10.2540    8.4780    2.8130 c3        1 FBO      0.248700
     23 C24       -11.6810    8.7340    3.0390 ca        1 FBO     -0.185300
     24 C25       -12.0970    9.4610    4.1670 ca        1 FBO     -0.074500
     25 C26       -13.4420    9.7760    4.3330 ca        1 FBO     -0.129500
     26 C27       -14.3820    9.3630    3.3840 ca        1 FBO     -0.049000
     27 C28       -13.9740    8.6300    2.2670 ca        1 FBO     -0.129500
     28 C29       -12.6300    8.3110    2.0940 ca        1 FBO     -0.074500
     29 C30        -4.1700   -0.0440    6.7430 c         1 FBO      0.536100
     30 O31        -3.7920   -1.0880    6.2410 o         1 FBO     -0.352100
     31 N32        -4.7190   -0.1590    8.1610 n4        1 FBO     -0.430300
     32 O33        -5.0640    1.0740    8.5940 oh        1 FBO     -0.388300
     33 H1          1.4000    0.9190   -0.7160 ha        1 FBO      0.190000
     34 H2          3.2480   -0.6680   -0.1420 ha        1 FBO      0.199000
     35 H3          3.2350   -1.8580    2.0590 ha        1 FBO      0.190000
     36 H4          1.3670   -1.5030    3.6590 ha        1 FBO      0.134500
     37 H6         -0.4630    1.2990    0.8850 ha        1 FBO      0.134500
     38 H7         -1.7490    0.2380    2.7200 hc        1 FBO      0.087200
     39 H7A        -0.9060   -0.8120    3.9610 hc        1 FBO      0.087200
     40 H8         -0.8190    2.2870    3.5740 hx        1 FBO      0.162700
     41 HN10       -3.2970    0.5050    4.3280 hn        1 FBO      0.497300
     42 HN12        1.4040    1.1730    3.9830 hn        1 FBO      0.501800
     43 HN1A        0.8990    0.8390    5.5530 hn        1 FBO      0.501800
     44 H13        -6.7470    5.0510    3.5000 hx        1 FBO      0.121200
     45 H13A       -7.0050    5.5780    5.2310 hx        1 FBO      0.121200
     46 H14        -3.7960    2.1170    6.8250 hx        1 FBO      0.179700
     47 H15        -5.8690    0.9830    4.7470 hc        1 FBO      0.112200
     48 H15A       -6.2530    1.4880    6.4490 hc        1 FBO      0.112200
     49 H16        -5.3460    3.8150    5.9360 hc        1 FBO      0.066200
     50 H16A       -5.1580    3.3200    4.1990 hc        1 FBO      0.066200
     51 H17        -7.7920    3.2520    5.8330 hc        1 FBO      0.083200
     52 H17A       -7.6050    2.7200    4.1090 hc        1 FBO      0.083200
     53 HN18       -9.3400    5.3300    4.9530 hn        1 FBO      0.470300
     54 H23        -9.5670    9.2020    3.3190 h1        1 FBO      0.091200
     55 H23A       -9.9760    8.3080    1.7430 h1        1 FBO      0.091200
     56 H25       -11.3580    9.8010    4.9080 ha        1 FBO      0.137000
     57 H26       -13.7670   10.3630    5.2080 ha        1 FBO      0.167500
     58 H27       -15.4470    9.6240    3.5140 ha        1 FBO      0.172000
     59 H28       -14.7170    8.3150    1.5150 ha        1 FBO      0.167500
     60 H29       -12.3110    7.7470    1.2030 ha        1 FBO      0.137000
     61 HN32       -5.5510   -0.7980    8.1520 hn        1 FBO      0.517800
     62 HO33       -5.3300    1.0270    9.5530 ho        1 FBO      0.532000
     63 H102       -3.3180    2.1800    4.3660 hn        1 FBO      0.497300
     64 H123        0.9780    2.4310    5.0340 hn        1 FBO      0.501800
     65 H182       -9.2030    4.5530    3.4900 hn        1 FBO      0.470300
     66 H322       -3.9830   -0.5880    8.7710 hn        1 FBO      0.517800
@<TRIPOS>BOND
     1    1    2 ar  
     2    1    6 ar  
     3    1   33 1   
     4    2    3 ar  
     5    2   34 1   
     6    3    4 ar  
     7    3   35 1   
     8    4    5 ar  
     9    4   36 1   
    10    5    6 ar  
    11    5    7 1   
    12    6   37 1   
    13    7    8 1   
    14    7   38 1   
    15    7   39 1   
    16    8    9 1   
    17    8   12 1   
    18    8   40 1   
    19    9   10 1   
    20    9   11 2   
    21   10   14 1   
    22   10   41 1   
    23   10   63 1   
    24   12   42 1   
    25   12   43 1   
    26   12   64 1   
    27   13   17 1   
    28   13   18 1   
    29   13   44 1   
    30   13   45 1   
    31   14   15 1   
    32   14   29 1   
    33   14   46 1   
    34   15   16 1   
    35   15   47 1   
    36   15   48 1   
    37   16   17 1   
    38   16   49 1   
    39   16   50 1   
    40   17   51 1   
    41   17   52 1   
    42   18   19 1   
    43   18   53 1   
    44   18   65 1   
    45   19   20 1   
    46   19   21 2   
    47   20   22 1   
    48   22   23 1   
    49   22   54 1   
    50   22   55 1   
    51   23   24 ar  
    52   23   28 ar  
    53   24   25 ar  
    54   24   56 1   
    55   25   26 ar  
    56   25   57 1   
    57   26   27 ar  
    58   26   58 1   
    59   27   28 ar  
    60   27   59 1   
    61   28   60 1   
    62   29   30 2   
    63   29   31 1   
    64   31   32 1   
    65   31   61 1   
    66   31   66 1   
    67   32   62 1   
@<TRIPOS>SUBSTRUCTURE
     1 FBO         1 TEMP              0 ****  ****    0 ROOT
