@<TRIPOS>MOLECULE
FBO
   62    63     1     0     0
SMALL
bcc


@<TRIPOS>ATOM
      1 C1         -8.8020   -2.4630   -0.8890 ca        1 FBO     -0.125500
      2 C2         -8.6310   -3.7240   -0.3170 ca        1 FBO     -0.127000
      3 C3         -7.5700   -3.9490    0.5600 ca        1 FBO     -0.125500
      4 C4         -6.6810   -2.9190    0.8630 ca        1 FBO     -0.130000
      5 C5         -6.8460   -1.6520    0.2890 ca        1 FBO     -0.092300
      6 C6         -7.9140   -1.4310   -0.5880 ca        1 FBO     -0.130000
      7 C7         -5.9030   -0.5500    0.6170 c3        1 FBO     -0.069100
      8 C8         -4.6920   -0.5530   -0.3340 c3        1 FBO      0.103500
      9 C9         -3.8280    0.6850   -0.0120 c         1 FBO      0.661100
     10 N10        -2.6450    0.8320   -0.6970 n         1 FBO     -0.554900
     11 O11        -4.2120    1.5520    0.8010 o         1 FBO     -0.632100
     12 N12        -3.9040   -1.7690   -0.3350 n3        1 FBO     -0.908800
     13 C13         2.3570   -0.8130    0.4940 c3        1 FBO      0.078000
     14 C14        -1.7410    1.9260   -0.4410 c3        1 FBO      0.037700
     15 C15        -0.2900    1.6260   -0.8380 c3        1 FBO     -0.086400
     16 C16         0.3060    0.5090   -0.0110 c3        1 FBO     -0.079400
     17 C17         1.7820    0.3520   -0.3130 c3        1 FBO     -0.115400
     18 N18         3.7540   -1.0850    0.2720 n         1 FBO     -0.512900
     19 C20         4.6960   -0.4990    1.1030 c         1 FBO      0.722100
     20 O21         5.9660   -0.5050    0.5580 os        1 FBO     -0.445900
     21 O22         4.5410   -0.0530    2.2520 o         1 FBO     -0.581000
     22 C23         7.0070   -0.0570    1.4500 c3        1 FBO      0.196700
     23 C24         8.2970   -0.1310    0.7060 ca        1 FBO     -0.096300
     24 C25         9.2770    0.8400    0.9460 ca        1 FBO     -0.112000
     25 C26        10.5070    0.7660    0.2950 ca        1 FBO     -0.132000
     26 C27        10.7620   -0.2700   -0.6050 ca        1 FBO     -0.124000
     27 C28         9.7840   -1.2340   -0.8520 ca        1 FBO     -0.132000
     28 C29         8.5550   -1.1670   -0.1970 ca        1 FBO     -0.112000
     29 C30        -2.1970    3.1870   -1.2170 c         1 FBO      0.579100
     30 O31        -1.6930    3.5080   -2.3040 o         1 FBO     -0.566100
     31 N32        -3.1230    4.0290   -0.5490 n         1 FBO     -0.362400
     32 O33        -3.8050    4.8620   -1.3370 oh        1 FBO     -0.432100
     33 H1         -9.6400   -2.2810   -1.5780 ha        1 FBO      0.134500
     34 H2         -9.3320   -4.5360   -0.5540 ha        1 FBO      0.135000
     35 H3         -7.4360   -4.9410    1.0180 ha        1 FBO      0.134500
     36 H4         -5.8530   -3.0980    1.5650 ha        1 FBO      0.132000
     37 H6         -8.0560   -0.4360   -1.0360 ha        1 FBO      0.132000
     38 H7         -6.4170    0.4450    0.5310 hc        1 FBO      0.074200
     39 H7A        -5.5460   -0.6410    1.6770 hc        1 FBO      0.074200
     40 H8         -5.0800   -0.4050   -1.3890 h1        1 FBO      0.084700
     41 HN10       -2.3500    0.1320   -1.3390 hn        1 FBO      0.337500
     42 HN12       -3.5770   -1.9780    0.5890 hn        1 FBO      0.361300
     43 HN1A       -4.4660   -2.5340   -0.6580 hn        1 FBO      0.361300
     44 H13         2.2000   -0.6150    1.5940 h1        1 FBO      0.070200
     45 H13A        1.7990   -1.7560    0.2220 h1        1 FBO      0.070200
     46 H14        -1.7710    2.1580    0.6690 h1        1 FBO      0.090700
     47 H15        -0.2350    1.3780   -1.9310 hc        1 FBO      0.068700
     48 H15A        0.2980    2.5700   -0.6860 hc        1 FBO      0.068700
     49 H16         0.1680    0.7280    1.0810 hc        1 FBO      0.047700
     50 H16A       -0.2230   -0.4560   -0.2270 hc        1 FBO      0.047700
     51 H17         2.3230    1.3000   -0.0550 hc        1 FBO      0.050700
     52 H17A        1.9260    0.1710   -1.4100 hc        1 FBO      0.050700
     53 HN18        4.0350   -1.2160   -0.6760 hn        1 FBO      0.312500
     54 H23         6.7700    0.9900    1.7780 h1        1 FBO      0.064200
     55 H23A        7.0210   -0.7310    2.3490 h1        1 FBO      0.064200
     56 H25         9.0760    1.6610    1.6500 ha        1 FBO      0.138500
     57 H26        11.2760    1.5270    0.4890 ha        1 FBO      0.133000
     58 H27        11.7320   -0.3250   -1.1200 ha        1 FBO      0.132000
     59 H28         9.9820   -2.0490   -1.5630 ha        1 FBO      0.133000
     60 H29         7.7780   -1.9220   -0.3910 ha        1 FBO      0.138500
     61 HN32       -3.7860    3.5270    0.0390 hn        1 FBO      0.334500
     62 HO33       -3.1750    5.5670   -1.5890 ho        1 FBO      0.429000
@<TRIPOS>BOND
     1    1    2 ar  
     2    1    6 ar  
     3    1   33 1   
     4    2    3 ar  
     5    2   34 1   
     6    3    4 ar  
     7    3   35 1   
     8    4    5 ar  
     9    4   36 1   
    10    5    6 ar  
    11    5    7 1   
    12    6   37 1   
    13    7    8 1   
    14    7   38 1   
    15    7   39 1   
    16    8    9 1   
    17    8   12 1   
    18    8   40 1   
    19    9   10 1   
    20    9   11 2   
    21   10   14 1   
    22   10   41 1   
    23   12   42 1   
    24   12   43 1   
    25   13   17 1   
    26   13   18 1   
    27   13   44 1   
    28   13   45 1   
    29   14   15 1   
    30   14   29 1   
    31   14   46 1   
    32   15   16 1   
    33   15   47 1   
    34   15   48 1   
    35   16   17 1   
    36   16   49 1   
    37   16   50 1   
    38   17   51 1   
    39   17   52 1   
    40   18   19 1   
    41   18   53 1   
    42   19   20 1   
    43   19   21 2   
    44   20   22 1   
    45   22   23 1   
    46   22   54 1   
    47   22   55 1   
    48   23   24 ar  
    49   23   28 ar  
    50   24   25 ar  
    51   24   56 1   
    52   25   26 ar  
    53   25   57 1   
    54   26   27 ar  
    55   26   58 1   
    56   27   28 ar  
    57   27   59 1   
    58   28   60 1   
    59   29   30 2   
    60   29   31 1   
    61   31   32 1   
    62   31   61 1   
    63   32   62 1   
@<TRIPOS>SUBSTRUCTURE
     1 FBO         1 TEMP              0 ****  ****    0 ROOT
