@<TRIPOS>MOLECULE
FBO
   62    58     1     0     0
SMALL
bcc


@<TRIPOS>ATOM
      1 C1          7.9190   -1.8320   -5.7450 c1        1 FBO     -0.128833
      2 C2          9.0130   -1.1000   -5.2860 c1        1 FBO     -0.128833
      3 C3          8.9660   -0.4920   -4.0580 c1        1 FBO     -0.128833
      4 C4          7.8260   -0.6050   -3.2700 c1        1 FBO     -0.101000
      5 C5          6.7350   -1.3330   -3.7260 c1        1 FBO     -0.078000
      6 C6          6.7850   -1.9440   -4.9630 c1        1 FBO     -0.128833
      7 C7          5.5300   -1.6310   -2.7520 c3        1 FBO     -0.116000
      8 C8          4.4110   -0.7270   -3.0630 c3        1 FBO     -0.028000
      9 C9          3.4780   -0.6160   -1.8330 c2        1 FBO      0.253000
     10 N10         2.0420   -0.6620   -2.0070 n         1 FBO     -0.371000
     11 O11         3.9510   -0.5890   -0.7140 o         1 FBO     -0.395000
     12 N12         4.9270    0.5700   -3.3930 n3        1 FBO     -0.316000
     13 C13        -2.4860    2.1520    0.8660 c3        1 FBO     -0.038000
     14 C14         1.1900   -0.6000   -0.8740 c3        1 FBO      0.010000
     15 C15        -0.1740   -0.0860   -1.2920 c3        1 FBO     -0.164000
     16 C16        -0.5600    1.1070   -0.4120 c3        1 FBO     -0.155000
     17 C17        -2.0930    1.1850   -0.2990 c3        1 FBO     -0.194000
     18 N18        -3.9080    1.9810    1.1850 n         1 FBO     -0.322000
     19 C20        -4.3900    2.2770    2.5050 c2        1 FBO      0.376000
     20 O21        -5.6670    1.7810    2.9290 os        1 FBO     -0.284000
     21 O22        -3.6920    2.9130    3.2830 o         1 FBO     -0.392000
     22 C23        -6.0520    2.2070    4.2740 c3        1 FBO      0.039000
     23 C24        -7.1880    1.3540    4.7660 c2        1 FBO     -0.090000
     24 C25        -6.9260    0.1880    5.4480 c2        1 FBO     -0.119000
     25 C26        -7.9840   -0.6100    5.9020 c1        1 FBO     -0.131000
     26 C27        -9.2790   -0.2290    5.6660 c1        1 FBO     -0.128833
     27 C28        -9.5440    0.9540    4.9730 c1        1 FBO     -0.128833
     28 C29        -8.5020    1.7400    4.5260 c1        1 FBO     -0.104000
     29 C30         1.0490   -1.9800   -0.2730 c2        1 FBO      0.216000
     30 O31         0.9100   -2.9730   -1.0180 o         1 FBO     -0.326000
     31 N32         1.2110   -2.1650    1.1640 n         1 FBO     -0.201000
     32 O33         1.0380   -3.3900    1.7130 oh        1 FBO     -0.236000
     33 H1          7.9540   -2.2690   -6.6300 ha        1 FBO      0.131000
     34 H2          9.8270   -1.0190   -5.8470 ha        1 FBO      0.131000
     35 H3          9.7500    0.0320   -3.7300 ha        1 FBO      0.131000
     36 H4          7.7920   -0.1650   -2.3830 ha        1 FBO      0.140000
     37 H6          6.0260   -2.4530   -5.2830 ha        1 FBO      0.131000
     38 H7          5.8140   -1.4890   -1.8330 hc        1 FBO      0.098500
     39 H7A         5.2400   -2.5650   -2.8650 hc        1 FBO      0.098500
     40 H8          3.8980   -1.0870   -3.8370 h1        1 FBO      0.121000
     41 HN10        1.6870   -0.6540   -2.8400 hn        1 FBO      0.235000
     42 HN12        4.8300    1.1300   -2.6730 hn        1 FBO      0.159000
     43 HN1A        4.4750    0.9030   -4.0970 hn        1 FBO      0.159000
     44 H13        -2.3200    3.0970    0.5850 h1        1 FBO      0.110000
     45 H13A       -1.9370    1.9440    1.6710 h1        1 FBO      0.110000
     46 H14         1.5680   -0.0080   -0.2230 h1        1 FBO      0.134000
     47 H15        -0.1420    0.1970   -2.2250 hc        1 FBO      0.107500
     48 H15A       -0.8340   -0.7920   -1.1900 hc        1 FBO      0.107500
     49 H16        -0.1730    0.9960    0.4760 hc        1 FBO      0.086000
     50 H16A       -0.2230    1.9280   -0.8130 hc        1 FBO      0.086000
     51 H17        -2.4660    1.5240   -1.1420 hc        1 FBO      0.090500
     52 H17A       -2.4510    0.2970   -0.1190 hc        1 FBO      0.090500
     53 HN18       -4.4670    1.6320    0.5710 hn        1 FBO      0.226000
     54 H23        -5.3050    2.1140    4.8630 h1        1 FBO      0.104000
     55 H23A       -6.3290    3.1270    4.2510 h1        1 FBO      0.104000
     56 H25        -5.9990   -0.0830    5.6150 ha        1 FBO      0.134000
     57 H26        -7.8030   -1.4270    6.3790 ha        1 FBO      0.133000
     58 H27       -10.0260   -0.7920    5.9860 ha        1 FBO      0.131000
     59 H28       -10.4570    1.2220    4.8070 ha        1 FBO      0.131000
     60 H29        -8.6860    2.5580    4.0470 ha        1 FBO      0.143000
     61 HN32        1.3990   -1.4390    1.7050 hn        1 FBO      0.248000
     62 HO33        0.8170   -3.3040    2.5530 ho        1 FBO      0.228000
@<TRIPOS>BOND
     1    1    6 1   
     2    1   33 1   
     3    2    3 1   
     4    2   34 1   
     5    3   35 1   
     6    4    5 1   
     7    4   36 1   
     8    5    7 1   
     9    6   37 1   
    10    7    8 1   
    11    7   38 1   
    12    7   39 1   
    13    8    9 1   
    14    8   12 1   
    15    8   40 1   
    16    9   10 1   
    17    9   11 1   
    18   10   14 1   
    19   10   41 1   
    20   12   42 1   
    21   12   43 1   
    22   13   17 1   
    23   13   18 1   
    24   13   44 1   
    25   13   45 1   
    26   14   15 1   
    27   14   29 1   
    28   14   46 1   
    29   15   16 1   
    30   15   47 1   
    31   15   48 1   
    32   16   17 1   
    33   16   49 1   
    34   16   50 1   
    35   17   51 1   
    36   17   52 1   
    37   18   19 1   
    38   18   53 1   
    39   19   20 1   
    40   19   21 1   
    41   20   22 1   
    42   22   23 1   
    43   22   54 1   
    44   22   55 1   
    45   23   24 1   
    46   23   28 1   
    47   24   25 1   
    48   24   56 1   
    49   25   57 1   
    50   26   27 1   
    51   26   58 1   
    52   27   59 1   
    53   28   60 1   
    54   29   30 1   
    55   29   31 1   
    56   31   32 1   
    57   31   61 1   
    58   32   62 1   
@<TRIPOS>SUBSTRUCTURE
     1 FBO         1 TEMP              0 ****  ****    0 ROOT
