@<TRIPOS>MOLECULE
FBO
   66    67     1     0     0
SMALL
bcc


@<TRIPOS>ATOM
      1 C1          0.6160    0.2850   -0.2010 ca        1 FBO     -0.098000
      2 C2          1.6530   -0.6310   -0.0040 ca        1 FBO     -0.036000
      3 C3          1.7920   -1.2720    1.2320 ca        1 FBO     -0.098000
      4 C4          0.8960   -1.0040    2.2640 ca        1 FBO     -0.119000
      5 C5         -0.1500   -0.0840    2.0680 ca        1 FBO     -0.249300
      6 C6         -0.2840    0.5560    0.8270 ca        1 FBO     -0.119000
      7 C7         -1.1660    0.1110    3.1270 c3        1 FBO     -0.022100
      8 C8         -0.8410    1.3850    3.9720 c3        1 FBO      0.052500
      9 C9         -1.7090    1.3980    5.2340 c         1 FBO      0.525100
     10 N10        -3.2110    1.4490    5.0180 n4        1 FBO     -0.685800
     11 O11        -1.3240    1.3280    6.3890 o         1 FBO     -0.391100
     12 N12         0.6160    1.4480    4.3090 n4        1 FBO     -0.843600
     13 C13        -7.3860    5.1110    5.0740 c3        1 FBO      0.106800
     14 C14        -4.0490    1.4990    6.2830 c3        1 FBO      0.092500
     15 C15        -5.5160    1.8750    5.9840 c3        1 FBO     -0.117400
     16 C16        -5.7090    3.3220    5.5600 c3        1 FBO     -0.086400
     17 C17        -7.1950    3.6590    5.5100 c3        1 FBO     -0.106400
     18 N18        -8.8090    5.5300    4.9680 n4        1 FBO     -0.666800
     19 C20        -8.9300    6.9030    4.2830 c         1 FBO      0.644100
     20 O21        -9.8420    7.6240    4.9080 os        1 FBO     -0.405900
     21 O22        -8.2000    7.1600    3.3400 o         1 FBO     -0.428000
     22 C23       -10.2990    8.9050    4.2600 c3        1 FBO      0.237700
     23 C24       -11.3540    8.6270    3.2750 ca        1 FBO     -0.215300
     24 C25       -12.6800    8.4460    3.6980 ca        1 FBO     -0.084500
     25 C26       -13.6950    8.2790    2.7600 ca        1 FBO     -0.129000
     26 C27       -13.3970    8.2960    1.3950 ca        1 FBO     -0.058000
     27 C28       -12.0770    8.4720    0.9690 ca        1 FBO     -0.129000
     28 C29       -11.0580    8.6370    1.9020 ca        1 FBO     -0.084500
     29 C30        -4.0270    0.1300    6.9800 c         1 FBO      0.536100
     30 O31        -3.7530   -0.9320    6.4490 o         1 FBO     -0.352100
     31 N32        -4.3760    0.0520    8.4610 n4        1 FBO     -0.430300
     32 O33        -4.6280    1.2990    8.9150 oh        1 FBO     -0.388300
     33 H1          0.4990    0.7810   -1.1830 ha        1 FBO      0.190000
     34 H2          2.3560   -0.8600   -0.8280 ha        1 FBO      0.199000
     35 H3          2.6020   -2.0100    1.3810 ha        1 FBO      0.190000
     36 H4          0.9810   -1.5620    3.2090 ha        1 FBO      0.134500
     37 H6         -1.1160    1.2540    0.6470 ha        1 FBO      0.134500
     38 H7         -2.1750    0.2710    2.6610 hc        1 FBO      0.087200
     39 H7A        -1.2070   -0.7870    3.8000 hc        1 FBO      0.087200
     40 H8         -1.0740    2.3000    3.3390 hx        1 FBO      0.162700
     41 HN10       -3.4430    2.2950    4.4700 hn        1 FBO      0.497300
     42 HN12        0.8520    0.8270    5.0960 hn        1 FBO      0.501800
     43 HN1A        1.1480    1.1170    3.4650 hn        1 FBO      0.501800
     44 H13        -6.8860    5.8060    5.8110 hx        1 FBO      0.120700
     45 H13A       -6.9140    5.2750    4.0580 hx        1 FBO      0.120700
     46 H14        -3.5850    2.2800    6.9700 hx        1 FBO      0.179700
     47 H15        -5.9510    1.1850    5.2100 hc        1 FBO      0.112200
     48 H15A       -6.0890    1.7110    6.9430 hc        1 FBO      0.112200
     49 H16        -5.1990    4.0090    6.2870 hc        1 FBO      0.066200
     50 H16A       -5.2630    3.4980    4.5460 hc        1 FBO      0.066200
     51 H17        -7.6510    3.4980    6.5240 hc        1 FBO      0.083700
     52 H17A       -7.7120    2.9670    4.7900 hc        1 FBO      0.083700
     53 HN18       -9.3420    4.8600    4.4000 hn        1 FBO      0.471300
     54 H23        -9.3930    9.4000    3.8270 h1        1 FBO      0.110700
     55 H23A      -10.6740    9.4280    5.1850 h1        1 FBO      0.110700
     56 H25       -12.9220    8.4590    4.7730 ha        1 FBO      0.141500
     57 H26       -14.7390    8.1550    3.0940 ha        1 FBO      0.166000
     58 H27       -14.2060    8.1840    0.6530 ha        1 FBO      0.170000
     59 H28       -11.8480    8.5020   -0.1090 ha        1 FBO      0.166000
     60 H29       -10.0230    8.8010    1.5630 ha        1 FBO      0.141500
     61 HN32       -5.2160   -0.5660    8.5800 hn        1 FBO      0.517800
     62 HO33       -4.7600    1.2750    9.9020 ho        1 FBO      0.532000
     63 H102       -3.4810    0.6200    4.4570 hn        1 FBO      0.497300
     64 H123        0.9100    2.4070    4.5370 hn        1 FBO      0.501800
     65 H182       -9.2480    5.5880    5.8960 hn        1 FBO      0.471300
     66 H322       -3.5720   -0.3870    8.9720 hn        1 FBO      0.517800
@<TRIPOS>BOND
     1    1    2 ar  
     2    1    6 ar  
     3    1   33 1   
     4    2    3 ar  
     5    2   34 1   
     6    3    4 ar  
     7    3   35 1   
     8    4    5 ar  
     9    4   36 1   
    10    5    6 ar  
    11    5    7 1   
    12    6   37 1   
    13    7    8 1   
    14    7   38 1   
    15    7   39 1   
    16    8    9 1   
    17    8   12 1   
    18    8   40 1   
    19    9   10 1   
    20    9   11 2   
    21   10   14 1   
    22   10   41 1   
    23   10   63 1   
    24   12   42 1   
    25   12   43 1   
    26   12   64 1   
    27   13   17 1   
    28   13   18 1   
    29   13   44 1   
    30   13   45 1   
    31   14   15 1   
    32   14   29 1   
    33   14   46 1   
    34   15   16 1   
    35   15   47 1   
    36   15   48 1   
    37   16   17 1   
    38   16   49 1   
    39   16   50 1   
    40   17   51 1   
    41   17   52 1   
    42   18   19 1   
    43   18   53 1   
    44   18   65 1   
    45   19   20 1   
    46   19   21 2   
    47   20   22 1   
    48   22   23 1   
    49   22   54 1   
    50   22   55 1   
    51   23   24 ar  
    52   23   28 ar  
    53   24   25 ar  
    54   24   56 1   
    55   25   26 ar  
    56   25   57 1   
    57   26   27 ar  
    58   26   58 1   
    59   27   28 ar  
    60   27   59 1   
    61   28   60 1   
    62   29   30 2   
    63   29   31 1   
    64   31   32 1   
    65   31   61 1   
    66   31   66 1   
    67   32   62 1   
@<TRIPOS>SUBSTRUCTURE
     1 FBO         1 TEMP              0 ****  ****    0 ROOT
