@<TRIPOS>MOLECULE
FBO
   66    67     1     0     0
SMALL
bcc


@<TRIPOS>ATOM
      1 C1          0.6060    0.2560   -0.1960 ca        1 FBO     -0.098000
      2 C2          1.6470   -0.6550    0.0070 ca        1 FBO     -0.036000
      3 C3          1.7920   -1.2840    1.2490 ca        1 FBO     -0.098000
      4 C4          0.9000   -1.0080    2.2810 ca        1 FBO     -0.119000
      5 C5         -0.1490   -0.0920    2.0810 ca        1 FBO     -0.249300
      6 C6         -0.2910    0.5350    0.8340 ca        1 FBO     -0.119000
      7 C7         -1.1620    0.1110    3.1420 c3        1 FBO     -0.022100
      8 C8         -0.8370    1.3940    3.9730 c3        1 FBO      0.052500
      9 C9         -1.6990    1.4180    5.2380 c         1 FBO      0.525100
     10 N10        -3.2020    1.4640    5.0280 ny        1 FBO     -0.685800
     11 O11        -1.3090    1.3600    6.3920 o         1 FBO     -0.391100
     12 N12         0.6220    1.4640    4.3030 nz        1 FBO     -0.843600
     13 C13        -7.3840    5.1170    5.0630 c3        1 FBO      0.106800
     14 C14        -4.0350    1.5240    6.2950 c3        1 FBO      0.092500
     15 C15        -5.5040    1.8940    6.0000 c3        1 FBO     -0.117400
     16 C16        -5.7010    3.3360    5.5610 c3        1 FBO     -0.086400
     17 C17        -7.1880    3.6700    5.5150 c3        1 FBO     -0.106400
     18 N18        -8.8090    5.5320    4.9610 ny        1 FBO     -0.666800
     19 C20        -8.9350    6.8960    4.2590 c         1 FBO      0.644100
     20 O21        -9.8440    7.6250    4.8820 os        1 FBO     -0.405900
     21 O22        -8.2130    7.1420    3.3080 o         1 FBO     -0.428000
     22 C23       -10.3070    8.8970    4.2200 c3        1 FBO      0.237700
     23 C24       -11.3690    8.6050    3.2470 ca        1 FBO     -0.215300
     24 C25       -12.6910    8.4280    3.6830 ca        1 FBO     -0.084500
     25 C26       -13.7140    8.2480    2.7550 ca        1 FBO     -0.129000
     26 C27       -13.4260    8.2480    1.3880 ca        1 FBO     -0.058000
     27 C28       -12.1100    8.4190    0.9490 ca        1 FBO     -0.129000
     28 C29       -11.0840    8.5970    1.8720 ca        1 FBO     -0.084500
     29 C30        -4.0070    0.1620    7.0060 c         1 FBO      0.536100
     30 O31        -3.7330   -0.9050    6.4840 o         1 FBO     -0.352100
     31 N32        -4.3500    0.0970    8.4900 ny        1 FBO     -0.430300
     32 O33        -4.6020    1.3490    8.9320 oh        1 FBO     -0.388300
     33 H1          0.4840    0.7410   -1.1810 ha        1 FBO      0.190000
     34 H2          2.3460   -0.8910   -0.8180 ha        1 FBO      0.199000
     35 H3          2.6050   -2.0180    1.4010 ha        1 FBO      0.190000
     36 H4          0.9900   -1.5560    3.2320 ha        1 FBO      0.134500
     37 H6         -1.1250    1.2290    0.6500 ha        1 FBO      0.134500
     38 H7         -2.1730    0.2640    2.6790 hc        1 FBO      0.087200
     39 H7A        -1.1980   -0.7800    3.8240 hc        1 FBO      0.087200
     40 H8         -1.0740    2.3030    3.3310 hx        1 FBO      0.162700
     41 HN10       -3.4730    0.6280    4.4760 hn        1 FBO      0.497300
     42 HN12        0.8630    0.8520    5.0950 hn        1 FBO      0.501800
     43 HN1A        1.1520    1.1260    3.4600 hn        1 FBO      0.501800
     44 H13        -6.8810    5.8210    5.7890 hx        1 FBO      0.120700
     45 H13A       -6.9180    5.2690    4.0430 hx        1 FBO      0.120700
     46 H14        -3.5690    2.3120    6.9730 hx        1 FBO      0.179700
     47 H15        -6.0720    1.7390    6.9620 hc        1 FBO      0.112200
     48 H15A       -5.9410    1.1950    5.2350 hc        1 FBO      0.112200
     49 H16        -5.2610    3.5020    4.5430 hc        1 FBO      0.066200
     50 H16A       -5.1880    4.0320    6.2790 hc        1 FBO      0.066200
     51 H17        -7.7080    2.9690    4.8060 hc        1 FBO      0.083700
     52 H17A       -7.6380    3.5210    6.5330 hc        1 FBO      0.083700
     53 HN18       -9.2420    5.6010    5.8910 hn        1 FBO      0.471300
     54 H23       -10.6750    9.4310    5.1410 h1        1 FBO      0.110700
     55 H23A       -9.4050    9.3860    3.7740 h1        1 FBO      0.110700
     56 H25       -12.9250    8.4550    4.7590 ha        1 FBO      0.141500
     57 H26       -14.7550    8.1280    3.0990 ha        1 FBO      0.166000
     58 H27       -14.2410    8.1260    0.6530 ha        1 FBO      0.170000
     59 H28       -11.8890    8.4350   -0.1310 ha        1 FBO      0.166000
     60 H29       -10.0520    8.7570    1.5230 ha        1 FBO      0.141500
     61 HN32       -3.5430   -0.3350    9.0010 hn        1 FBO      0.517800
     62 HO33       -4.7300    1.3330    9.9200 ho        1 FBO      0.532000
     63 H102       -3.4380    2.3030    4.4730 hn        1 FBO      0.497300
     64 H123        0.9140    2.4260    4.5200 hn        1 FBO      0.501800
     65 H182       -9.3430    4.8540    4.4040 hn        1 FBO      0.471300
     66 H322       -5.1880   -0.5200    8.6180 hn        1 FBO      0.517800
@<TRIPOS>BOND
     1    1    2 ar  
     2    1    6 ar  
     3    1   33 1   
     4    2    3 ar  
     5    2   34 1   
     6    3    4 ar  
     7    3   35 1   
     8    4    5 ar  
     9    4   36 1   
    10    5    6 ar  
    11    5    7 1   
    12    6   37 1   
    13    7    8 1   
    14    7   38 1   
    15    7   39 1   
    16    8    9 1   
    17    8   12 1   
    18    8   40 1   
    19    9   10 1   
    20    9   11 2   
    21   10   14 1   
    22   10   41 1   
    23   10   63 1   
    24   12   42 1   
    25   12   43 1   
    26   12   64 1   
    27   13   17 1   
    28   13   18 1   
    29   13   44 1   
    30   13   45 1   
    31   14   15 1   
    32   14   29 1   
    33   14   46 1   
    34   15   16 1   
    35   15   47 1   
    36   15   48 1   
    37   16   17 1   
    38   16   49 1   
    39   16   50 1   
    40   17   51 1   
    41   17   52 1   
    42   18   19 1   
    43   18   53 1   
    44   18   65 1   
    45   19   20 1   
    46   19   21 2   
    47   20   22 1   
    48   22   23 1   
    49   22   54 1   
    50   22   55 1   
    51   23   24 ar  
    52   23   28 ar  
    53   24   25 ar  
    54   24   56 1   
    55   25   26 ar  
    56   25   57 1   
    57   26   27 ar  
    58   26   58 1   
    59   27   28 ar  
    60   27   59 1   
    61   28   60 1   
    62   29   30 2   
    63   29   31 1   
    64   31   32 1   
    65   31   61 1   
    66   31   66 1   
    67   32   62 1   
@<TRIPOS>SUBSTRUCTURE
     1 FBO         1 TEMP              0 ****  ****    0 ROOT
