@<TRIPOS>MOLECULE
FBQ
   47    43     1     0     0
SMALL
bcc


@<TRIPOS>ATOM
      1 N1          1.7790   -1.6550   -3.6180 n1        1 FBQ     -0.187000
      2 C2          3.1640   -1.6950   -3.5970 c1        1 FBQ      0.067000
      3 C3          3.8310   -1.7590   -2.3960 c1        1 FBQ     -0.161000
      4 C4          3.1160   -1.7820   -1.2070 c1        1 FBQ      0.173000
      5 C5          1.7490   -1.7420   -1.2310 c1        1 FBQ     -0.237000
      6 C6          1.0760   -1.6780   -2.4480 c1        1 FBQ      0.077000
      7 C7          5.2380   -1.7990   -2.3750 c2        1 FBQ      0.115000
      8 C8          5.9520   -1.7740   -3.5660 c1        1 FBQ     -0.184000
      9 C9          5.2770   -1.7100   -4.7820 c1        1 FBQ     -0.093000
     10 C10         3.8890   -1.6710   -4.8040 c2        1 FBQ     -0.125000
     11 N11         3.9520   -1.8640   -0.0640 n3        1 FBQ     -0.353000
     12 C12         0.8420   -1.8770   -0.0250 c3        1 FBQ     -0.207000
     13 S13         0.3790   -0.2630    0.5530 ss        1 FBQ      0.047000
     14 C14        -0.8720   -0.4180    1.8030 c3        1 FBQ     -0.232000
     15 C15        -1.4670    0.9450    2.0940 c2        1 FBQ     -0.075000
     16 C16        -2.7660    1.0480    2.5690 c2        1 FBQ     -0.054000
     17 C17        -3.3170    2.2960    2.8160 c1        1 FBQ     -0.136000
     18 C18        -2.5700    3.4410    2.5890 c1        1 FBQ     -0.116000
     19 C19        -1.2710    3.3380    2.1130 c1        1 FBQ     -0.116000
     20 C20        -0.7200    2.0900    1.8660 c1        1 FBQ     -0.091000
     21 C21        -4.7230    2.4070    3.3690 c3        1 FBQ      0.230000
     22 C22        -5.6870    2.7030    2.2410 c3        1 FBQ      0.400000
     23 F23        -6.8020    3.2530    2.7390 f         1 FBQ     -0.155667
     24 F24        -5.1160    3.5550    1.3790 f         1 FBQ     -0.155667
     25 F25        -5.9950    1.5650    1.6060 f         1 FBQ     -0.155667
     26 O26        -5.0810    1.1940    3.9850 oh        1 FBQ     -0.334000
     27 F27         6.2860   -1.9000   -1.5470 f         1 FBQ     -0.115000
     28 C28        -0.2260   -1.8320   -3.2040 c3        1 FBQ     -0.183000
     29 OS6        -4.7740    3.4470    4.3160 oh        1 FBQ     -0.334000
     30 HC8         6.9280   -1.8020   -3.5510 ha        1 FBQ      0.150000
     31 HC9         5.7790   -1.6930   -5.6190 ha        1 FBQ      0.141000
     32 HC01        3.4150   -1.6260   -5.6570 ha        1 FBQ      0.156000
     33 H111        3.7110   -1.4410    0.7100 hn        1 FBQ      0.226000
     34 H112        4.7350   -2.3350   -0.1030 hn        1 FBQ      0.226000
     35 H121        1.3140   -2.3550    0.6870 h1        1 FBQ      0.106000
     36 H122        0.0380   -2.3770   -0.2750 h1        1 FBQ      0.106000
     37 H141       -0.4740   -0.7800    2.6200 h1        1 FBQ      0.107500
     38 H142       -1.5750   -1.0200    1.4880 h1        1 FBQ      0.107500
     39 HC61       -3.2920    0.2410    2.7290 ha        1 FBQ      0.164000
     40 HC81       -2.9580    4.3200    2.7630 ha        1 FBQ      0.147000
     41 HC91       -0.7450    4.1440    1.9530 ha        1 FBQ      0.147000
     42 HC02        0.1940    2.0180    1.5310 ha        1 FBQ      0.139000
     43 HO62       -5.7700    1.3310    4.5310 ho        1 FBQ      0.237500
     44 H281       -0.1690   -2.6100   -3.7970 hc        1 FBQ      0.098000
     45 H282       -0.3910   -1.0260   -3.7380 hc        1 FBQ      0.098000
     46 H283       -0.9600   -1.9580   -2.5680 hc        1 FBQ      0.098000
     47 H6SO       -4.9240    3.1060    5.1230 ho        1 FBQ      0.237500
@<TRIPOS>BOND
     1    1    6 1   
     2    2    3 1   
     3    2   10 1   
     4    3    7 1   
     5    4    5 1   
     6    4   11 1   
     7    5   12 1   
     8    6   28 1   
     9    7    8 1   
    10    7   27 1   
    11    8   30 1   
    12    9   10 1   
    13    9   31 1   
    14   10   32 1   
    15   11   33 1   
    16   11   34 1   
    17   12   13 1   
    18   12   35 1   
    19   12   36 1   
    20   13   14 1   
    21   14   15 1   
    22   14   37 1   
    23   14   38 1   
    24   15   16 1   
    25   15   20 1   
    26   16   17 1   
    27   16   39 1   
    28   17   21 1   
    29   18   19 1   
    30   18   40 1   
    31   19   41 1   
    32   20   42 1   
    33   21   22 1   
    34   21   26 1   
    35   21   29 1   
    36   22   23 1   
    37   22   24 1   
    38   22   25 1   
    39   26   43 1   
    40   28   44 1   
    41   28   45 1   
    42   28   46 1   
    43   29   47 1   
@<TRIPOS>SUBSTRUCTURE
     1 FBQ         1 TEMP              0 ****  ****    0 ROOT
