@<TRIPOS>MOLECULE
FBQ
   47    49     1     0     0
SMALL
bcc


@<TRIPOS>ATOM
      1 N1          1.6240    0.5380    5.2100 nb        1 FBQ     -0.713000
      2 C2          0.2710    0.5150    5.4520 ca        1 FBQ      0.460600
      3 C3         -0.6810    0.0250    4.5050 ca        1 FBQ     -0.227300
      4 C4         -0.1670   -0.4860    3.2480 ca        1 FBQ      0.256600
      5 C5          1.2320   -0.4980    3.0480 ca        1 FBQ     -0.311600
      6 C6          2.0820    0.0570    4.0580 ca        1 FBQ      0.499600
      7 C7         -2.0660    0.0810    4.8730 ca        1 FBQ      0.150900
      8 C8         -2.4690    0.5770    6.1060 ca        1 FBQ     -0.184000
      9 C9         -1.5120    1.0450    7.0270 ca        1 FBQ     -0.093000
     10 C10        -0.1780    1.0200    6.7180 ca        1 FBQ     -0.190300
     11 N11        -1.0000   -1.0040    2.2810 nh        1 FBQ     -0.845200
     12 C12         1.8150   -1.1060    1.8360 c3        1 FBQ      0.063000
     13 S13         1.4470   -0.0640    0.4350 ss        1 FBQ     -0.324200
     14 C14         2.1820   -0.9940   -0.8900 c3        1 FBQ      0.037000
     15 C15         1.8570   -0.3130   -2.1620 ca        1 FBQ     -0.078300
     16 C16         0.8060   -0.7770   -2.9610 ca        1 FBQ     -0.086000
     17 C17         0.5050   -0.1380   -4.1660 ca        1 FBQ     -0.130300
     18 C18         1.2650    0.9600   -4.5850 ca        1 FBQ     -0.068000
     19 C19         2.3140    1.4210   -3.7920 ca        1 FBQ     -0.132000
     20 C20         2.6110    0.7910   -2.5850 ca        1 FBQ     -0.088000
     21 C21        -0.6110   -0.6300   -5.0400 c3        1 FBQ      0.403900
     22 C22        -1.8880    0.3450   -4.9820 c3        1 FBQ      0.558900
     23 F23        -2.7550    0.1090   -6.0170 f         1 FBQ     -0.233633
     24 F24        -2.6350    0.1690   -3.8460 f         1 FBQ     -0.233633
     25 F25        -1.6150    1.6810   -5.0430 f         1 FBQ     -0.233633
     26 O26        -0.1850   -0.7120   -6.3710 oh        1 FBQ     -0.585300
     27 F27        -3.0380   -0.3510    4.0290 f         1 FBQ     -0.149900
     28 C28         3.5620    0.1090    3.8180 c3        1 FBQ     -0.158400
     29 OS6        -1.0710   -1.9310   -4.7700 oh        1 FBQ     -0.585300
     30 HC8        -3.5380    0.6040    6.3610 ha        1 FBQ      0.151000
     31 HC9        -1.8560    1.4320    7.9980 ha        1 FBQ      0.141000
     32 HC01        0.5720    1.3880    7.4360 ha        1 FBQ      0.156000
     33 H111       -0.6440   -1.0300    1.3490 hn        1 FBQ      0.431300
     34 H112       -1.9770   -0.8460    2.3660 hn        1 FBQ      0.431300
     35 H121        2.9220   -1.2320    1.9180 h1        1 FBQ      0.067200
     36 H122        1.3910   -2.1280    1.6570 h1        1 FBQ      0.067200
     37 H141        3.2900   -1.0420   -0.7410 h1        1 FBQ      0.068700
     38 H142        1.7940   -2.0420   -0.8810 h1        1 FBQ      0.068700
     39 HC61        0.2280   -1.6560   -2.6360 ha        1 FBQ      0.134000
     40 HC81        1.0250    1.4510   -5.5420 ha        1 FBQ      0.156000
     41 HC91        2.9100    2.2850   -4.1210 ha        1 FBQ      0.144000
     42 HC02        3.4370    1.1600   -1.9580 ha        1 FBQ      0.145000
     43 HO62       -0.7770   -1.3240   -6.8370 ho        1 FBQ      0.442000
     44 H281        3.9710   -0.9310    3.7920 hc        1 FBQ      0.058033
     45 H282        3.7630    0.6130    2.8410 hc        1 FBQ      0.058033
     46 H283        4.0960    0.6730    4.6220 hc        1 FBQ      0.058033
     47 H6SO       -1.4640   -1.9470   -3.8870 ho        1 FBQ      0.442000
@<TRIPOS>BOND
     1    1    2 ar  
     2    1    6 ar  
     3    2    3 ar  
     4    2   10 ar  
     5    3    4 ar  
     6    3    7 ar  
     7    4    5 ar  
     8    4   11 1   
     9    5    6 ar  
    10    5   12 1   
    11    6   28 1   
    12    7    8 ar  
    13    7   27 1   
    14    8    9 ar  
    15    8   30 1   
    16    9   10 ar  
    17    9   31 1   
    18   10   32 1   
    19   11   33 1   
    20   11   34 1   
    21   12   13 1   
    22   12   35 1   
    23   12   36 1   
    24   13   14 1   
    25   14   15 1   
    26   14   37 1   
    27   14   38 1   
    28   15   16 ar  
    29   15   20 ar  
    30   16   17 ar  
    31   16   39 1   
    32   17   18 ar  
    33   17   21 1   
    34   18   19 ar  
    35   18   40 1   
    36   19   20 ar  
    37   19   41 1   
    38   20   42 1   
    39   21   22 1   
    40   21   26 1   
    41   21   29 1   
    42   22   23 1   
    43   22   24 1   
    44   22   25 1   
    45   26   43 1   
    46   28   44 1   
    47   28   45 1   
    48   28   46 1   
    49   29   47 1   
@<TRIPOS>SUBSTRUCTURE
     1 FBQ         1 TEMP              0 ****  ****    0 ROOT
