@<TRIPOS>MOLECULE
FBQ
   48    50     1     0     0
SMALL
bcc


@<TRIPOS>ATOM
      1 N1          0.7340   -0.8440    1.0170 nb        1 FBQ     -0.615000
      2 C2          1.6380    0.1930    0.9870 ca        1 FBQ      0.436600
      3 C3          1.5080    1.3510    1.8220 ca        1 FBQ     -0.168300
      4 C4          0.3730    1.3760    2.7000 ca        1 FBQ      0.025600
      5 C5         -0.5240    0.3100    2.7470 ca        1 FBQ     -0.141600
      6 C6         -0.2960   -0.8030    1.8490 ca        1 FBQ      0.464600
      7 C7          2.5140    2.3670    1.7080 ca        1 FBQ      0.094900
      8 C8          3.5720    2.2370    0.8210 ca        1 FBQ     -0.106000
      9 C9          3.6770    1.0930    0.0050 ca        1 FBQ     -0.086000
     10 C10         2.7420    0.0920    0.0780 ca        1 FBQ     -0.151300
     11 N11         0.1360    2.5340    3.5620 n4        1 FBQ     -0.755000
     12 C12        -1.6610    0.2830    3.6940 c3        1 FBQ     -0.008000
     13 S13        -2.7440    1.6530    3.3330 ss        1 FBQ     -0.289200
     14 C14        -3.7030    1.8370    4.8270 c3        1 FBQ      0.035000
     15 C15        -3.1840    2.9400    5.6620 ca        1 FBQ     -0.111300
     16 C16        -2.0650    2.7390    6.4760 ca        1 FBQ     -0.135000
     17 C17        -1.5370    3.7990    7.2200 ca        1 FBQ     -0.149300
     18 C18        -2.1550    5.0520    7.2000 ca        1 FBQ     -0.054000
     19 C19        -3.2960    5.2410    6.4180 ca        1 FBQ     -0.122000
     20 C20        -3.8040    4.1980    5.6460 ca        1 FBQ     -0.083000
     21 C21        -0.2900    3.5560    8.0200 c3        1 FBQ      0.400900
     22 C22         0.9490    3.2470    7.0560 c3        1 FBQ      0.599900
     23 F23         2.1560    3.3480    7.6780 f         1 FBQ     -0.237967
     24 F24         0.9180    1.9950    6.4880 f         1 FBQ     -0.237967
     25 F25         1.0310    4.0640    5.9550 f         1 FBQ     -0.237967
     26 O26         0.0150    4.6590    8.8240 oh        1 FBQ     -0.599800
     27 F27         2.4520    3.4850    2.4800 f         1 FBQ     -0.150900
     28 C28        -1.2580   -1.9520    1.8530 c3        1 FBQ     -0.168400
     29 OS6        -0.3360    2.4410    8.8740 oh        1 FBQ     -0.599800
     30 HC8         4.3330    3.0330    0.7560 ha        1 FBQ      0.177000
     31 HC9         4.5270    1.0140   -0.6940 ha        1 FBQ      0.172000
     32 HC01        2.8240   -0.8060   -0.5590 ha        1 FBQ      0.182000
     33 H111       -0.9060    2.6720    3.6760 hn        1 FBQ      0.474133
     34 H112        0.5720    2.3730    4.4810 hn        1 FBQ      0.474133
     35 H121       -1.2900    0.3490    4.7510 h1        1 FBQ      0.101200
     36 H122       -2.2460   -0.6700    3.6210 h1        1 FBQ      0.101200
     37 H141       -4.7470    2.0530    4.4750 h1        1 FBQ      0.107200
     38 H142       -3.7260    0.8730    5.3940 h1        1 FBQ      0.107200
     39 HC61       -1.5950    1.7440    6.5500 ha        1 FBQ      0.141000
     40 HC81       -1.7420    5.8790    7.8030 ha        1 FBQ      0.178000
     41 HC91       -3.7960    6.2230    6.4110 ha        1 FBQ      0.164000
     42 HC02       -4.7000    4.3610    5.0260 ha        1 FBQ      0.156000
     43 HO62        0.7230    4.4000    9.4370 ho        1 FBQ      0.454500
     44 H281       -0.9900   -2.7210    1.0840 hc        1 FBQ      0.077033
     45 H282       -1.2480   -2.4470    2.8560 hc        1 FBQ      0.077033
     46 H283       -2.2890   -1.5800    1.6270 hc        1 FBQ      0.077033
     47 H6SO       -1.1610    2.4820    9.3790 ho        1 FBQ      0.454500
     48 H113        0.5510    3.3810    3.1510 hn        1 FBQ      0.474133
@<TRIPOS>BOND
     1    1    2 ar  
     2    1    6 ar  
     3    2    3 ar  
     4    2   10 ar  
     5    3    4 ar  
     6    3    7 ar  
     7    4    5 ar  
     8    4   11 1   
     9    5    6 ar  
    10    5   12 1   
    11    6   28 1   
    12    7    8 ar  
    13    7   27 1   
    14    8    9 ar  
    15    8   30 1   
    16    9   10 ar  
    17    9   31 1   
    18   10   32 1   
    19   11   33 1   
    20   11   34 1   
    21   11   48 1   
    22   12   13 1   
    23   12   35 1   
    24   12   36 1   
    25   13   14 1   
    26   14   15 1   
    27   14   37 1   
    28   14   38 1   
    29   15   16 ar  
    30   15   20 ar  
    31   16   17 ar  
    32   16   39 1   
    33   17   18 ar  
    34   17   21 1   
    35   18   19 ar  
    36   18   40 1   
    37   19   20 ar  
    38   19   41 1   
    39   20   42 1   
    40   21   22 1   
    41   21   26 1   
    42   21   29 1   
    43   22   23 1   
    44   22   24 1   
    45   22   25 1   
    46   26   43 1   
    47   28   44 1   
    48   28   45 1   
    49   28   46 1   
    50   29   47 1   
@<TRIPOS>SUBSTRUCTURE
     1 FBQ         1 TEMP              0 ****  ****    0 ROOT
