@<TRIPOS>MOLECULE
FBQ
   47    49     1     0     0
SMALL
bcc


@<TRIPOS>ATOM
      1 N1          0.0110   -0.6200    0.0230 nb        1 FBQ     -0.715000
      2 C2          1.3390   -0.2730    0.0960 ca        1 FBQ      0.461600
      3 C3          1.9420    0.2580    1.2790 ca        1 FBQ     -0.228300
      4 C4          1.0960    0.4060    2.4480 ca        1 FBQ      0.259600
      5 C5         -0.2530   -0.0090    2.3600 ca        1 FBQ     -0.314600
      6 C6         -0.7500   -0.4890    1.1060 ca        1 FBQ      0.499600
      7 C7          3.3330    0.6010    1.2130 ca        1 FBQ      0.151900
      8 C8          4.0710    0.4150    0.0510 ca        1 FBQ     -0.185000
      9 C9          3.4580   -0.1160   -1.0980 ca        1 FBQ     -0.092000
     10 C10         2.1310   -0.4530   -1.0870 ca        1 FBQ     -0.191300
     11 N11         1.5860    0.8860    3.6410 nv        1 FBQ     -0.844200
     12 C12        -1.1280    0.0160    3.5470 c3        1 FBQ      0.063000
     13 S13        -1.4930    1.7150    3.9530 ss        1 FBQ     -0.321200
     14 C14        -2.4450    1.5240    5.4420 c3        1 FBQ      0.036000
     15 C15        -2.6030    2.8590    6.0580 ca        1 FBQ     -0.082300
     16 C16        -1.8230    3.2190    7.1650 ca        1 FBQ     -0.059000
     17 C17        -1.9800    4.4780    7.7480 ca        1 FBQ     -0.144300
     18 C18        -2.9130    5.3850    7.2310 ca        1 FBQ     -0.099000
     19 C19        -3.6880    5.0260    6.1310 ca        1 FBQ     -0.132000
     20 C20        -3.5380    3.7690    5.5470 ca        1 FBQ     -0.088000
     21 C21        -1.1630    4.8780    8.9400 c3        1 FBQ      0.381900
     22 C22         0.0320    5.8650    8.5570 c3        1 FBQ      0.612900
     23 F23         0.9070    6.0330    9.6000 f         1 FBQ     -0.227633
     24 F24         0.8050    5.4290    7.5180 f         1 FBQ     -0.227633
     25 F25        -0.3740    7.1230    8.2120 f         1 FBQ     -0.227633
     26 O26        -1.8750    5.5670    9.9410 oh        1 FBQ     -0.607300
     27 F27         3.9820    1.1220    2.2860 f         1 FBQ     -0.148900
     28 C28        -2.1980   -0.8650    0.9910 c3        1 FBQ     -0.158400
     29 OS6        -0.6380    3.7430    9.5820 oh        1 FBQ     -0.607300
     30 HC8         5.1370    0.6860    0.0330 ha        1 FBQ      0.151000
     31 HC9         4.0650   -0.2560   -2.0070 ha        1 FBQ      0.141000
     32 HC01        1.6490   -0.8680   -1.9870 ha        1 FBQ      0.156000
     33 H111        0.9210    1.2610    4.2850 hn        1 FBQ      0.433800
     34 H112        2.4840    1.3100    3.6490 hn        1 FBQ      0.433800
     35 H121       -0.6300   -0.4740    4.4230 h1        1 FBQ      0.066700
     36 H122       -2.0860   -0.5340    3.3780 h1        1 FBQ      0.066700
     37 H141       -1.9300    0.8160    6.1370 h1        1 FBQ      0.069700
     38 H142       -3.4440    1.0860    5.1910 h1        1 FBQ      0.069700
     39 HC61       -1.0860    2.5140    7.5820 ha        1 FBQ      0.159000
     40 HC81       -3.0170    6.3810    7.6930 ha        1 FBQ      0.151000
     41 HC91       -4.4190    5.7380    5.7200 ha        1 FBQ      0.144000
     42 HC02       -4.1490    3.4900    4.6750 ha        1 FBQ      0.146000
     43 HO62       -2.7510    5.1650   10.0160 ho        1 FBQ      0.439000
     44 H281       -2.8320   -0.0150    1.3440 hc        1 FBQ      0.058033
     45 H282       -2.4860   -1.1030   -0.0630 hc        1 FBQ      0.058033
     46 H283       -2.4000   -1.7660    1.6200 hc        1 FBQ      0.058033
     47 H6SO       -0.2220    4.0400   10.4060 ho        1 FBQ      0.439000
@<TRIPOS>BOND
     1    1    2 ar  
     2    1    6 ar  
     3    2    3 ar  
     4    2   10 ar  
     5    3    4 ar  
     6    3    7 ar  
     7    4    5 ar  
     8    4   11 1   
     9    5    6 ar  
    10    5   12 1   
    11    6   28 1   
    12    7    8 ar  
    13    7   27 1   
    14    8    9 ar  
    15    8   30 1   
    16    9   10 ar  
    17    9   31 1   
    18   10   32 1   
    19   11   33 1   
    20   11   34 1   
    21   12   13 1   
    22   12   35 1   
    23   12   36 1   
    24   13   14 1   
    25   14   15 1   
    26   14   37 1   
    27   14   38 1   
    28   15   16 ar  
    29   15   20 ar  
    30   16   17 ar  
    31   16   39 1   
    32   17   18 ar  
    33   17   21 1   
    34   18   19 ar  
    35   18   40 1   
    36   19   20 ar  
    37   19   41 1   
    38   20   42 1   
    39   21   22 1   
    40   21   26 1   
    41   21   29 1   
    42   22   23 1   
    43   22   24 1   
    44   22   25 1   
    45   26   43 1   
    46   28   44 1   
    47   28   45 1   
    48   28   46 1   
    49   29   47 1   
@<TRIPOS>SUBSTRUCTURE
     1 FBQ         1 TEMP              0 ****  ****    0 ROOT
