@<TRIPOS>MOLECULE
FBQ
   47    49     1     0     0
SMALL
bcc


@<TRIPOS>ATOM
      1 N1          0.0090   -0.6030    0.0150 nb        1 FBQ     -0.715000
      2 C2          1.3390   -0.2610    0.0910 ca        1 FBQ      0.461600
      3 C3          1.9410    0.2630    1.2780 ca        1 FBQ     -0.228300
      4 C4          1.0930    0.4080    2.4470 ca        1 FBQ      0.259600
      5 C5         -0.2570   -0.0020    2.3540 ca        1 FBQ     -0.314600
      6 C6         -0.7530   -0.4750    1.0970 ca        1 FBQ      0.499600
      7 C7          3.3330    0.6020    1.2160 ca        1 FBQ      0.151900
      8 C8          4.0730    0.4190    0.0550 ca        1 FBQ     -0.185000
      9 C9          3.4600   -0.1060   -1.0980 ca        1 FBQ     -0.092000
     10 C10         2.1320   -0.4380   -1.0910 ca        1 FBQ     -0.191300
     11 N11         1.5830    0.8810    3.6420 nh        1 FBQ     -0.844200
     12 C12        -1.1340    0.0200    3.5400 c3        1 FBQ      0.063000
     13 S13        -1.4940    1.7180    3.9530 ss        1 FBQ     -0.321200
     14 C14        -2.4480    1.5220    5.4410 c3        1 FBQ      0.036000
     15 C15        -2.6030    2.8560    6.0620 ca        1 FBQ     -0.082300
     16 C16        -1.8210    3.2120    7.1680 ca        1 FBQ     -0.059000
     17 C17        -1.9770    4.4690    7.7560 ca        1 FBQ     -0.144300
     18 C18        -2.9110    5.3780    7.2440 ca        1 FBQ     -0.099000
     19 C19        -3.6890    5.0220    6.1450 ca        1 FBQ     -0.132000
     20 C20        -3.5390    3.7670    5.5560 ca        1 FBQ     -0.088000
     21 C21        -1.1570    4.8650    8.9470 c3        1 FBQ      0.381900
     22 C22         0.0370    5.8540    8.5640 c3        1 FBQ      0.612900
     23 F23         0.9140    6.0190    9.6050 f         1 FBQ     -0.227633
     24 F24         0.8080    5.4200    7.5220 f         1 FBQ     -0.227633
     25 F25        -0.3690    7.1130    8.2230 f         1 FBQ     -0.227633
     26 O26        -1.8670    5.5510    9.9510 oh        1 FBQ     -0.607300
     27 F27         3.9820    1.1150    2.2930 f         1 FBQ     -0.148900
     28 C28        -2.2020   -0.8450    0.9770 c3        1 FBQ     -0.158400
     29 OS6        -0.6300    3.7290    9.5830 oh        1 FBQ     -0.607300
     30 HC8         5.1400    0.6860    0.0400 ha        1 FBQ      0.151000
     31 HC9         4.0680   -0.2430   -2.0060 ha        1 FBQ      0.141000
     32 HC01        1.6500   -0.8470   -1.9930 ha        1 FBQ      0.156000
     33 H111        0.9180    1.2550    4.2860 hn        1 FBQ      0.433800
     34 H112        2.4820    1.3030    3.6540 hn        1 FBQ      0.433800
     35 H121       -2.0930   -0.5270    3.3660 h1        1 FBQ      0.066700
     36 H122       -0.6380   -0.4760    4.4140 h1        1 FBQ      0.066700
     37 H141       -1.9330    0.8110    6.1340 h1        1 FBQ      0.069700
     38 H142       -3.4470    1.0870    5.1880 h1        1 FBQ      0.069700
     39 HC61       -1.0830    2.5060    7.5820 ha        1 FBQ      0.159000
     40 HC81       -3.0130    6.3720    7.7080 ha        1 FBQ      0.151000
     41 HC91       -4.4200    5.7360    5.7370 ha        1 FBQ      0.144000
     42 HC02       -4.1530    3.4910    4.6840 ha        1 FBQ      0.146000
     43 HO62       -2.7420    5.1490   10.0270 ho        1 FBQ      0.439000
     44 H281       -2.4080   -1.7490    1.6010 hc        1 FBQ      0.058033
     45 H282       -2.8340    0.0050    1.3340 hc        1 FBQ      0.058033
     46 H283       -2.4890   -1.0770   -0.0790 hc        1 FBQ      0.058033
     47 H6SO       -0.2120    4.0230   10.4080 ho        1 FBQ      0.439000
@<TRIPOS>BOND
     1    1    2 ar  
     2    1    6 ar  
     3    2    3 ar  
     4    2   10 ar  
     5    3    4 ar  
     6    3    7 ar  
     7    4    5 ar  
     8    4   11 1   
     9    5    6 ar  
    10    5   12 1   
    11    6   28 1   
    12    7    8 ar  
    13    7   27 1   
    14    8    9 ar  
    15    8   30 1   
    16    9   10 ar  
    17    9   31 1   
    18   10   32 1   
    19   11   33 1   
    20   11   34 1   
    21   12   13 1   
    22   12   35 1   
    23   12   36 1   
    24   13   14 1   
    25   14   15 1   
    26   14   37 1   
    27   14   38 1   
    28   15   16 ar  
    29   15   20 ar  
    30   16   17 ar  
    31   16   39 1   
    32   17   18 ar  
    33   17   21 1   
    34   18   19 ar  
    35   18   40 1   
    36   19   20 ar  
    37   19   41 1   
    38   20   42 1   
    39   21   22 1   
    40   21   26 1   
    41   21   29 1   
    42   22   23 1   
    43   22   24 1   
    44   22   25 1   
    45   26   43 1   
    46   28   44 1   
    47   28   45 1   
    48   28   46 1   
    49   29   47 1   
@<TRIPOS>SUBSTRUCTURE
     1 FBQ         1 TEMP              0 ****  ****    0 ROOT
