@<TRIPOS>MOLECULE
FBR
   39    39     1     0     0
SMALL
bcc


@<TRIPOS>ATOM
      1 C1          0.3900   -0.1360    0.1260 c3        1 FBR     -0.030000
      2 C2          1.3150   -0.1600    0.0570 c3        1 FBR     -0.145000
      3 C3          2.1580   -0.2400    1.4090 c3        1 FBR     -0.204000
      4 C4          1.7610   -1.2950    2.2050 c2        1 FBR      0.273000
      5 O5          2.3210   -1.5010    3.2740 o         1 FBR     -0.274000
      6 C6          0.5490   -1.7990    1.9820 c2        1 FBR     -0.270000
      7 BR7        -0.3440   -2.8000    3.3510 br        1 FBR      0.078000
      8 C8         -0.2490   -1.1580    0.8640 c2        1 FBR      0.040000
      9 C9         -0.9020   -1.9000    0.0230 c2        1 FBR     -0.109000
     10 C10        -1.6070   -3.1880    0.1580 c1        1 FBR     -0.045000
     11 C11        -2.1190   -3.7720   -0.9040 c1        1 FBR     -0.173000
     12 C12        -2.0050   -3.2290   -2.0280 c1        1 FBR      0.103000
     13 O13        -2.6270   -3.8070   -3.1620 o         1 FBR     -0.246000
     14 C14        -1.3700   -2.0710   -2.1380 c2        1 FBR     -0.213000
     15 C15        -0.8040   -1.4310   -0.9480 c2        1 FBR     -0.016000
     16 C16         0.0130   -0.1170   -0.7390 c3        1 FBR     -0.124000
     17 C17         0.0250    1.2070    0.8130 c3        1 FBR     -0.150000
     18 C18         0.4570    2.3790   -0.0870 c3        1 FBR     -0.157000
     19 C19        -0.2400    3.6790    0.3890 c3        1 FBR     -0.160000
     20 C20         0.4910    4.8930   -0.1950 c3        1 FBR     -0.211000
     21 H21         1.5560   -0.9420   -0.4940 hc        1 FBR      0.093500
     22 H22         1.6010    0.6510   -0.4270 hc        1 FBR      0.093500
     23 H31         2.1530    0.6590    1.7980 hc        1 FBR      0.116500
     24 H32         3.1250   -0.3640    1.2500 hc        1 FBR      0.116500
     25 H10        -1.6940   -3.6110    1.0430 ha        1 FBR      0.157000
     26 H11        -2.5140   -4.6770   -0.8290 ha        1 FBR      0.156000
     27 HO13       -2.0310   -4.2920   -3.6120 ho        1 FBR      0.221000
     28 H14        -1.2780   -1.6420   -3.0190 ha        1 FBR      0.140000
     29 H161       -0.5820    0.6610   -0.8250 hc        1 FBR      0.106500
     30 H162        0.7300   -0.0620   -1.4110 hc        1 FBR      0.106500
     31 H171       -0.9400    1.2460    0.9600 hc        1 FBR      0.093500
     32 H172        0.4850    1.2690    1.6680 hc        1 FBR      0.093500
     33 H181        1.4280    2.4910   -0.0330 hc        1 FBR      0.079000
     34 H182        0.2000    2.1910   -1.0140 hc        1 FBR      0.079000
     35 H191       -0.2170    3.7220    1.3680 hc        1 FBR      0.082000
     36 H192       -1.1710    3.6820    0.0840 hc        1 FBR      0.082000
     37 H201        0.0360    5.7230    0.0940 hc        1 FBR      0.073333
     38 H202        0.4820    4.8400   -1.1720 hc        1 FBR      0.073333
     39 H203        1.4170    4.9020    0.1230 hc        1 FBR      0.073333
@<TRIPOS>BOND
     1    1    2 1   
     2    1    8 1   
     3    1   16 1   
     4    1   17 1   
     5    2    3 1   
     6    2   21 1   
     7    2   22 1   
     8    3    4 1   
     9    3   23 1   
    10    3   24 1   
    11    4    5 1   
    12    4    6 1   
    13    6    7 1   
    14    6    8 1   
    15    8    9 1   
    16    9   10 1   
    17    9   15 1   
    18   10   25 1   
    19   11   12 1   
    20   11   26 1   
    21   12   14 1   
    22   13   27 1   
    23   14   15 1   
    24   14   28 1   
    25   15   16 1   
    26   16   29 1   
    27   16   30 1   
    28   17   18 1   
    29   17   31 1   
    30   17   32 1   
    31   18   19 1   
    32   18   33 1   
    33   18   34 1   
    34   19   20 1   
    35   19   35 1   
    36   19   36 1   
    37   20   37 1   
    38   20   38 1   
    39   20   39 1   
@<TRIPOS>SUBSTRUCTURE
     1 FBR         1 TEMP              0 ****  ****    0 ROOT
