@<TRIPOS>MOLECULE
FBR
   39    41     1     0     0
SMALL
bcc


@<TRIPOS>ATOM
      1 C1          4.8860   -1.5350   -2.2850 c3        1 FBR     -0.025800
      2 C2          5.3480   -2.2440   -3.5510 c3        1 FBR     -0.066400
      3 C3          6.3920   -3.2980   -3.2510 c3        1 FBR     -0.175400
      4 C4          6.2310   -3.9960   -1.9230 c         1 FBR      0.581300
      5 O5          7.1450   -4.6990   -1.4810 o         1 FBR     -0.513100
      6 C6          4.9510   -3.7820   -1.2030 ce        1 FBR     -0.163500
      7 BR7         4.3130   -5.2020   -0.1700 br        1 FBR     -0.047700
      8 C8          4.3130   -2.6040   -1.3480 cf        1 FBR      0.047600
      9 C9          3.0300   -2.1260   -0.8530 ca        1 FBR     -0.120800
     10 C10         2.1950   -2.6240    0.1430 ca        1 FBR     -0.045000
     11 C11         0.9890   -1.9770    0.4200 ca        1 FBR     -0.173000
     12 C12         0.6290   -0.8310   -0.3050 ca        1 FBR      0.148100
     13 O13        -0.5750   -0.2550    0.0210 oh        1 FBR     -0.492100
     14 C14         1.4650   -0.3040   -1.3100 ca        1 FBR     -0.213000
     15 C15         2.6570   -0.9540   -1.5680 ca        1 FBR     -0.023300
     16 C16         3.7030   -0.5730   -2.5620 c3        1 FBR     -0.038100
     17 C17         6.0230   -0.7980   -1.5800 c3        1 FBR     -0.071400
     18 C18         6.7640    0.1760   -2.4710 c3        1 FBR     -0.078400
     19 C19         7.7020    1.0450   -1.6580 c3        1 FBR     -0.081400
     20 C20         8.4820    1.9870   -2.5380 c3        1 FBR     -0.093100
     21 H21         5.7640   -1.4960   -4.2740 hc        1 FBR      0.054200
     22 H22         4.4580   -2.7240   -4.0400 hc        1 FBR      0.054200
     23 H31         7.4150   -2.8320   -3.2660 hc        1 FBR      0.077200
     24 H32         6.3750   -4.0850   -4.0530 hc        1 FBR      0.077200
     25 H10         2.4720   -3.5190    0.7210 ha        1 FBR      0.157000
     26 H11         0.3160   -2.3550    1.2020 ha        1 FBR      0.156000
     27 HO13       -0.7020    0.5200   -0.5460 ho        1 FBR      0.422000
     28 H14         1.1740    0.5980   -1.8650 ha        1 FBR      0.140000
     29 H161        3.3210   -0.7030   -3.6060 hc        1 FBR      0.067200
     30 H162        4.0080    0.4950   -2.4350 hc        1 FBR      0.067200
     31 H171        6.7510   -1.5550   -1.1820 hc        1 FBR      0.054200
     32 H172        5.5960   -0.2500   -0.6980 hc        1 FBR      0.054200
     33 H181        7.3570   -0.3890   -3.2390 hc        1 FBR      0.039700
     34 H182        6.0390    0.8270   -3.0260 hc        1 FBR      0.039700
     35 H191        8.4110    0.3920   -1.0830 hc        1 FBR      0.042700
     36 H192        7.1120    1.6330   -0.9070 hc        1 FBR      0.042700
     37 H201        7.7940    2.6590   -3.1060 hc        1 FBR      0.034033
     38 H202        9.1010    1.4190   -3.2740 hc        1 FBR      0.034033
     39 H203        9.1630    2.6210   -1.9200 hc        1 FBR      0.034033
@<TRIPOS>BOND
     1    1    2 1   
     2    1    8 1   
     3    1   16 1   
     4    1   17 1   
     5    2    3 1   
     6    2   21 1   
     7    2   22 1   
     8    3    4 1   
     9    3   23 1   
    10    3   24 1   
    11    4    5 2   
    12    4    6 1   
    13    6    7 1   
    14    6    8 2   
    15    8    9 1   
    16    9   10 ar  
    17    9   15 ar  
    18   10   11 ar  
    19   10   25 1   
    20   11   12 ar  
    21   11   26 1   
    22   12   13 1   
    23   12   14 ar  
    24   13   27 1   
    25   14   15 ar  
    26   14   28 1   
    27   15   16 1   
    28   16   29 1   
    29   16   30 1   
    30   17   18 1   
    31   17   31 1   
    32   17   32 1   
    33   18   19 1   
    34   18   33 1   
    35   18   34 1   
    36   19   20 1   
    37   19   35 1   
    38   19   36 1   
    39   20   37 1   
    40   20   38 1   
    41   20   39 1   
@<TRIPOS>SUBSTRUCTURE
     1 FBR         1 TEMP              0 ****  ****    0 ROOT
