@<TRIPOS>MOLECULE
FBR
   39    41     1     0     0
SMALL
bcc


@<TRIPOS>ATOM
      1 C1         -0.1250    0.0440   -0.0680 c3        1 FBR     -0.025800
      2 C2          1.3850   -0.1280   -0.1550 c3        1 FBR     -0.066400
      3 C3          2.0340   -0.0620    1.2100 c3        1 FBR     -0.175400
      4 C4          1.2020   -0.6170    2.3400 c         1 FBR      0.581300
      5 O5          1.5320   -0.4060    3.5110 o         1 FBR     -0.513100
      6 C6         -0.0040   -1.3970    1.9650 ce        1 FBR     -0.163500
      7 Br7        -0.4920   -2.8000    3.0990 br        1 FBR     -0.047700
      8 C8         -0.6590   -1.0760    0.8320 cf        1 FBR      0.047600
      9 C9         -1.7990   -1.6860    0.1620 ca        1 FBR     -0.120800
     10 C10        -2.7340   -2.6120    0.6150 ca        1 FBR     -0.045000
     11 C11        -3.7380   -3.0570   -0.2450 ca        1 FBR     -0.173000
     12 C12        -3.7990   -2.5680   -1.5590 ca        1 FBR      0.148100
     13 O13        -4.8120   -3.0580   -2.3480 oh        1 FBR     -0.492100
     14 C14        -2.8690   -1.6220   -2.0350 ca        1 FBR     -0.213000
     15 C15        -1.8850   -1.1890   -1.1680 ca        1 FBR     -0.023300
     16 C16        -0.8120   -0.1860   -1.4380 c3        1 FBR     -0.038100
     17 C17        -0.5280    1.3980    0.5120 c3        1 FBR     -0.071400
     18 C18         0.0800    2.5790   -0.2140 c3        1 FBR     -0.078400
     19 C19        -0.5490    3.8780    0.2460 c3        1 FBR     -0.081400
     20 C20         0.0810    5.0660   -0.4340 c3        1 FBR     -0.093100
     21 H21         1.6080   -1.1200   -0.6310 hc        1 FBR      0.054200
     22 H22         1.8190    0.6650   -0.8180 hc        1 FBR      0.054200
     23 H31         3.0050   -0.6260    1.1950 hc        1 FBR      0.077200
     24 H32         2.2760    1.0070    1.4640 hc        1 FBR      0.077200
     25 H10        -2.6980   -2.9970    1.6470 ha        1 FBR      0.157000
     26 H11        -4.4860   -3.7880    0.0930 ha        1 FBR      0.156000
     27 HO13       -4.7430   -2.6430   -3.2200 ho        1 FBR      0.422000
     28 H14        -2.9330   -1.2420   -3.0630 ha        1 FBR      0.140000
     29 H161       -1.2420    0.7630   -1.8430 hc        1 FBR      0.067200
     30 H162       -0.0810   -0.5840   -2.1880 hc        1 FBR      0.067200
     31 H171       -1.6480    1.4760    0.4850 hc        1 FBR      0.054200
     32 H172       -0.2170    1.4340    1.5920 hc        1 FBR      0.054200
     33 H181        1.1850    2.6140   -0.0200 hc        1 FBR      0.039700
     34 H182       -0.0580    2.4680   -1.3220 hc        1 FBR      0.039700
     35 H191       -0.4330    3.9750    1.3580 hc        1 FBR      0.042700
     36 H192       -1.6490    3.8590    0.0290 hc        1 FBR      0.042700
     37 H201       -0.0410    4.9970   -1.5420 hc        1 FBR      0.034033
     38 H202       -0.4000    6.0120   -0.0850 hc        1 FBR      0.034033
     39 H203        1.1730    5.1200   -0.2050 hc        1 FBR      0.034033
@<TRIPOS>BOND
     1    1    2 1   
     2    1    8 1   
     3    1   16 1   
     4    1   17 1   
     5    2    3 1   
     6    2   21 1   
     7    2   22 1   
     8    3    4 1   
     9    3   23 1   
    10    3   24 1   
    11    4    5 2   
    12    4    6 1   
    13    6    7 1   
    14    6    8 2   
    15    8    9 1   
    16    9   10 ar  
    17    9   15 ar  
    18   10   11 ar  
    19   10   25 1   
    20   11   12 ar  
    21   11   26 1   
    22   12   13 1   
    23   12   14 ar  
    24   13   27 1   
    25   14   15 ar  
    26   14   28 1   
    27   15   16 1   
    28   16   29 1   
    29   16   30 1   
    30   17   18 1   
    31   17   31 1   
    32   17   32 1   
    33   18   19 1   
    34   18   33 1   
    35   18   34 1   
    36   19   20 1   
    37   19   35 1   
    38   19   36 1   
    39   20   37 1   
    40   20   38 1   
    41   20   39 1   
@<TRIPOS>SUBSTRUCTURE
     1 FBR         1 TEMP              0 ****  ****    0 ROOT
