@<TRIPOS>MOLECULE
FBR
   39    41     1     0     0
SMALL
bcc


@<TRIPOS>ATOM
      1 C1         -0.1220    0.0440   -0.0660 c3        1 FBR     -0.025800
      2 C2          1.3880   -0.1290   -0.1490 c3        1 FBR     -0.066400
      3 C3          2.0350   -0.0590    1.2170 c3        1 FBR     -0.175400
      4 C4          1.2000   -0.6090    2.3470 c         1 FBR      0.581300
      5 O5          1.5280   -0.3940    3.5180 o         1 FBR     -0.513100
      6 C6         -0.0060   -1.3890    1.9720 ce        1 FBR     -0.163500
      7 BR7        -0.4970   -2.7880    3.1110 br        1 FBR     -0.047700
      8 C8         -0.6590   -1.0720    0.8380 cf        1 FBR      0.047600
      9 C9         -1.7980   -1.6840    0.1680 ca        1 FBR     -0.120800
     10 C10        -2.7340   -2.6070    0.6220 ca        1 FBR     -0.045000
     11 C11        -3.7370   -3.0540   -0.2390 ca        1 FBR     -0.173000
     12 C12        -3.7950   -2.5700   -1.5550 ca        1 FBR      0.148100
     13 O13        -4.8080   -3.0610   -2.3430 oh        1 FBR     -0.492100
     14 C14        -2.8640   -1.6260   -2.0320 ca        1 FBR     -0.213000
     15 C15        -1.8800   -1.1910   -1.1640 ca        1 FBR     -0.023300
     16 C16        -0.8060   -0.1900   -1.4360 c3        1 FBR     -0.038100
     17 C17        -0.5250    1.4010    0.5090 c3        1 FBR     -0.071400
     18 C18         0.0860    2.5790   -0.2200 c3        1 FBR     -0.078400
     19 C19        -0.5420    3.8800    0.2350 c3        1 FBR     -0.081400
     20 C20         0.0890    5.0650   -0.4480 c3        1 FBR     -0.093100
     21 H21         1.6110   -1.1230   -0.6210 hc        1 FBR      0.054200
     22 H22         1.8240    0.6610   -0.8140 hc        1 FBR      0.054200
     23 H31         2.2770    1.0110    1.4670 hc        1 FBR      0.077200
     24 H32         3.0050   -0.6240    1.2060 hc        1 FBR      0.077200
     25 H10        -2.7000   -2.9880    1.6550 ha        1 FBR      0.157000
     26 H11        -4.4860   -3.7840    0.1010 ha        1 FBR      0.156000
     27 HO13       -4.7360   -2.6500   -3.2170 ho        1 FBR      0.422000
     28 H14        -2.9250   -1.2490   -3.0620 ha        1 FBR      0.140000
     29 H161       -1.2360    0.7590   -1.8450 hc        1 FBR      0.067200
     30 H162       -0.0740   -0.5900   -2.1830 hc        1 FBR      0.067200
     31 H171       -0.2160    1.4400    1.5890 hc        1 FBR      0.054200
     32 H172       -1.6440    1.4800    0.4800 hc        1 FBR      0.054200
     33 H181        1.1910    2.6130   -0.0240 hc        1 FBR      0.039700
     34 H182       -0.0510    2.4650   -1.3270 hc        1 FBR      0.039700
     35 H191       -0.4280    3.9800    1.3470 hc        1 FBR      0.042700
     36 H192       -1.6430    3.8620    0.0170 hc        1 FBR      0.042700
     37 H201       -0.0310    4.9930   -1.5560 hc        1 FBR      0.034033
     38 H202        1.1810    5.1190   -0.2170 hc        1 FBR      0.034033
     39 H203       -0.3910    6.0130   -0.1030 hc        1 FBR      0.034033
@<TRIPOS>BOND
     1    1    2 1   
     2    1    8 1   
     3    1   16 1   
     4    1   17 1   
     5    2    3 1   
     6    2   21 1   
     7    2   22 1   
     8    3    4 1   
     9    3   23 1   
    10    3   24 1   
    11    4    5 2   
    12    4    6 1   
    13    6    7 1   
    14    6    8 2   
    15    8    9 1   
    16    9   10 ar  
    17    9   15 ar  
    18   10   11 ar  
    19   10   25 1   
    20   11   12 ar  
    21   11   26 1   
    22   12   13 1   
    23   12   14 ar  
    24   13   27 1   
    25   14   15 ar  
    26   14   28 1   
    27   15   16 1   
    28   16   29 1   
    29   16   30 1   
    30   17   18 1   
    31   17   31 1   
    32   17   32 1   
    33   18   19 1   
    34   18   33 1   
    35   18   34 1   
    36   19   20 1   
    37   19   35 1   
    38   19   36 1   
    39   20   37 1   
    40   20   38 1   
    41   20   39 1   
@<TRIPOS>SUBSTRUCTURE
     1 FBR         1 TEMP              0 ****  ****    0 ROOT
