@<TRIPOS>MOLECULE
FBS
   17    17     1     0     0
SMALL
bcc


@<TRIPOS>ATOM
      1 C01         0.0540   -0.0500   -2.6250 ca        1 FBS      0.189900
      2 C02        -1.1840   -0.0490   -1.9530 ca        1 FBS     -0.195000
      3 C03        -1.2010   -0.0020   -0.5650 ca        1 FBS      0.007000
      4 C04        -0.0140    0.0400    0.1770 ca        1 FBS     -0.401500
      5 C05         1.2070    0.0510   -0.5080 ca        1 FBS      0.007000
      6 C06         1.2580    0.0050   -1.8950 ca        1 FBS     -0.195000
      7 S07        -0.0560    0.1200    1.8660 sy        1 FBS      1.530200
      8 O08        -1.2870    0.6920    2.2500 o         1 FBS     -0.656800
      9 O09         1.1300    0.7450    2.3070 o         1 FBS     -0.656800
     10 NP0        -0.0320   -1.4200    2.3060 n3        1 FBS     -1.027700
     11 F11         0.0870   -0.0990   -3.9750 f         1 FBS     -0.129900
     12 HC2        -2.1190   -0.0790   -2.5300 ha        1 FBS      0.158000
     13 HC3        -2.1700    0.0220   -0.0340 ha        1 FBS      0.159000
     14 HC5         2.1480    0.1170    0.0680 ha        1 FBS      0.159000
     15 HC6         2.2200    0.0160   -2.4280 ha        1 FBS      0.158000
     16 HN01        0.7980   -1.9240    2.4900 hn        1 FBS      0.448800
     17 HN02       -0.8470   -1.9600    2.4510 hn        1 FBS      0.448800
@<TRIPOS>BOND
     1    1    2 ar  
     2    1    6 ar  
     3    1   11 1   
     4    2    3 ar  
     5    2   12 1   
     6    3    4 ar  
     7    3   13 1   
     8    4    5 ar  
     9    4    7 1   
    10    5    6 ar  
    11    5   14 1   
    12    6   15 1   
    13    7    8 2   
    14    7    9 2   
    15    7   10 1   
    16   10   16 1   
    17   10   17 1   
@<TRIPOS>SUBSTRUCTURE
     1 FBS         1 TEMP              0 ****  ****    0 ROOT
