@<TRIPOS>MOLECULE
FBS
   18    18     1     0     0
SMALL
bcc


@<TRIPOS>ATOM
      1 C01        -0.0540    0.0660    0.0630 ca        1 FBS      0.281900
      2 C02         1.3620    0.0700    0.0150 ca        1 FBS     -0.193000
      3 C03         2.0810    0.0000    1.1900 ca        1 FBS      0.040000
      4 C04         1.4430   -0.0670    2.4530 ca        1 FBS     -0.588500
      5 C05         0.0270   -0.0770    2.4720 ca        1 FBS      0.040000
      6 C06        -0.7170   -0.0090    1.3120 ca        1 FBS     -0.193000
      7 S07         2.2870   -0.2360    3.7940 sy        1 FBS      1.499200
      8 O08         3.6130   -0.5640    3.6200 o         1 FBS     -0.565800
      9 O09         1.5680   -0.6410    4.8970 o         1 FBS     -0.565800
     10 NP0         2.4840    1.6370    4.2230 n4        1 FBS     -0.786500
     11 F11        -0.7640    0.1310   -1.0700 f         1 FBS     -0.074900
     12 HC2         1.8720    0.1160   -0.9630 ha        1 FBS      0.194000
     13 HC3         3.1880   -0.0230    1.1450 ha        1 FBS      0.175000
     14 HC5        -0.4970   -0.1620    3.4450 ha        1 FBS      0.175000
     15 HC6        -1.8210   -0.0230    1.3410 ha        1 FBS      0.194000
     16 HN01        2.0760    1.8340    5.1350 hn        1 FBS      0.455800
     17 HN02        2.0370    2.2430    3.5430 hn        1 FBS      0.455800
     18 HP03        3.4700    1.8860    4.2650 hn        1 FBS      0.455800
@<TRIPOS>BOND
     1    1    2 ar  
     2    1    6 ar  
     3    1   11 1   
     4    2    3 ar  
     5    2   12 1   
     6    3    4 ar  
     7    3   13 1   
     8    4    5 ar  
     9    4    7 1   
    10    5    6 ar  
    11    5   14 1   
    12    6   15 1   
    13    7    8 2   
    14    7    9 2   
    15    7   10 1   
    16   10   16 1   
    17   10   17 1   
    18   10   18 1   
@<TRIPOS>SUBSTRUCTURE
     1 FBS         1 TEMP              0 ****  ****    0 ROOT
