@<TRIPOS>MOLECULE
FBS
   17    13     1     0     0
SMALL
bcc


@<TRIPOS>ATOM
      1 C01        -1.2080   -0.2480   -2.2180 c1        1 FBS      0.155000
      2 C02         0.1770   -0.3060   -2.1970 c1        1 FBS     -0.094000
      3 C03         0.8530   -0.2810   -0.9870 c1        1 FBS     -0.094000
      4 C04         0.1450   -0.1980    0.2010 c1        1 FBS     -0.846000
      5 C05        -1.2400   -0.1400    0.1800 c1        1 FBS      0.007000
      6 C06        -1.9160   -0.1650   -1.0300 c1        1 FBS     -0.195000
      7 S07         1.0070   -0.2280    1.7510 s4        1 FBS      2.085800
      8 O08         2.2930   -0.8550    1.6200 o         1 FBS     -0.544400
      9 O09         0.3630   -1.1060    2.6890 o         1 FBS     -0.544400
     10 NP0         1.1430    1.2930    2.3550 n2        1 FBS     -0.954000
     11 F11        -1.8620   -0.3010   -3.3850 f         1 FBS     -0.095000
     12 HC2         0.6760   -0.3640   -3.0340 ha        1 FBS      0.158500
     13 HC3         1.8280   -0.3210   -0.9720 ha        1 FBS      0.158500
     14 HC5        -1.7390   -0.0820    1.0170 ha        1 FBS      0.159000
     15 HC6        -2.8910   -0.1250   -1.0450 ha        1 FBS      0.158000
     16 HN01        0.6740    1.5310    3.1030 hn        1 FBS      0.244000
     17 HN02        1.6970    1.8970    1.9510 hn        1 FBS      0.244000
@<TRIPOS>BOND
     1    1    6 1   
     2    1   11 1   
     3    2    3 1   
     4    2   12 1   
     5    3   13 1   
     6    4    5 1   
     7    4    7 1   
     8    5   14 1   
     9    6   15 1   
    10    7    8 1   
    11    7    9 1   
    12   10   16 1   
    13   10   17 1   
@<TRIPOS>SUBSTRUCTURE
     1 FBS         1 TEMP              0 ****  ****    0 ROOT
