@<TRIPOS>MOLECULE
FBS
   18    18     1     0     0
SMALL
bcc


@<TRIPOS>ATOM
      1 C01        -0.0450    0.0640    0.0580 ca        1 FBS      0.281900
      2 C02         1.3710    0.0810    0.0130 ca        1 FBS     -0.193000
      3 C03         2.0870    0.0120    1.1910 ca        1 FBS      0.040000
      4 C04         1.4460   -0.0670    2.4520 ca        1 FBS     -0.588500
      5 C05         0.0300   -0.0890    2.4670 ca        1 FBS      0.040000
      6 C06        -0.7110   -0.0220    1.3040 ca        1 FBS     -0.193000
      7 S07         2.2870   -0.2340    3.7940 sy        1 FBS      1.499200
      8 O08         3.6170   -0.5490    3.6230 o         1 FBS     -0.565800
      9 O09         1.5690   -0.6510    4.8930 o         1 FBS     -0.565800
     10 NP0         2.4660    1.6380    4.2320 nz        1 FBS     -0.786500
     11 F11        -0.7520    0.1280   -1.0780 f         1 FBS     -0.074900
     12 HC2         1.8830    0.1360   -0.9630 ha        1 FBS      0.194000
     13 HC3         3.1950   -0.0010    1.1490 ha        1 FBS      0.175000
     14 HC5        -0.4960   -0.1830    3.4370 ha        1 FBS      0.175000
     15 HC6        -1.8140   -0.0470    1.3300 ha        1 FBS      0.194000
     16 HN01        2.0540    1.8270    5.1440 hn        1 FBS      0.455800
     17 HN02        2.0150    2.2430    3.5540 hn        1 FBS      0.455800
     18 HP03        3.4500    1.8960    4.2780 hn        1 FBS      0.455800
@<TRIPOS>BOND
     1    1    2 ar  
     2    1    6 ar  
     3    1   11 1   
     4    2    3 ar  
     5    2   12 1   
     6    3    4 ar  
     7    3   13 1   
     8    4    5 ar  
     9    4    7 1   
    10    5    6 ar  
    11    5   14 1   
    12    6   15 1   
    13    7    8 2   
    14    7    9 2   
    15    7   10 1   
    16   10   16 1   
    17   10   17 1   
    18   10   18 1   
@<TRIPOS>SUBSTRUCTURE
     1 FBS         1 TEMP              0 ****  ****    0 ROOT
