@<TRIPOS>MOLECULE
FBT
   17    17     1     0     0
SMALL
bcc


@<TRIPOS>ATOM
      1 C01         0.0690   -0.0700   -3.0350 ca        1 FBT     -0.027000
      2 C02        -1.1660    0.1490   -2.4390 ca        1 FBT     -0.207000
      3 C03        -1.2710    0.1730   -1.0330 ca        1 FBT      0.254400
      4 C04        -0.1460   -0.0190   -0.1980 ca        1 FBT     -0.426500
      5 C05         1.0870   -0.2490   -0.8530 ca        1 FBT      0.254400
      6 C06         1.2020   -0.2720   -2.2530 ca        1 FBT     -0.207000
      7 S07        -0.2480    0.0780    1.5210 sy        1 FBT      1.527200
      8 O08        -1.6050    0.1440    1.8810 o         1 FBT     -0.642800
      9 O09         0.5840    1.1310    1.9310 o         1 FBT     -0.642800
     10 NP0         0.3600   -1.3230    1.9820 n3        1 FBT     -1.027700
     11 F11        -2.4890    0.3910   -0.4950 f         1 FBT     -0.116400
     12 F12         2.2050   -0.4610   -0.1170 f         1 FBT     -0.116400
     13 HC1         0.1530   -0.0840   -4.1330 ha        1 FBT      0.149000
     14 HC2        -2.0690    0.3080   -3.0470 ha        1 FBT      0.161500
     15 HC6         2.1850   -0.4470   -2.7140 ha        1 FBT      0.161500
     16 HN01        1.3320   -1.5030    2.0460 hn        1 FBT      0.453300
     17 HN02       -0.1930   -2.1030    2.2340 hn        1 FBT      0.453300
@<TRIPOS>BOND
     1    1    2 ar  
     2    1    6 ar  
     3    1   13 1   
     4    2    3 ar  
     5    2   14 1   
     6    3    4 ar  
     7    3   11 1   
     8    4    5 ar  
     9    4    7 1   
    10    5    6 ar  
    11    5   12 1   
    12    6   15 1   
    13    7    8 2   
    14    7    9 2   
    15    7   10 1   
    16   10   16 1   
    17   10   17 1   
@<TRIPOS>SUBSTRUCTURE
     1 FBT         1 TEMP              0 ****  ****    0 ROOT
