@<TRIPOS>MOLECULE
FBT
   18    18     1     0     0
SMALL
bcc


@<TRIPOS>ATOM
      1 C01        -0.0720    0.0070    0.0490 ca        1 FBT      0.041000
      2 C02         1.3040   -0.1480   -0.0780 ca        1 FBT     -0.186500
      3 C03         2.1190   -0.1500    1.0660 ca        1 FBT      0.282400
      4 C04         1.5810   -0.0110    2.3840 ca        1 FBT     -0.605500
      5 C05         0.1640    0.1960    2.4430 ca        1 FBT      0.282400
      6 C06        -0.6480    0.1920    1.3090 ca        1 FBT     -0.186500
      7 S07         2.4820   -0.1930    3.7210 sy        1 FBT      1.486200
      8 O08         3.8400   -0.1940    3.5090 o         1 FBT     -0.546800
      9 O09         1.9010   -0.9380    4.7180 o         1 FBT     -0.546800
     10 NP0         2.2370    1.5580    4.4360 n4        1 FBT     -0.789500
     11 F11         3.4470   -0.3020    0.9150 f         1 FBT     -0.098400
     12 F12        -0.3910    0.4270    3.6550 f         1 FBT     -0.098400
     13 HC1        -0.7150   -0.0070   -0.8510 ha        1 FBT      0.189000
     14 HC2         1.7710   -0.2760   -1.0710 ha        1 FBT      0.197500
     15 HC6        -1.7380    0.3320    1.4160 ha        1 FBT      0.197500
     16 HN01        3.1300    2.0440    4.5110 hn        1 FBT      0.461467
     17 HN02        1.6160    2.1290    3.8710 hn        1 FBT      0.461467
     18 HP03        1.8340    1.5000    5.3720 hn        1 FBT      0.461467
@<TRIPOS>BOND
     1    1    2 ar  
     2    1    6 ar  
     3    1   13 1   
     4    2    3 ar  
     5    2   14 1   
     6    3    4 ar  
     7    3   11 1   
     8    4    5 ar  
     9    4    7 1   
    10    5    6 ar  
    11    5   12 1   
    12    6   15 1   
    13    7    8 2   
    14    7    9 2   
    15    7   10 1   
    16   10   16 1   
    17   10   17 1   
    18   10   18 1   
@<TRIPOS>SUBSTRUCTURE
     1 FBT         1 TEMP              0 ****  ****    0 ROOT
