@<TRIPOS>MOLECULE
FBT
   18    18     1     0     0
SMALL
bcc


@<TRIPOS>ATOM
      1 C01        -0.0350    0.0130    0.0260 ca        1 FBT      0.041000
      2 C02         1.3420   -0.1480   -0.0780 ca        1 FBT     -0.186500
      3 C03         2.1380   -0.1530    1.0790 ca        1 FBT      0.282400
      4 C04         1.5780   -0.0120    2.3880 ca        1 FBT     -0.605500
      5 C05         0.1610    0.2010    2.4240 ca        1 FBT      0.282400
      6 C06        -0.6320    0.1990    1.2760 ca        1 FBT     -0.186500
      7 S07         2.4560   -0.1970    3.7400 sy        1 FBT      1.486200
      8 O08         3.8170   -0.2040    3.5510 o         1 FBT     -0.546800
      9 O09         1.8550   -0.9400    4.7280 o         1 FBT     -0.546800
     10 NP0         2.2060    1.5540    4.4510 nz        1 FBT     -0.789500
     11 F11         3.4680   -0.3100    0.9510 f         1 FBT     -0.098400
     12 F12        -0.4130    0.4340    3.6260 f         1 FBT     -0.098400
     13 HC1        -0.6630    0.0010   -0.8840 ha        1 FBT      0.189000
     14 HC2         1.8250   -0.2780   -1.0630 ha        1 FBT      0.197500
     15 HC6        -1.7230    0.3440    1.3650 ha        1 FBT      0.197500
     16 HN01        3.1000    2.0370    4.5420 hn        1 FBT      0.461467
     17 HN02        1.5970    2.1280    3.8760 hn        1 FBT      0.461467
     18 HP03        1.7860    1.4980    5.3800 hn        1 FBT      0.461467
@<TRIPOS>BOND
     1    1    2 ar  
     2    1    6 ar  
     3    1   13 1   
     4    2    3 ar  
     5    2   14 1   
     6    3    4 ar  
     7    3   11 1   
     8    4    5 ar  
     9    4    7 1   
    10    5    6 ar  
    11    5   12 1   
    12    6   15 1   
    13    7    8 2   
    14    7    9 2   
    15    7   10 1   
    16   10   16 1   
    17   10   17 1   
    18   10   18 1   
@<TRIPOS>SUBSTRUCTURE
     1 FBT         1 TEMP              0 ****  ****    0 ROOT
