@<TRIPOS>MOLECULE
FBT
   18    18     1     0     0
SMALL
bcc


@<TRIPOS>ATOM
      1 C01        -0.0240    0.0270    0.0170 ca        1 FBT      0.041000
      2 C02         1.3530   -0.1400   -0.0800 ca        1 FBT     -0.186500
      3 C03         2.1420   -0.1520    1.0820 ca        1 FBT      0.282400
      4 C04         1.5760   -0.0130    2.3880 ca        1 FBT     -0.605500
      5 C05         0.1600    0.2050    2.4170 ca        1 FBT      0.282400
      6 C06        -0.6270    0.2110    1.2650 ca        1 FBT     -0.186500
      7 S07         2.4450   -0.2070    3.7450 sy        1 FBT      1.486200
      8 O08         3.8070   -0.2190    3.5630 o         1 FBT     -0.546800
      9 O09         1.8360   -0.9510    4.7260 o         1 FBT     -0.546800
     10 NP0         2.1990    1.5420    4.4610 n4        1 FBT     -0.789500
     11 F11         3.4730   -0.3150    0.9610 f         1 FBT     -0.098400
     12 F12        -0.4200    0.4370    3.6170 f         1 FBT     -0.098400
     13 HC1        -0.6470    0.0210   -0.8970 ha        1 FBT      0.189000
     14 HC2         1.8410   -0.2680   -1.0620 ha        1 FBT      0.197500
     15 HC6        -1.7180    0.3610    1.3480 ha        1 FBT      0.197500
     16 HN01        3.0940    2.0210    4.5580 hn        1 FBT      0.461467
     17 HN02        1.5960    2.1210    3.8830 hn        1 FBT      0.461467
     18 HP03        1.7730    1.4850    5.3870 hn        1 FBT      0.461467
@<TRIPOS>BOND
     1    1    2 ar  
     2    1    6 ar  
     3    1   13 1   
     4    2    3 ar  
     5    2   14 1   
     6    3    4 ar  
     7    3   11 1   
     8    4    5 ar  
     9    4    7 1   
    10    5    6 ar  
    11    5   12 1   
    12    6   15 1   
    13    7    8 2   
    14    7    9 2   
    15    7   10 1   
    16   10   16 1   
    17   10   17 1   
    18   10   18 1   
@<TRIPOS>SUBSTRUCTURE
     1 FBT         1 TEMP              0 ****  ****    0 ROOT
