@<TRIPOS>MOLECULE
FBT
   17    13     1     0     0
SMALL
bcc


@<TRIPOS>ATOM
      1 C01        -1.3100   -0.2080   -2.2130 c1        1 FBT     -0.118000
      2 C02         0.0760   -0.2080   -2.2130 c1        1 FBT     -0.205000
      3 C03         0.7690   -0.2080   -1.0130 c1        1 FBT      0.212000
      4 C04         0.0760   -0.2080    0.1880 c1        1 FBT     -0.871000
      5 C05        -1.3100   -0.2080    0.1870 c1        1 FBT      0.227000
      6 C06        -2.0030   -0.2080   -1.0130 c1        1 FBT     -0.118000
      7 S07         0.9630   -0.2560    1.7220 s4        1 FBT      2.082800
      8 O08         2.0880   -1.1450    1.6470 o         1 FBT     -0.530400
      9 O09         0.1830   -0.8790    2.7550 o         1 FBT     -0.530400
     10 NP0         1.4270    1.2580    2.1580 n2        1 FBT     -0.954000
     11 F11         2.1080   -0.2250   -1.0130 f         1 FBT     -0.098000
     12 F12        -1.9790   -0.2250    1.3470 f         1 FBT     -0.065000
     13 HC1        -1.7980   -0.2080   -3.0590 ha        1 FBT      0.155500
     14 HC2         0.5640   -0.2080   -3.0590 ha        1 FBT      0.161000
     15 HC6        -2.9790   -0.2080   -1.0130 ha        1 FBT      0.155500
     16 HN01        2.2870    1.5280    2.0200 hn        1 FBT      0.248500
     17 HN02        0.8350    1.8160    2.5700 hn        1 FBT      0.248500
@<TRIPOS>BOND
     1    1    6 1   
     2    1   13 1   
     3    2    3 1   
     4    2   14 1   
     5    3   11 1   
     6    4    5 1   
     7    4    7 1   
     8    5   12 1   
     9    6   15 1   
    10    7    8 1   
    11    7    9 1   
    12   10   16 1   
    13   10   17 1   
@<TRIPOS>SUBSTRUCTURE
     1 FBT         1 TEMP              0 ****  ****    0 ROOT
