@<TRIPOS>MOLECULE
FBU
   17    17     1     0     0
SMALL
bcc


@<TRIPOS>ATOM
      1 C01         0.0520   -0.0610   -2.5260 ca        1 FBU     -0.153000
      2 C02        -1.1730   -0.0560   -1.8380 ca        1 FBU      0.131900
      3 C03        -1.2040   -0.0020   -0.4330 ca        1 FBU     -0.078000
      4 C04        -0.0130    0.0440    0.2910 ca        1 FBU     -0.316500
      5 C05         1.2090    0.0500   -0.3790 ca        1 FBU     -0.078000
      6 C06         1.2430   -0.0040   -1.7840 ca        1 FBU      0.131900
      7 S07        -0.0530    0.1270    1.9980 sy        1 FBU      1.523200
      8 O08        -1.2830    0.7000    2.3730 o         1 FBU     -0.649800
      9 O09         1.1330    0.7520    2.4270 o         1 FBU     -0.649800
     10 NP0        -0.0290   -1.4130    2.4250 n3        1 FBU     -1.027700
     11 F11         2.4330   -0.0020   -2.4300 f         1 FBU     -0.127900
     12 F12        -2.3320   -0.1040   -2.5360 f         1 FBU     -0.127900
     13 HC1         0.0770   -0.1030   -3.6260 ha        1 FBU      0.170000
     14 HC3        -2.1770    0.0270    0.0890 ha        1 FBU      0.174000
     15 HC5         2.1560    0.1190    0.1850 ha        1 FBU      0.174000
     16 HN01        0.8010   -1.9200    2.6030 hn        1 FBU      0.451800
     17 HN02       -0.8450   -1.9550    2.5670 hn        1 FBU      0.451800
@<TRIPOS>BOND
     1    1    2 ar  
     2    1    6 ar  
     3    1   13 1   
     4    2    3 ar  
     5    2   12 1   
     6    3    4 ar  
     7    3   14 1   
     8    4    5 ar  
     9    4    7 1   
    10    5    6 ar  
    11    5   15 1   
    12    6   11 1   
    13    7    8 2   
    14    7    9 2   
    15    7   10 1   
    16   10   16 1   
    17   10   17 1   
@<TRIPOS>SUBSTRUCTURE
     1 FBU         1 TEMP              0 ****  ****    0 ROOT
