@<TRIPOS>MOLECULE
FBU
   17    13     1     0     0
SMALL
bcc


@<TRIPOS>ATOM
      1 C01        -1.3020   -0.1920   -2.1710 c1        1 FBU     -0.115500
      2 C02         0.0820   -0.2600   -2.2010 c1        1 FBU      0.097000
      3 C03         0.8020   -0.2650   -1.0170 c1        1 FBU     -0.115500
      4 C04         0.1370   -0.2030    0.1980 c1        1 FBU     -0.761000
      5 C05        -1.2470   -0.1360    0.2280 c1        1 FBU     -0.078000
      6 C06        -1.9670   -0.1300   -0.9560 c1        1 FBU      0.097000
      7 S07         1.0540   -0.2810    1.7140 s4        1 FBU      2.078800
      8 O08         2.2910   -0.9890    1.5400 o         1 FBU     -0.537400
      9 O09         0.3910   -1.1110    2.6820 o         1 FBU     -0.537400
     10 NP0         1.3100    1.2310    2.3020 n2        1 FBU     -0.954000
     11 F11        -3.3030   -0.0560   -0.9270 f         1 FBU     -0.093000
     12 F12         0.7240   -0.3120   -3.3750 f         1 FBU     -0.093000
     13 HC1        -1.8090   -0.1880   -3.0050 ha        1 FBU      0.172000
     14 HC3         1.7760   -0.3130   -1.0380 ha        1 FBU      0.172000
     15 HC5        -1.7150   -0.0920    1.0840 ha        1 FBU      0.174000
     16 HN01        1.9050    1.7880    1.8870 hn        1 FBU      0.247000
     17 HN02        0.8710    1.5100    3.0540 hn        1 FBU      0.247000
@<TRIPOS>BOND
     1    1    6 1   
     2    1   13 1   
     3    2    3 1   
     4    2   12 1   
     5    3   14 1   
     6    4    5 1   
     7    4    7 1   
     8    5   15 1   
     9    6   11 1   
    10    7    8 1   
    11    7    9 1   
    12   10   16 1   
    13   10   17 1   
@<TRIPOS>SUBSTRUCTURE
     1 FBU         1 TEMP              0 ****  ****    0 ROOT
