@<TRIPOS>MOLECULE
FBU
   18    18     1     0     0
SMALL
bcc


@<TRIPOS>ATOM
      1 C01        -0.0660    0.0710    0.0550 ca        1 FBU     -0.088000
      2 C02         1.3410    0.0670    0.0170 ca        1 FBU      0.158900
      3 C03         2.0870   -0.0040    1.2060 ca        1 FBU     -0.065000
      4 C04         1.4370   -0.0680    2.4510 ca        1 FBU     -0.476500
      5 C05         0.0320   -0.0670    2.4910 ca        1 FBU     -0.065000
      6 C06        -0.7140    0.0040    1.3030 ca        1 FBU      0.158900
      7 S07         2.2930   -0.2370    3.8100 sy        1 FBU      1.482200
      8 O08         3.6130   -0.5790    3.6270 o         1 FBU     -0.553800
      9 O09         1.5670   -0.6420    4.9070 o         1 FBU     -0.553800
     10 NP0         2.4910    1.6230    4.2200 nz        1 FBU     -0.790500
     11 F11        -2.0620    0.0050    1.3590 f         1 FBU     -0.088900
     12 F12         1.9810    0.1290   -1.1690 f         1 FBU     -0.088900
     13 HC1        -0.6530    0.1190   -0.8810 ha        1 FBU      0.207000
     14 HC3         3.1920   -0.0350    1.1440 ha        1 FBU      0.190000
     15 HC5        -0.5040   -0.1490    3.4560 ha        1 FBU      0.190000
     16 HN01        2.0850    1.8300    5.1320 hn        1 FBU      0.460800
     17 HN02        3.4790    1.8740    4.2590 hn        1 FBU      0.460800
     18 HP03        2.0450    2.2280    3.5370 hn        1 FBU      0.460800
@<TRIPOS>BOND
     1    1    2 ar  
     2    1    6 ar  
     3    1   13 1   
     4    2    3 ar  
     5    2   12 1   
     6    3    4 ar  
     7    3   14 1   
     8    4    5 ar  
     9    4    7 1   
    10    5    6 ar  
    11    5   15 1   
    12    6   11 1   
    13    7    8 2   
    14    7    9 2   
    15    7   10 1   
    16   10   16 1   
    17   10   17 1   
    18   10   18 1   
@<TRIPOS>SUBSTRUCTURE
     1 FBU         1 TEMP              0 ****  ****    0 ROOT
