@<TRIPOS>MOLECULE
FBU
   18    18     1     0     0
SMALL
bcc


@<TRIPOS>ATOM
      1 C01        -0.0990    0.0580    0.0770 ca        1 FBU     -0.088000
      2 C02         1.3080    0.0750    0.0160 ca        1 FBU      0.158900
      3 C03         2.0740    0.0120    1.1920 ca        1 FBU     -0.065000
      4 C04         1.4460   -0.0660    2.4470 ca        1 FBU     -0.476500
      5 C05         0.0420   -0.0870    2.5110 ca        1 FBU     -0.065000
      6 C06        -0.7240   -0.0240    1.3350 ca        1 FBU      0.158900
      7 S07         2.3270   -0.2280    3.7920 sy        1 FBU      1.482200
      8 O08         3.6490   -0.5480    3.5850 o         1 FBU     -0.553800
      9 O09         1.6260   -0.6470    4.8990 o         1 FBU     -0.553800
     10 NP0         2.5040    1.6340    4.2040 n4        1 FBU     -0.790500
     11 F11        -2.0710   -0.0430    1.4150 f         1 FBU     -0.088900
     12 F12         1.9260    0.1510   -1.1810 f         1 FBU     -0.088900
     13 HC1        -0.7010    0.1000   -0.8490 ha        1 FBU      0.207000
     14 HC3         3.1780   -0.0030    1.1120 ha        1 FBU      0.190000
     15 HC5        -0.4770   -0.1810    3.4840 ha        1 FBU      0.190000
     16 HN01        3.4890    1.9000    4.2280 hn        1 FBU      0.460800
     17 HN02        2.1100    1.8320    5.1240 hn        1 FBU      0.460800
     18 HP03        2.0370    2.2350    3.5310 hn        1 FBU      0.460800
@<TRIPOS>BOND
     1    1    2 ar  
     2    1    6 ar  
     3    1   13 1   
     4    2    3 ar  
     5    2   12 1   
     6    3    4 ar  
     7    3   14 1   
     8    4    5 ar  
     9    4    7 1   
    10    5    6 ar  
    11    5   15 1   
    12    6   11 1   
    13    7    8 2   
    14    7    9 2   
    15    7   10 1   
    16   10   16 1   
    17   10   17 1   
    18   10   18 1   
@<TRIPOS>SUBSTRUCTURE
     1 FBU         1 TEMP              0 ****  ****    0 ROOT
