@<TRIPOS>MOLECULE
FBU
   18    18     1     0     0
SMALL
bcc


@<TRIPOS>ATOM
      1 C01        -0.0550    0.0720    0.0480 ca        1 FBU     -0.088000
      2 C02         1.3520    0.0700    0.0170 ca        1 FBU      0.158900
      3 C03         2.0920   -0.0010    1.2090 ca        1 FBU     -0.065000
      4 C04         1.4370   -0.0680    2.4510 ca        1 FBU     -0.476500
      5 C05         0.0320   -0.0690    2.4840 ca        1 FBU     -0.065000
      6 C06        -0.7090    0.0020    1.2930 ca        1 FBU      0.158900
      7 S07         2.2860   -0.2380    3.8140 sy        1 FBU      1.482200
      8 O08         3.6080   -0.5780    3.6360 o         1 FBU     -0.553800
      9 O09         1.5560   -0.6450    4.9070 o         1 FBU     -0.553800
     10 NP0         2.4810    1.6220    4.2260 n4        1 FBU     -0.790500
     11 F11        -2.0570    0.0020    1.3430 f         1 FBU     -0.088900
     12 F12         1.9970    0.1340   -1.1660 f         1 FBU     -0.088900
     13 HC1        -0.6380    0.1210   -0.8900 ha        1 FBU      0.207000
     14 HC3         3.1970   -0.0320    1.1520 ha        1 FBU      0.190000
     15 HC5        -0.5090   -0.1530    3.4470 ha        1 FBU      0.190000
     16 HN01        2.0700    1.8280    5.1370 hn        1 FBU      0.460800
     17 HN02        3.4690    1.8740    4.2710 hn        1 FBU      0.460800
     18 HP03        2.0380    2.2270    3.5420 hn        1 FBU      0.460800
@<TRIPOS>BOND
     1    1    2 ar  
     2    1    6 ar  
     3    1   13 1   
     4    2    3 ar  
     5    2   12 1   
     6    3    4 ar  
     7    3   14 1   
     8    4    5 ar  
     9    4    7 1   
    10    5    6 ar  
    11    5   15 1   
    12    6   11 1   
    13    7    8 2   
    14    7    9 2   
    15    7   10 1   
    16   10   16 1   
    17   10   17 1   
    18   10   18 1   
@<TRIPOS>SUBSTRUCTURE
     1 FBU         1 TEMP              0 ****  ****    0 ROOT
