@<TRIPOS>MOLECULE
FBV
   18    18     1     0     0
SMALL
bcc


@<TRIPOS>ATOM
      1 C1          0.0680    0.0520   -0.0280 ca        1 FBV      0.024000
      2 C2          1.4670   -0.0040    0.0120 ca        1 FBV     -0.149000
      3 C3          2.1260   -0.0380    1.2280 ca        1 FBV      0.018000
      4 C4          1.4280   -0.0240    2.4630 ca        1 FBV     -0.573500
      5 C5          0.0090    0.0770    2.3860 ca        1 FBV      0.263900
      6 C6         -0.6650    0.1020    1.1570 ca        1 FBV     -0.173000
      7 S           2.2820   -0.2270    3.8150 sy        1 FBV      1.490200
      8 N2          1.7940    1.3990    4.6820 n4        1 FBV     -0.789500
      9 O1          1.7800   -1.1320    4.7190 o         1 FBV     -0.557300
     10 O2          3.6390   -0.0430    3.6590 o         1 FBV     -0.557300
     11 F          -0.6950    0.1780    3.5350 f         1 FBV     -0.120900
     12 H1         -0.4590    0.0620   -0.9990 ha        1 FBV      0.183000
     13 H2          2.0430   -0.0280   -0.9290 ha        1 FBV      0.184000
     14 H6         -1.7670    0.1590    1.1420 ha        1 FBV      0.193000
     15 H3          3.2340   -0.0880    1.2440 ha        1 FBV      0.182000
     16 H21N        1.4080    1.2000    5.6060 hn        1 FBV      0.460800
     17 H22N        1.0920    1.9220    4.1650 hn        1 FBV      0.460800
     18 H23         2.6060    2.0010    4.8080 hn        1 FBV      0.460800
@<TRIPOS>BOND
     1    1    2 ar  
     2    1    6 ar  
     3    1   12 1   
     4    2    3 ar  
     5    2   13 1   
     6    3    4 ar  
     7    3   15 1   
     8    4    5 ar  
     9    4    7 1   
    10    5    6 ar  
    11    5   11 1   
    12    6   14 1   
    13    7    8 1   
    14    7    9 2   
    15    7   10 2   
    16    8   16 1   
    17    8   17 1   
    18    8   18 1   
@<TRIPOS>SUBSTRUCTURE
     1 FBV         1 TEMP              0 ****  ****    0 ROOT
