@<TRIPOS>MOLECULE
FBV
   17    13     1     0     0
SMALL
bcc


@<TRIPOS>ATOM
      1 C1         -1.2910   -0.2140   -2.2100 c1        1 FBV     -0.103250
      2 C2          0.0950   -0.2140   -2.2100 c1        1 FBV     -0.103250
      3 C3          0.7880   -0.2140   -1.0100 c1        1 FBV     -0.103250
      4 C4          0.0950   -0.2140    0.1900 c1        1 FBV     -0.844000
      5 C5         -1.2910   -0.2140    0.1900 c1        1 FBV      0.199000
      6 C6         -1.9840   -0.2140   -1.0100 c1        1 FBV     -0.103250
      7 S           0.9810   -0.2550    1.7260 s4        1 FBV      2.084800
      8 N2          1.4640    1.2580    2.1440 n2        1 FBV     -0.954000
      9 O1          2.0960   -1.1580    1.6600 o         1 FBV     -0.540400
     10 O2          0.1950   -0.8570    2.7660 o         1 FBV     -0.540400
     11 F          -1.9610   -0.1940    1.3500 f         1 FBV     -0.103000
     12 H1         -1.7790   -0.2140   -3.0560 ha        1 FBV      0.154000
     13 H2          0.5830   -0.2140   -3.0560 ha        1 FBV      0.154000
     14 H6         -2.9600   -0.2140   -1.0100 ha        1 FBV      0.154000
     15 H3          1.7640   -0.2140   -1.0100 ha        1 FBV      0.154000
     16 H21N        2.3170    1.5290    1.9680 hn        1 FBV      0.248000
     17 H22N        0.8890    1.8170    2.5780 hn        1 FBV      0.248000
@<TRIPOS>BOND
     1    1    6 1   
     2    1   12 1   
     3    2    3 1   
     4    2   13 1   
     5    3   15 1   
     6    4    5 1   
     7    4    7 1   
     8    5   11 1   
     9    6   14 1   
    10    7    9 1   
    11    7   10 1   
    12    8   16 1   
    13    8   17 1   
@<TRIPOS>SUBSTRUCTURE
     1 FBV         1 TEMP              0 ****  ****    0 ROOT
