@<TRIPOS>MOLECULE
FBV
   17    17     1     0     0
SMALL
bcc


@<TRIPOS>ATOM
      1 C1         -3.0600   -0.2690   -0.0090 ca        1 FBV     -0.049000
      2 C2         -2.3560   -1.4730    0.0610 ca        1 FBV     -0.166000
      3 C3         -0.9650   -1.4630    0.0510 ca        1 FBV     -0.009000
      4 C4         -0.2350   -0.2680   -0.0260 ca        1 FBV     -0.399500
      5 C5         -0.9670    0.9350   -0.1060 ca        1 FBV      0.233900
      6 C6         -2.3760    0.9380   -0.0950 ca        1 FBV     -0.189000
      7 S           1.4680   -0.3750    0.0360 sy        1 FBV      1.529200
      8 N2          1.9270    0.4900   -1.2240 n3        1 FBV     -1.027700
      9 O1          1.9040    0.2280    1.2280 o         1 FBV     -0.652800
     10 O2          1.8240   -1.7270   -0.1630 o         1 FBV     -0.652800
     11 F          -0.3180    2.1200   -0.2040 f         1 FBV     -0.137900
     12 H1         -4.1610   -0.2720    0.0030 ha        1 FBV      0.143000
     13 H2         -2.8990   -2.4270    0.1250 ha        1 FBV      0.147000
     14 H6         -2.9150    1.8940   -0.1510 ha        1 FBV      0.156000
     15 H3         -0.4120   -2.4210    0.1030 ha        1 FBV      0.170000
     16 H21N        1.9550    1.4800   -1.2270 hn        1 FBV      0.452800
     17 H22N        2.2060    0.0940   -2.0870 hn        1 FBV      0.452800
@<TRIPOS>BOND
     1    1    2 ar  
     2    1    6 ar  
     3    1   12 1   
     4    2    3 ar  
     5    2   13 1   
     6    3    4 ar  
     7    3   15 1   
     8    4    5 ar  
     9    4    7 1   
    10    5    6 ar  
    11    5   11 1   
    12    6   14 1   
    13    7    8 1   
    14    7    9 2   
    15    7   10 2   
    16    8   16 1   
    17    8   17 1   
@<TRIPOS>SUBSTRUCTURE
     1 FBV         1 TEMP              0 ****  ****    0 ROOT
