@<TRIPOS>MOLECULE
FBV
   18    18     1     0     0
SMALL
bcc


@<TRIPOS>ATOM
      1 C1          0.0660    0.0490   -0.0270 ca        1 FBV      0.024000
      2 C2          1.4650   -0.0140    0.0130 ca        1 FBV     -0.149000
      3 C3          2.1250   -0.0470    1.2300 ca        1 FBV      0.018000
      4 C4          1.4260   -0.0250    2.4640 ca        1 FBV     -0.573500
      5 C5          0.0080    0.0840    2.3860 ca        1 FBV      0.263900
      6 C6         -0.6660    0.1070    1.1570 ca        1 FBV     -0.173000
      7 S           2.2790   -0.2280    3.8170 sy        1 FBV      1.490200
      8 N2          1.7990    1.4040    4.6780 nz        1 FBV     -0.789500
      9 O1          1.7730   -1.1270    4.7240 o         1 FBV     -0.557300
     10 O2          3.6370   -0.0510    3.6600 o         1 FBV     -0.557300
     11 F          -0.6960    0.1920    3.5350 f         1 FBV     -0.120900
     12 H1         -0.4600    0.0590   -0.9990 ha        1 FBV      0.183000
     13 H2          2.0420   -0.0440   -0.9280 ha        1 FBV      0.184000
     14 H6         -1.7680    0.1700    1.1420 ha        1 FBV      0.193000
     15 H3          3.2320   -0.1030    1.2450 ha        1 FBV      0.182000
     16 H21N        1.4130    1.2100    5.6030 hn        1 FBV      0.460800
     17 H22N        2.6150    2.0030    4.8010 hn        1 FBV      0.460800
     18 H23         1.1000    1.9290    4.1600 hn        1 FBV      0.460800
@<TRIPOS>BOND
     1    1    2 ar  
     2    1    6 ar  
     3    1   12 1   
     4    2    3 ar  
     5    2   13 1   
     6    3    4 ar  
     7    3   15 1   
     8    4    5 ar  
     9    4    7 1   
    10    5    6 ar  
    11    5   11 1   
    12    6   14 1   
    13    7    8 1   
    14    7    9 2   
    15    7   10 2   
    16    8   16 1   
    17    8   17 1   
    18    8   18 1   
@<TRIPOS>SUBSTRUCTURE
     1 FBV         1 TEMP              0 ****  ****    0 ROOT
