@<TRIPOS>MOLECULE
FBV
   18    18     1     0     0
SMALL
bcc


@<TRIPOS>ATOM
      1 C1          0.0540    0.0480   -0.0210 ca        1 FBV      0.024000
      2 C2          1.4520   -0.0250    0.0140 ca        1 FBV     -0.149000
      3 C3          2.1170   -0.0580    1.2270 ca        1 FBV      0.018000
      4 C4          1.4240   -0.0260    2.4640 ca        1 FBV     -0.573500
      5 C5          0.0060    0.0920    2.3920 ca        1 FBV      0.263900
      6 C6         -0.6720    0.1150    1.1660 ca        1 FBV     -0.173000
      7 S           2.2820   -0.2290    3.8140 sy        1 FBV      1.490200
      8 N2          1.8170    1.4090    4.6710 n4        1 FBV     -0.789500
      9 O1          1.7730   -1.1210    4.7270 o         1 FBV     -0.557300
     10 O2          3.6400   -0.0630    3.6510 o         1 FBV     -0.557300
     11 F          -0.6920    0.2100    3.5440 f         1 FBV     -0.120900
     12 H1         -0.4770    0.0570   -0.9900 ha        1 FBV      0.183000
     13 H2          2.0250   -0.0620   -0.9300 ha        1 FBV      0.184000
     14 H6         -1.7740    0.1850    1.1560 ha        1 FBV      0.193000
     15 H3          3.2240   -0.1210    1.2380 ha        1 FBV      0.182000
     16 H21N        1.4340    1.2220    5.5990 hn        1 FBV      0.460800
     17 H22N        2.6370    2.0030    4.7870 hn        1 FBV      0.460800
     18 H23         1.1180    1.9360    4.1540 hn        1 FBV      0.460800
@<TRIPOS>BOND
     1    1    2 ar  
     2    1    6 ar  
     3    1   12 1   
     4    2    3 ar  
     5    2   13 1   
     6    3    4 ar  
     7    3   15 1   
     8    4    5 ar  
     9    4    7 1   
    10    5    6 ar  
    11    5   11 1   
    12    6   14 1   
    13    7    8 1   
    14    7    9 2   
    15    7   10 2   
    16    8   16 1   
    17    8   17 1   
    18    8   18 1   
@<TRIPOS>SUBSTRUCTURE
     1 FBV         1 TEMP              0 ****  ****    0 ROOT
