@<TRIPOS>MOLECULE
FBW
   18    18     1     0     0
SMALL
bcc


@<TRIPOS>ATOM
      1 C1          0.0620    0.0700   -0.0100 ca        1 FBW     -0.034000
      2 C2          1.4760    0.0340    0.0380 ca        1 FBW      0.129900
      3 C3          2.1350   -0.0380    1.2710 ca        1 FBW     -0.051000
      4 C4          1.4010   -0.0670    2.4750 ca        1 FBW     -0.518500
      5 C5         -0.0070   -0.0320    2.4030 ca        1 FBW     -0.002000
      6 C6         -0.6620    0.0360    1.1780 ca        1 FBW     -0.121000
      7 S           2.1530   -0.2380    3.8830 sy        1 FBW      1.488200
      8 N2          2.4320    1.6280    4.2530 nz        1 FBW     -0.788500
      9 O1          1.3380   -0.5640    4.9440 o         1 FBW     -0.559300
     10 O2          3.4640   -0.6520    3.8070 o         1 FBW     -0.559300
     11 F           2.1900    0.0660   -1.1070 f         1 FBW     -0.094900
     12 H1         -0.4480    0.1180   -0.9890 ha        1 FBW      0.192000
     13 H6         -1.7660    0.0540    1.1470 ha        1 FBW      0.184000
     14 H3          3.2400   -0.0990    1.2880 ha        1 FBW      0.185000
     15 H5         -0.6010   -0.0820    3.3360 ha        1 FBW      0.175000
     16 H21N        3.4270    1.8230    4.3560 hn        1 FBW      0.458133
     17 H22N        2.0710    2.2310    3.5200 hn        1 FBW      0.458133
     18 H23         1.9740    1.8880    5.1260 hn        1 FBW      0.458133
@<TRIPOS>BOND
     1    1    2 ar  
     2    1    6 ar  
     3    1   12 1   
     4    2    3 ar  
     5    2   11 1   
     6    3    4 ar  
     7    3   14 1   
     8    4    5 ar  
     9    4    7 1   
    10    5    6 ar  
    11    5   15 1   
    12    6   13 1   
    13    7    8 1   
    14    7    9 2   
    15    7   10 2   
    16    8   16 1   
    17    8   17 1   
    18    8   18 1   
@<TRIPOS>SUBSTRUCTURE
     1 FBW         1 TEMP              0 ****  ****    0 ROOT
