@<TRIPOS>MOLECULE
FBW
   18    18     1     0     0
SMALL
bcc


@<TRIPOS>ATOM
      1 C1          0.0650    0.0560   -0.0100 ca        1 FBW     -0.034000
      2 C2          1.4780    0.0110    0.0420 ca        1 FBW      0.129900
      3 C3          2.1350   -0.0540    1.2770 ca        1 FBW     -0.051000
      4 C4          1.3980   -0.0660    2.4790 ca        1 FBW     -0.518500
      5 C5         -0.0090   -0.0220    2.4040 ca        1 FBW     -0.002000
      6 C6         -0.6620    0.0380    1.1770 ca        1 FBW     -0.121000
      7 S           2.1460   -0.2270    3.8910 sy        1 FBW      1.488200
      8 N2          2.4360    1.6400    4.2430 n4        1 FBW     -0.788500
      9 O1          1.3260   -0.5370    4.9530 o         1 FBW     -0.559300
     10 O2          3.4540   -0.6510    3.8210 o         1 FBW     -0.559300
     11 F           2.1960    0.0260   -1.1020 f         1 FBW     -0.094900
     12 H1         -0.4430    0.0980   -0.9910 ha        1 FBW      0.192000
     13 H6         -1.7660    0.0640    1.1430 ha        1 FBW      0.184000
     14 H3          3.2390   -0.1220    1.2970 ha        1 FBW      0.185000
     15 H5         -0.6060   -0.0580    3.3360 ha        1 FBW      0.175000
     16 H21N        3.4320    1.8290    4.3460 hn        1 FBW      0.458133
     17 H22N        2.0810    2.2390    3.5030 hn        1 FBW      0.458133
     18 H23         1.9790    1.9110    5.1120 hn        1 FBW      0.458133
@<TRIPOS>BOND
     1    1    2 ar  
     2    1    6 ar  
     3    1   12 1   
     4    2    3 ar  
     5    2   11 1   
     6    3    4 ar  
     7    3   14 1   
     8    4    5 ar  
     9    4    7 1   
    10    5    6 ar  
    11    5   15 1   
    12    6   13 1   
    13    7    8 1   
    14    7    9 2   
    15    7   10 2   
    16    8   16 1   
    17    8   17 1   
    18    8   18 1   
@<TRIPOS>SUBSTRUCTURE
     1 FBW         1 TEMP              0 ****  ****    0 ROOT
