@<TRIPOS>MOLECULE
FBW
   17    13     1     0     0
SMALL
bcc


@<TRIPOS>ATOM
      1 C1         -1.2800    0.2040   -2.1910 c1        1 FBW     -0.119000
      2 C2          0.1050    0.1500   -2.1840 c1        1 FBW      0.067000
      3 C3          0.7930    0.1560   -0.9810 c1        1 FBW     -0.059000
      4 C4          0.0960    0.2160    0.2150 c1        1 FBW     -0.795000
      5 C5         -1.2890    0.2710    0.2090 c1        1 FBW     -0.036000
      6 C6         -1.9770    0.2650   -0.9940 c1        1 FBW     -0.119000
      7 S           0.9780    0.2640    1.7530 s4        1 FBW      2.080800
      8 N2          1.3030   -1.2610    2.2690 n2        1 FBW     -0.954000
      9 O1          0.2540    1.0070    2.7460 o         1 FBW     -0.541400
     10 O2          2.1790    1.0440    1.6410 o         1 FBW     -0.541400
     11 F           0.7790    0.1210   -3.3410 f         1 FBW     -0.100000
     12 H1         -1.7650    0.2000   -3.0380 ha        1 FBW      0.150500
     13 H6         -2.9520    0.3030   -0.9990 ha        1 FBW      0.150500
     14 H3          1.7680    0.1170   -0.9770 ha        1 FBW      0.168000
     15 H5         -1.7790    0.3140    1.0520 ha        1 FBW      0.159000
     16 H21N        0.6390   -1.7700    2.6360 hn        1 FBW      0.245000
     17 H22N        2.1470   -1.6020    2.1850 hn        1 FBW      0.245000
@<TRIPOS>BOND
     1    1    6 1   
     2    1   12 1   
     3    2    3 1   
     4    2   11 1   
     5    3   14 1   
     6    4    5 1   
     7    4    7 1   
     8    5   15 1   
     9    6   13 1   
    10    7    9 1   
    11    7   10 1   
    12    8   16 1   
    13    8   17 1   
@<TRIPOS>SUBSTRUCTURE
     1 FBW         1 TEMP              0 ****  ****    0 ROOT
