@<TRIPOS>MOLECULE
FBW
   17    17     1     0     0
SMALL
bcc


@<TRIPOS>ATOM
      1 C1         -2.6290    0.9470   -0.0730 ca        1 FBW     -0.107000
      2 C2         -2.2550   -0.4110   -0.0780 ca        1 FBW      0.101900
      3 C3         -0.8980   -0.7710   -0.0210 ca        1 FBW     -0.059000
      4 C4          0.0860    0.2170    0.0350 ca        1 FBW     -0.350500
      5 C5         -0.2950    1.5620    0.0480 ca        1 FBW     -0.036000
      6 C6         -1.6400    1.9240   -0.0060 ca        1 FBW     -0.131000
      7 S           1.7280   -0.2130    0.1230 sy        1 FBW      1.525200
      8 N2          2.1510   -0.3310   -1.4160 n3        1 FBW     -1.027700
      9 O1          2.4280    0.8570    0.7180 o         1 FBW     -0.653800
     10 O2          1.8190   -1.4820    0.7290 o         1 FBW     -0.653800
     11 F          -3.2080   -1.3720   -0.1370 f         1 FBW     -0.134900
     12 H1         -3.6940    1.2200   -0.1160 ha        1 FBW      0.154000
     13 H6         -1.9240    2.9880    0.0090 ha        1 FBW      0.147000
     14 H3         -0.6180   -1.8390    0.0010 ha        1 FBW      0.168000
     15 H5          0.4820    2.3440    0.1220 ha        1 FBW      0.159000
     16 H21N        2.1000   -1.1700   -1.9360 hn        1 FBW      0.449800
     17 H22N        2.5170    0.4220   -1.9430 hn        1 FBW      0.449800
@<TRIPOS>BOND
     1    1    2 ar  
     2    1    6 ar  
     3    1   12 1   
     4    2    3 ar  
     5    2   11 1   
     6    3    4 ar  
     7    3   14 1   
     8    4    5 ar  
     9    4    7 1   
    10    5    6 ar  
    11    5   15 1   
    12    6   13 1   
    13    7    8 1   
    14    7    9 2   
    15    7   10 2   
    16    8   16 1   
    17    8   17 1   
@<TRIPOS>SUBSTRUCTURE
     1 FBW         1 TEMP              0 ****  ****    0 ROOT
