@<TRIPOS>MOLECULE
FBW
   18    18     1     0     0
SMALL
bcc


@<TRIPOS>ATOM
      1 C1          0.0660    0.0630   -0.0110 ca        1 FBW     -0.034000
      2 C2          1.4780    0.0190    0.0400 ca        1 FBW      0.129900
      3 C3          2.1350   -0.0490    1.2750 ca        1 FBW     -0.051000
      4 C4          1.3980   -0.0670    2.4780 ca        1 FBW     -0.518500
      5 C5         -0.0090   -0.0240    2.4020 ca        1 FBW     -0.002000
      6 C6         -0.6620    0.0410    1.1760 ca        1 FBW     -0.121000
      7 S           2.1460   -0.2320    3.8890 sy        1 FBW      1.488200
      8 N2          2.4350    1.6340    4.2470 n4        1 FBW     -0.788500
      9 O1          1.3270   -0.5470    4.9500 o         1 FBW     -0.559300
     10 O2          3.4540   -0.6550    3.8180 o         1 FBW     -0.559300
     11 F           2.1960    0.0400   -1.1030 f         1 FBW     -0.094900
     12 H1         -0.4430    0.1080   -0.9920 ha        1 FBW      0.192000
     13 H6         -1.7660    0.0650    1.1420 ha        1 FBW      0.184000
     14 H3          3.2400   -0.1170    1.2950 ha        1 FBW      0.185000
     15 H5         -0.6060   -0.0630    3.3340 ha        1 FBW      0.175000
     16 H21N        1.9770    1.9020    5.1170 hn        1 FBW      0.458133
     17 H22N        2.0800    2.2350    3.5100 hn        1 FBW      0.458133
     18 H23         3.4310    1.8230    4.3510 hn        1 FBW      0.458133
@<TRIPOS>BOND
     1    1    2 ar  
     2    1    6 ar  
     3    1   12 1   
     4    2    3 ar  
     5    2   11 1   
     6    3    4 ar  
     7    3   14 1   
     8    4    5 ar  
     9    4    7 1   
    10    5    6 ar  
    11    5   15 1   
    12    6   13 1   
    13    7    8 1   
    14    7    9 2   
    15    7   10 2   
    16    8   16 1   
    17    8   17 1   
    18    8   18 1   
@<TRIPOS>SUBSTRUCTURE
     1 FBW         1 TEMP              0 ****  ****    0 ROOT
