@<TRIPOS>MOLECULE
FBZ
   23    23     1     0     0
SMALL
bcc


@<TRIPOS>ATOM
      1 CAA         0.7740   -0.8810   -1.6650 c3        1 FBZ     -0.076100
      2 OAB         3.0570   -1.0200    0.8300 o         1 FBZ     -0.849800
      3 OAC         3.7110    0.9890    0.1110 o         1 FBZ     -0.849800
      4 CAD        -3.7160    0.3850    0.2620 ca        1 FBZ     -0.159000
      5 CAE        -3.1630   -0.7240    0.9010 ca        1 FBZ     -0.140000
      6 CAF        -2.9070    1.1970   -0.5330 ca        1 FBZ     -0.140000
      7 CAG        -1.8100   -1.0210    0.7450 ca        1 FBZ     -0.133000
      8 CAH        -1.5550    0.9010   -0.6900 ca        1 FBZ     -0.133000
      9 CAI         1.3480    0.5950    0.2640 c3        1 FBZ     -0.190400
     10 CAJ         2.8150    0.1480    0.4080 c         1 FBZ      0.907600
     11 CAK        -0.9900   -0.2140   -0.0540 ca        1 FBZ     -0.037300
     12 CAL         0.4610   -0.5410   -0.2210 c3        1 FBZ     -0.027400
     13 HAA         1.8660   -1.1090   -1.7480 hc        1 FBZ      0.028700
     14 HAAA        0.1880   -1.7710   -1.9980 hc        1 FBZ      0.028700
     15 HAAB        0.5330   -0.0240   -2.3390 hc        1 FBZ      0.028700
     16 HAD        -4.7820    0.6190    0.3850 ha        1 FBZ      0.110000
     17 HAE        -3.7950   -1.3650    1.5330 ha        1 FBZ      0.112500
     18 HAF        -3.3370    2.0750   -1.0350 ha        1 FBZ      0.112500
     19 HAG        -1.3770   -1.8930    1.2570 ha        1 FBZ      0.135000
     20 HAH        -0.9140    1.5470   -1.3090 ha        1 FBZ      0.135000
     21 HAI         1.0000    0.9430    1.2680 hc        1 FBZ      0.026200
     22 HAIA        1.2930    1.4600   -0.4420 hc        1 FBZ      0.026200
     23 HAL         0.7170   -1.4440    0.4100 hc        1 FBZ      0.083700
@<TRIPOS>BOND
     1    1   12 1   
     2    1   13 1   
     3    1   14 1   
     4    1   15 1   
     5    2   10 1   
     6    3   10 1   
     7    4    5 ar  
     8    4    6 ar  
     9    4   16 1   
    10    5    7 ar  
    11    5   17 1   
    12    6    8 ar  
    13    6   18 1   
    14    7   11 ar  
    15    7   19 1   
    16    8   11 ar  
    17    8   20 1   
    18    9   10 1   
    19    9   12 1   
    20    9   21 1   
    21    9   22 1   
    22   11   12 1   
    23   12   23 1   
@<TRIPOS>SUBSTRUCTURE
     1 FBZ         1 TEMP              0 ****  ****    0 ROOT
