@<TRIPOS>MOLECULE
FBZ
   23    23     1     0     0
SMALL
bcc


@<TRIPOS>ATOM
      1 CAA        -0.0490    0.0390    0.0290 c3        1 FBZ     -0.076100
      2 OAB         1.8320   -0.0940   -2.7830 o         1 FBZ     -0.849800
      3 OAC         1.4560    2.1020   -2.9310 o         1 FBZ     -0.849800
      4 CAD         2.9900    0.0180    4.0590 ca        1 FBZ     -0.159000
      5 CAE         3.2410   -1.0560    3.2050 ca        1 FBZ     -0.140000
      6 CAF         2.2470    1.1050    3.5990 ca        1 FBZ     -0.140000
      7 CAG         2.7480   -1.0460    1.9010 ca        1 FBZ     -0.133000
      8 CAH         1.7540    1.1160    2.2960 ca        1 FBZ     -0.133000
      9 CAI         2.0000    1.2250   -0.7630 c3        1 FBZ     -0.190400
     10 CAJ         1.7380    1.0600   -2.2720 c         1 FBZ      0.907600
     11 CAK         1.9970    0.0400    1.4310 ca        1 FBZ     -0.037300
     12 CAL         1.4680    0.0430    0.0310 c3        1 FBZ     -0.027400
     13 HAA        -0.4020    0.0510   -1.0330 hc        1 FBZ      0.028700
     14 HAAA       -0.4510    0.9380    0.5530 hc        1 FBZ      0.028700
     15 HAAB       -0.4430   -0.8740    0.5350 hc        1 FBZ      0.028700
     16 HAD         3.3780    0.0090    5.0860 ha        1 FBZ      0.110000
     17 HAE         3.8300   -1.9130    3.5610 ha        1 FBZ      0.112500
     18 HAF         2.0510    1.9560    4.2660 ha        1 FBZ      0.112500
     19 HAG         2.9540   -1.8920    1.2290 ha        1 FBZ      0.135000
     20 HAH         1.1750    1.9780    1.9290 ha        1 FBZ      0.135000
     21 HAI         3.1060    1.3090   -0.6190 hc        1 FBZ      0.026200
     22 HAIA        1.5300    2.1750   -0.4090 hc        1 FBZ      0.026200
     23 HAL         1.8170   -0.8900   -0.5040 hc        1 FBZ      0.083700
@<TRIPOS>BOND
     1    1   12 1   
     2    1   13 1   
     3    1   14 1   
     4    1   15 1   
     5    2   10 1   
     6    3   10 1   
     7    4    5 ar  
     8    4    6 ar  
     9    4   16 1   
    10    5    7 ar  
    11    5   17 1   
    12    6    8 ar  
    13    6   18 1   
    14    7   11 ar  
    15    7   19 1   
    16    8   11 ar  
    17    8   20 1   
    18    9   10 1   
    19    9   12 1   
    20    9   21 1   
    21    9   22 1   
    22   11   12 1   
    23   12   23 1   
@<TRIPOS>SUBSTRUCTURE
     1 FBZ         1 TEMP              0 ****  ****    0 ROOT
