@<TRIPOS>MOLECULE
FBZ
   23    20     1     0     0
SMALL
bcc


@<TRIPOS>ATOM
      1 CAA        -1.9420   -0.2480   -0.9650 c3        1 FBZ     -0.076100
      2 OAB         1.6620    0.1220   -3.2350 o         1 FBZ     -0.849800
      3 OAC        -0.1800    0.9370   -4.0700 o         1 FBZ     -0.849800
      4 CAD         1.0420   -0.3530    3.0340 c1        1 FBZ     -0.086250
      5 CAE         1.4030   -1.3460    2.1370 c1        1 FBZ     -0.086250
      6 CAF         0.2100    0.6780    2.6290 c1        1 FBZ     -0.086250
      7 CAG         0.9310   -1.3080    0.8340 c1        1 FBZ     -0.086250
      8 CAH        -0.2630    0.7160    1.3260 c1        1 FBZ     -0.072500
      9 CAI         0.0600    1.0110   -1.6790 c3        1 FBZ     -0.190400
     10 CAJ         0.5380    0.6650   -3.0720 c         1 FBZ      0.907600
     11 CAK         0.0980   -0.2770    0.4290 c1        1 FBZ     -0.003100
     12 CAL        -0.4290   -0.2430   -0.9890 c3        1 FBZ     -0.061600
     13 HAA        -2.2670    0.6400   -0.7040 hc        1 FBZ      0.028700
     14 HAAA       -2.2560   -0.9140   -0.3180 hc        1 FBZ      0.028700
     15 HAAB       -2.2820   -0.4720   -1.8560 hc        1 FBZ      0.028700
     16 HAD         1.3750   -0.3790    3.9510 ha        1 FBZ      0.059500
     17 HAE         1.9900   -2.0720    2.4220 ha        1 FBZ      0.059500
     18 HAF        -0.0440    1.3780    3.2610 ha        1 FBZ      0.059500
     19 HAG         1.1850   -2.0070    0.2020 ha        1 FBZ      0.059500
     20 HAH        -0.8490    1.4430    1.0410 ha        1 FBZ      0.079500
     21 HAI         0.7990    1.3980   -1.1680 hc        1 FBZ      0.026200
     22 HAIA       -0.6710    1.6580   -1.7370 hc        1 FBZ      0.026200
     23 HAL        -0.1090   -1.0280   -1.4740 hc        1 FBZ      0.083700
@<TRIPOS>BOND
     1    1   12 1   
     2    1   13 1   
     3    1   14 1   
     4    1   15 1   
     5    2   10 1   
     6    3   10 1   
     7    4    6 3   
     8    4   16 1   
     9    5    7 3   
    10    5   17 1   
    11    6   18 1   
    12    7   19 1   
    13    8   11 3   
    14    8   20 1   
    15    9   10 1   
    16    9   12 1   
    17    9   21 1   
    18    9   22 1   
    19   11   12 1   
    20   12   23 1   
@<TRIPOS>SUBSTRUCTURE
     1 FBZ         1 TEMP              0 ****  ****    0 ROOT
