@<TRIPOS>MOLECULE
FBZ
   23    23     1     0     0
SMALL
bcc


@<TRIPOS>ATOM
      1 CAA        -0.0580    0.1030    0.0290 c3        1 FBZ     -0.076100
      2 OAB         1.8160   -0.2070   -2.7680 o         1 FBZ     -0.849800
      3 OAC         1.5620    2.0000   -2.9850 o         1 FBZ     -0.849800
      4 CAD         2.9640    0.0540    4.0720 ca        1 FBZ     -0.159000
      5 CAE         3.1650   -1.0560    3.2520 ca        1 FBZ     -0.140000
      6 CAF         2.2760    1.1610    3.5760 ca        1 FBZ     -0.140000
      7 CAG         2.6770   -1.0610    1.9460 ca        1 FBZ     -0.133000
      8 CAH         1.7890    1.1580    2.2720 ca        1 FBZ     -0.133000
      9 CAI         2.0500    1.1620   -0.7890 c3        1 FBZ     -0.190400
     10 CAJ         1.7840    0.9650   -2.2940 c         1 FBZ      0.907600
     11 CAK         1.9810    0.0450    1.4410 ca        1 FBZ     -0.037300
     12 CAL         1.4580    0.0320    0.0380 c3        1 FBZ     -0.027400
     13 HAA        -0.4170    1.0380    0.5230 hc        1 FBZ      0.028700
     14 HAAA       -0.4070    0.1000   -1.0340 hc        1 FBZ      0.028700
     15 HAAB       -0.4980   -0.7730    0.5620 hc        1 FBZ      0.028700
     16 HAD         3.3490    0.0570    5.1000 ha        1 FBZ      0.110000
     17 HAE         3.7110   -1.9300    3.6350 ha        1 FBZ      0.112500
     18 HAF         2.1210    2.0410    4.2170 ha        1 FBZ      0.112500
     19 HAG         2.8440   -1.9360    1.3000 ha        1 FBZ      0.135000
     20 HAH         1.2540    2.0350    1.8770 ha        1 FBZ      0.135000
     21 HAI         1.6270    2.1450   -0.4650 hc        1 FBZ      0.026200
     22 HAIA        3.1580    1.1950   -0.6430 hc        1 FBZ      0.026200
     23 HAL         1.7610   -0.9330   -0.4670 hc        1 FBZ      0.083700
@<TRIPOS>BOND
     1    1   12 1   
     2    1   13 1   
     3    1   14 1   
     4    1   15 1   
     5    2   10 1   
     6    3   10 1   
     7    4    5 ar  
     8    4    6 ar  
     9    4   16 1   
    10    5    7 ar  
    11    5   17 1   
    12    6    8 ar  
    13    6   18 1   
    14    7   11 ar  
    15    7   19 1   
    16    8   11 ar  
    17    8   20 1   
    18    9   10 1   
    19    9   12 1   
    20    9   21 1   
    21    9   22 1   
    22   11   12 1   
    23   12   23 1   
@<TRIPOS>SUBSTRUCTURE
     1 FBZ         1 TEMP              0 ****  ****    0 ROOT
