@<TRIPOS>MOLECULE
FC0
   24    24     1     0     0
SMALL
bcc


@<TRIPOS>ATOM
      1 CD1        -1.7720    0.6450    0.3030 ca        1 FC0     -0.138500
      2 CE1        -3.0840    1.0770    0.4920 ca        1 FC0     -0.154500
      3 CZ         -4.1490    0.1770    0.4420 ca        1 FC0     -0.181000
      4 CE2        -3.8940   -1.1710    0.1960 ca        1 FC0     -0.154500
      5 CD2        -2.5850   -1.6070    0.0060 ca        1 FC0     -0.138500
      6 CG         -1.5050   -0.7090    0.0580 ca        1 FC0     -0.020300
      7 CB         -0.1370   -1.2580   -0.1330 c3        1 FC0     -0.041100
      8 CA          1.0620   -0.2870   -0.0410 c3        1 FC0     -0.021300
      9 C           2.2920   -1.2270    0.2050 c         1 FC0      0.891600
     10 O           3.0540   -1.5410   -0.7560 o         1 FC0     -0.868800
     11 OXT         2.4510   -1.6800    1.3790 o         1 FC0     -0.868800
     12 N           1.1790    0.5700   -1.1940 n         1 FC0     -0.573900
     13 C1          1.2210    1.9990   -1.0330 c         1 FC0      0.984600
     14 O1          0.6840    2.5570   -0.0170 o         1 FC0     -0.882800
     15 OX0         1.7470    2.6760   -1.9760 o         1 FC0     -0.882800
     16 HD1        -0.9320    1.3780    0.3270 ha        1 FC0      0.170000
     17 HE1        -3.2770    2.1430    0.6770 ha        1 FC0      0.099500
     18 HZ         -5.1790    0.5260    0.5920 ha        1 FC0      0.088000
     19 HE2        -4.7240   -1.8890    0.1510 ha        1 FC0      0.099500
     20 HD2        -2.3880   -2.6710   -0.1890 ha        1 FC0      0.170000
     21 HB1         0.0260   -2.0400    0.6630 hc        1 FC0      0.045200
     22 HB2        -0.1040   -1.7810   -1.1270 hc        1 FC0      0.045200
     23 HA          0.9330    0.3430    0.8870 h1        1 FC0      0.062700
     24 H           1.8760    0.2380   -1.8290 hn        1 FC0      0.269500
@<TRIPOS>BOND
     1    1    2 ar  
     2    1    6 ar  
     3    1   16 1   
     4    2    3 ar  
     5    2   17 1   
     6    3    4 ar  
     7    3   18 1   
     8    4    5 ar  
     9    4   19 1   
    10    5    6 ar  
    11    5   20 1   
    12    6    7 1   
    13    7    8 1   
    14    7   21 1   
    15    7   22 1   
    16    8    9 1   
    17    8   12 1   
    18    8   23 1   
    19    9   10 1   
    20    9   11 1   
    21   12   13 1   
    22   12   24 1   
    23   13   14 1   
    24   13   15 1   
@<TRIPOS>SUBSTRUCTURE
     1 FC0         1 TEMP              0 ****  ****    0 ROOT
