@<TRIPOS>MOLECULE
FC0
   24    21     1     0     0
SMALL
bcc


@<TRIPOS>ATOM
      1 CD1         1.4330    0.5990   -1.0920 c1        1 FC0     -0.092500
      2 CE1         2.8320    0.6010   -1.0860 c1        1 FC0     -0.096500
      3 CZ          3.5180    0.7910    0.1010 c1        1 FC0     -0.096500
      4 CE2         2.8090    0.9810    1.2960 c1        1 FC0     -0.096500
      5 CD2         1.4170    0.9790    1.2890 c1        1 FC0     -0.096500
      6 CG          0.7290    0.7880    0.0960 c1        1 FC0      0.027900
      7 CB         -0.8250    0.8330    0.0770 c3        1 FC0     -0.115300
      8 CA         -1.3750   -0.5840   -0.0530 c3        1 FC0      0.000700
      9 C          -1.5520   -1.1910    1.3350 c         1 FC0      0.904600
     10 O          -0.9330   -2.2430    1.6470 o         1 FC0     -0.870300
     11 OXT        -2.3390   -0.6470    2.1690 o         1 FC0     -0.870300
     12 N          -2.6330   -0.5460   -0.7200 n         1 FC0     -0.559900
     13 C1         -3.1660   -1.7100   -1.2710 c         1 FC0      0.974600
     14 O1         -2.4050   -2.6520   -1.5970 o         1 FC0     -0.881800
     15 OX0        -4.4000   -1.7770   -1.5280 o         1 FC0     -0.881800
     16 HD1         0.9570    0.4670   -1.9140 ha        1 FC0      0.063500
     17 HE1         3.3320    0.5450   -1.9460 ha        1 FC0      0.065750
     18 HZ          4.4930    0.7060    0.1200 ha        1 FC0      0.065750
     19 HE2         3.2860    1.1140    2.1220 ha        1 FC0      0.065750
     20 HD2         0.9230    1.2280    2.1060 ha        1 FC0      0.065750
     21 HB1        -1.1550    1.2390    0.9180 hc        1 FC0      0.058700
     22 HB2        -1.1270    1.3700   -0.6850 hc        1 FC0      0.058700
     23 HA         -0.7300   -1.1470   -0.5860 h1        1 FC0      0.049700
     24 H          -3.0920    0.2560   -0.7980 hn        1 FC0      0.256500
@<TRIPOS>BOND
     1    1    6 3   
     2    1   16 1   
     3    2    3 3   
     4    2   17 1   
     5    3   18 1   
     6    4    5 3   
     7    4   19 1   
     8    5   20 1   
     9    6    7 1   
    10    7    8 1   
    11    7   21 1   
    12    7   22 1   
    13    8    9 1   
    14    8   12 1   
    15    8   23 1   
    16    9   10 1   
    17    9   11 1   
    18   12   13 1   
    19   12   24 1   
    20   13   14 1   
    21   13   15 1   
@<TRIPOS>SUBSTRUCTURE
     1 FC0         1 TEMP              0 ****  ****    0 ROOT
