@<TRIPOS>MOLECULE
FC1
   35    31     1     0     0
SMALL
bcc


@<TRIPOS>ATOM
      1 O6          0.7450    0.1000    1.5320 os        1 FC1     -0.211000
      2 S7          4.3400    1.2870   -0.7760 s         1 FC1      0.313000
      3 C8          3.3150    3.6360   -1.0410 c1        1 FC1     -0.125000
      4 C9          1.1460    4.1810   -0.0700 c1        1 FC1     -0.118500
      5 C5          3.0820   -0.5470    0.5300 c1        1 FC1     -0.357000
      6 C1          2.0810    1.9420    0.2060 c1        1 FC1     -0.075000
      7 C2          1.9550    0.4900    0.7750 c1        1 FC1      0.173000
      8 C3          3.2070    2.3170   -0.5270 c1        1 FC1     -0.221000
      9 C4          1.0430    2.8770    0.4370 c1        1 FC1     -0.071000
     10 C10         4.2040   -0.1940   -0.1910 c1        1 FC1      0.142000
     11 C17        -3.0860   -1.8830   -1.6940 c3        1 FC1     -0.120500
     12 C18        -4.3330   -2.6920    0.2060 c3        1 FC1     -0.120500
     13 N16        -3.2300   -1.8010   -0.2340 n3        1 FC1     -0.263000
     14 C11         0.1620   -1.1190    1.0980 c3        1 FC1     -0.025000
     15 C12         2.2860    4.5630   -0.8120 c1        1 FC1     -0.118500
     16 O13         5.0960   -1.0170   -0.3840 o         1 FC1     -0.285000
     17 C14        -1.3640   -1.0010    1.1380 c3        1 FC1     -0.168000
     18 C15        -1.9970   -2.2130    0.3890 c3        1 FC1     -0.064000
     19 H8          4.1120    3.9010   -1.5580 ha        1 FC1      0.150000
     20 H9          0.4470    4.8090    0.0870 ha        1 FC1      0.140000
     21 H5          2.9950   -1.4840    0.9010 ha        1 FC1      0.165000
     22 H4          0.2730    2.6190    0.9380 ha        1 FC1      0.155000
     23 H171       -2.9220   -2.8430   -1.9630 h1        1 FC1      0.072000
     24 H172       -3.9130   -1.5560   -2.1260 h1        1 FC1      0.072000
     25 H173       -2.3350   -1.3340   -1.9770 h1        1 FC1      0.072000
     26 H181       -4.4170   -2.6500    1.1630 h1        1 FC1      0.072000
     27 H182       -4.1320   -3.6430   -0.0740 h1        1 FC1      0.072000
     28 H183       -5.1690   -2.4010   -0.2060 h1        1 FC1      0.072000
     29 H111        0.4470   -1.3080    0.1900 h1        1 FC1      0.089500
     30 H112        0.4600   -1.8740    1.7110 h1        1 FC1      0.089500
     31 H12         2.3560    5.4440   -1.1550 ha        1 FC1      0.140000
     32 H141       -1.6410   -0.1620    0.7000 hc        1 FC1      0.104500
     33 H142       -1.6730   -0.9980    2.0890 hc        1 FC1      0.104500
     34 H151       -2.1710   -2.9100    1.0040 h1        1 FC1      0.071500
     35 H152       -1.3710   -2.5350   -0.3050 h1        1 FC1      0.071500
@<TRIPOS>BOND
     1    1    7 1   
     2    1   14 1   
     3    2    8 1   
     4    3    8 1   
     5    3   19 1   
     6    4   15 1   
     7    4   20 1   
     8    5   10 1   
     9    5   21 1   
    10    6    7 1   
    11    6    9 1   
    12    9   22 1   
    13   10   16 1   
    14   11   13 1   
    15   11   23 1   
    16   11   24 1   
    17   11   25 1   
    18   12   13 1   
    19   12   26 1   
    20   12   27 1   
    21   12   28 1   
    22   13   18 1   
    23   14   17 1   
    24   14   29 1   
    25   14   30 1   
    26   15   31 1   
    27   17   18 1   
    28   17   32 1   
    29   17   33 1   
    30   18   34 1   
    31   18   35 1   
@<TRIPOS>SUBSTRUCTURE
     1 FC1         1 TEMP              0 ****  ****    0 ROOT
