@<TRIPOS>MOLECULE
FC1
   36    37     1     0     0
SMALL
bcc


@<TRIPOS>ATOM
      1 O6          0.6160   -2.0970    2.9620 os        1 FC1     -0.301900
      2 S7          1.5720    0.4510   -0.5980 ss        1 FC1      0.042500
      3 C8          3.2600    1.4610    1.1180 ca        1 FC1     -0.117000
      4 C9          3.4870    0.8380    3.4440 ca        1 FC1     -0.123000
      5 C5          0.3600   -1.6620    0.6210 cc        1 FC1     -0.459200
      6 C1          1.8970   -0.3250    2.0330 ca        1 FC1     -0.101800
      7 C2          0.9300   -1.3850    1.8280 cd        1 FC1      0.260900
      8 C3          2.2610    0.4860    0.9420 ca        1 FC1     -0.016100
      9 C4          2.5120   -0.1330    3.2860 ca        1 FC1     -0.065000
     10 C10         0.4070   -0.7970   -0.5360 c         1 FC1      0.541900
     11 C17        -3.2330   -2.8370   -0.9690 c3        1 FC1      0.086600
     12 C18        -3.8250   -1.0280    0.5610 c3        1 FC1      0.086600
     13 N16        -2.8080   -2.0550    0.2230 nx        1 FC1     -0.690400
     14 C11        -0.4720   -3.0250    2.8730 c3        1 FC1      0.125400
     15 C12         3.8660    1.6350    2.3530 ca        1 FC1     -0.070000
     16 O13        -0.4450   -0.9550   -1.4410 o         1 FC1     -0.608100
     17 C14        -1.7980   -2.3390    2.5550 c3        1 FC1     -0.139400
     18 C15        -2.5510   -2.9730    1.3860 c3        1 FC1      0.112800
     19 H8          3.5580    2.0900    0.2620 ha        1 FC1      0.162000
     20 H9          3.9700    0.9840    4.4230 ha        1 FC1      0.159000
     21 H5         -0.1590   -2.6200    0.4610 ha        1 FC1      0.140000
     22 H4          2.2140   -0.7720    4.1330 ha        1 FC1      0.160000
     23 H171       -3.4330   -2.1270   -1.8170 hx        1 FC1      0.103367
     24 H172       -2.4050   -3.5340   -1.2680 hx        1 FC1      0.103367
     25 H173       -4.1610   -3.4200   -0.7310 hx        1 FC1      0.103367
     26 H181       -3.9120   -0.3020   -0.2920 hx        1 FC1      0.103367
     27 H182       -4.8180   -1.5190    0.7370 hx        1 FC1      0.103367
     28 H183       -3.5080   -0.4800    1.4880 hx        1 FC1      0.103367
     29 H111       -0.4890   -3.4540    3.9150 h1        1 FC1      0.085700
     30 H112       -0.2180   -3.8400    2.1460 h1        1 FC1      0.085700
     31 H12         4.6490    2.4010    2.4800 ha        1 FC1      0.159000
     32 H141       -2.4570   -2.4090    3.4640 hc        1 FC1      0.088700
     33 H142       -1.6060   -1.2440    2.3870 hc        1 FC1      0.088700
     34 H151       -1.9800   -3.8610    0.9860 hx        1 FC1      0.100200
     35 H152       -3.5570   -3.3410    1.7400 hx        1 FC1      0.100200
     36 H161       -1.9230   -1.5670   -0.0270 hn        1 FC1      0.487800
@<TRIPOS>BOND
     1    1    7 1   
     2    1   14 1   
     3    2    8 1   
     4    2   10 1   
     5    3    8 ar  
     6    3   15 ar  
     7    3   19 1   
     8    4    9 ar  
     9    4   15 ar  
    10    4   20 1   
    11    5    7 2   
    12    5   10 1   
    13    5   21 1   
    14    6    7 1   
    15    6    8 ar  
    16    6    9 ar  
    17    9   22 1   
    18   10   16 2   
    19   11   13 1   
    20   11   23 1   
    21   11   24 1   
    22   11   25 1   
    23   12   13 1   
    24   12   26 1   
    25   12   27 1   
    26   12   28 1   
    27   13   18 1   
    28   13   36 1   
    29   14   17 1   
    30   14   29 1   
    31   14   30 1   
    32   15   31 1   
    33   17   18 1   
    34   17   32 1   
    35   17   33 1   
    36   18   34 1   
    37   18   35 1   
@<TRIPOS>SUBSTRUCTURE
     1 FC1         1 TEMP              0 ****  ****    0 ROOT
