@<TRIPOS>MOLECULE
FC1
   36    37     1     0     0
SMALL
bcc


@<TRIPOS>ATOM
      1 O6          0.6720   -2.0100    2.9670 os        1 FC1     -0.301900
      2 S7          1.4770    0.4600   -0.6840 ss        1 FC1      0.042500
      3 C8          3.1580    1.5790    0.9700 ca        1 FC1     -0.117000
      4 C9          3.4460    1.0360    3.3080 ca        1 FC1     -0.123000
      5 C5          0.3620   -1.6560    0.6190 cc        1 FC1     -0.459200
      6 C1          1.8740   -0.2240    1.9620 ca        1 FC1     -0.101800
      7 C2          0.9420   -1.3230    1.8060 cd        1 FC1      0.260900
      8 C3          2.1910    0.5660    0.8410 ca        1 FC1     -0.016100
      9 C4          2.5030    0.0270    3.1970 ca        1 FC1     -0.065000
     10 C10         0.3580   -0.8250   -0.5640 c         1 FC1      0.541900
     11 C17        -3.2150   -3.0030   -0.8690 c3        1 FC1      0.086600
     12 C18        -3.8440   -1.1700    0.6170 c3        1 FC1      0.086600
     13 N16        -2.7970   -2.1710    0.2910 n4        1 FC1     -0.690400
     14 C11        -0.3830   -2.9790    2.9250 c3        1 FC1      0.125400
     15 C12         3.7790    1.8120    2.1880 ca        1 FC1     -0.070000
     16 O13        -0.5040   -1.0400   -1.4470 o         1 FC1     -0.608100
     17 C14        -1.7380   -2.3490    2.6120 c3        1 FC1     -0.139400
     18 C15        -2.4880   -3.0430    1.4760 c3        1 FC1      0.112800
     19 H8          3.4180    2.1920    0.0900 ha        1 FC1      0.162000
     20 H9          3.9410    1.2280    4.2740 ha        1 FC1      0.159000
     21 H5         -0.1260   -2.6360    0.4970 ha        1 FC1      0.140000
     22 H4          2.2430   -0.5960    4.0690 ha        1 FC1      0.160000
     23 H171       -3.4550   -2.3260   -1.7340 hx        1 FC1      0.103367
     24 H172       -2.3670   -3.6790   -1.1630 hx        1 FC1      0.103367
     25 H173       -4.1170   -3.6110   -0.5970 hx        1 FC1      0.103367
     26 H181       -3.9710   -0.4740   -0.2550 hx        1 FC1      0.103367
     27 H182       -4.8160   -1.6910    0.8260 hx        1 FC1      0.103367
     28 H183       -3.5310   -0.5840    1.5220 hx        1 FC1      0.103367
     29 H111       -0.3660   -3.3770    3.9800 h1        1 FC1      0.085700
     30 H112       -0.1120   -3.8060    2.2180 h1        1 FC1      0.085700
     31 H12         4.5350    2.6080    2.2770 ha        1 FC1      0.159000
     32 H141       -2.3780   -2.4140    3.5340 hc        1 FC1      0.088700
     33 H142       -1.5880   -1.2540    2.4080 hc        1 FC1      0.088700
     34 H151       -1.8930   -3.9230    1.0920 hx        1 FC1      0.100200
     35 H152       -3.4740   -3.4370    1.8590 hx        1 FC1      0.100200
     36 H161       -1.9350   -1.6600    0.0110 hn        1 FC1      0.487800
@<TRIPOS>BOND
     1    1    7 1   
     2    1   14 1   
     3    2    8 1   
     4    2   10 1   
     5    3    8 ar  
     6    3   15 ar  
     7    3   19 1   
     8    4    9 ar  
     9    4   15 ar  
    10    4   20 1   
    11    5    7 2   
    12    5   10 1   
    13    5   21 1   
    14    6    7 1   
    15    6    8 ar  
    16    6    9 ar  
    17    9   22 1   
    18   10   16 2   
    19   11   13 1   
    20   11   23 1   
    21   11   24 1   
    22   11   25 1   
    23   12   13 1   
    24   12   26 1   
    25   12   27 1   
    26   12   28 1   
    27   13   18 1   
    28   13   36 1   
    29   14   17 1   
    30   14   29 1   
    31   14   30 1   
    32   15   31 1   
    33   17   18 1   
    34   17   32 1   
    35   17   33 1   
    36   18   34 1   
    37   18   35 1   
@<TRIPOS>SUBSTRUCTURE
     1 FC1         1 TEMP              0 ****  ****    0 ROOT
