@<TRIPOS>MOLECULE
FC1
   35    36     1     0     0
SMALL
bcc


@<TRIPOS>ATOM
      1 O6          0.3920    0.0360    0.6430 os        1 FC1     -0.326900
      2 S7         -0.2930   -0.8280   -3.6940 ss        1 FC1     -0.096500
      3 C8          1.9860    0.4470   -3.8370 ca        1 FC1     -0.125000
      4 C9          3.2240    1.3560   -1.9750 ca        1 FC1     -0.143000
      5 C5         -1.0220   -0.9460   -1.0440 cc        1 FC1     -0.376200
      6 C1          1.1230    0.2080   -1.5830 ca        1 FC1     -0.086800
      7 C2          0.0960   -0.2720   -0.6650 cd        1 FC1      0.228900
      8 C3          0.9880   -0.0210   -2.9610 ca        1 FC1      0.005900
      9 C4          2.2500    0.9010   -1.1000 ca        1 FC1     -0.071000
     10 C10        -1.3670   -1.2920   -2.4070 c         1 FC1      0.582900
     11 C17        -1.6200   -0.0490    6.3620 c3        1 FC1      0.155600
     12 C18         0.7360   -0.1740    5.8730 c3        1 FC1      0.155600
     13 N16        -0.5770    0.1860    5.3880 n3        1 FC1     -0.737600
     14 C11        -0.5590   -0.3800    1.6370 c3        1 FC1      0.125400
     15 C12         3.0900    1.1270   -3.3520 ca        1 FC1     -0.094000
     16 O13        -2.4040   -1.9090   -2.6910 o         1 FC1     -0.524100
     17 C14         0.0130    0.0900    2.9630 c3        1 FC1     -0.089400
     18 C15        -0.8960   -0.3950    4.0910 c3        1 FC1      0.172800
     19 H8          1.8750    0.2650   -4.9190 ha        1 FC1      0.150000
     20 H9          4.1020    1.8970   -1.5930 ha        1 FC1      0.140000
     21 H5         -1.7650   -1.2840   -0.3020 ha        1 FC1      0.165000
     22 H4          2.3470    1.0780   -0.0160 ha        1 FC1      0.155000
     23 H171       -1.3550    0.4860    7.3110 h1        1 FC1      0.032700
     24 H172       -2.5850    0.3690    5.9730 h1        1 FC1      0.032700
     25 H173       -1.7720   -1.1390    6.5960 h1        1 FC1      0.032700
     26 H181        1.5060    0.1990    5.1480 h1        1 FC1      0.032700
     27 H182        0.9090    0.3240    6.8630 h1        1 FC1      0.032700
     28 H183        0.8730   -1.2830    6.0030 h1        1 FC1      0.032700
     29 H111       -0.6610   -1.4970    1.6090 h1        1 FC1      0.050200
     30 H112       -1.5500    0.1000    1.4260 h1        1 FC1      0.050200
     31 H12         3.8640    1.4890   -4.0450 ha        1 FC1      0.140000
     32 H141        0.0870    1.2080    2.9660 hc        1 FC1      0.065200
     33 H142        1.0490   -0.3180    3.0860 hc        1 FC1      0.065200
     34 H151       -0.8540   -1.5250    4.1210 h1        1 FC1      0.032200
     35 H152       -1.9570   -0.1040    3.8420 h1        1 FC1      0.032200
@<TRIPOS>BOND
     1    1    7 1   
     2    1   14 1   
     3    2    8 1   
     4    2   10 1   
     5    3    8 ar  
     6    3   15 ar  
     7    3   19 1   
     8    4    9 ar  
     9    4   15 ar  
    10    4   20 1   
    11    5    7 2   
    12    5   10 1   
    13    5   21 1   
    14    6    7 1   
    15    6    8 ar  
    16    6    9 ar  
    17    9   22 1   
    18   10   16 2   
    19   11   13 1   
    20   11   23 1   
    21   11   24 1   
    22   11   25 1   
    23   12   13 1   
    24   12   26 1   
    25   12   27 1   
    26   12   28 1   
    27   13   18 1   
    28   14   17 1   
    29   14   29 1   
    30   14   30 1   
    31   15   31 1   
    32   17   18 1   
    33   17   32 1   
    34   17   33 1   
    35   18   34 1   
    36   18   35 1   
@<TRIPOS>SUBSTRUCTURE
     1 FC1         1 TEMP              0 ****  ****    0 ROOT
