@<TRIPOS>MOLECULE
FC2
   21    22     1     0     0
SMALL
bcc


@<TRIPOS>ATOM
      1 OA         -0.0360    0.2620    0.1790 os        1 FC2     -0.329800
      2 CA          1.3420    0.1960    0.0720 cc        1 FC2      0.282200
      3 C           1.9800    0.5850   -1.2560 c         1 FC2      0.826100
      4 OXT         1.2420    1.0720   -2.1480 o         1 FC2     -0.795800
      5 CB          1.8880   -0.2320    1.2800 cd        1 FC2     -0.320300
      6 CG          0.7960   -0.4430    2.1840 cd        1 FC2     -0.197300
      7 CD         -0.3730   -0.1390    1.4920 cc        1 FC2      0.185200
      8 OB          3.2200    0.3870   -1.3410 o         1 FC2     -0.795800
      9 C1         -1.7740   -0.1040    1.8060 ca        1 FC2     -0.040500
     10 C2         -2.3430   -0.7180    2.9370 ca        1 FC2      0.002400
     11 C3         -3.7170   -0.6250    3.1920 ca        1 FC2     -0.122000
     12 C4         -4.5520    0.0680    2.3260 ca        1 FC2     -0.150000
     13 C5         -4.0000    0.6710    1.1900 ca        1 FC2      0.021400
     14 C6         -2.6370    0.5910    0.9280 ca        1 FC2     -0.111000
     15 CL1        -1.4180   -1.6170    4.0520 cl        1 FC2     -0.108400
     16 CL2        -5.0200    1.5180    0.1190 cl        1 FC2     -0.112400
     17 HB          2.9430   -0.3760    1.4870 ha        1 FC2      0.161000
     18 HG          0.8860   -0.7710    3.2150 ha        1 FC2      0.144000
     19 H3         -4.1410   -1.1090    4.0850 ha        1 FC2      0.136000
     20 H4         -5.6300    0.1380    2.5310 ha        1 FC2      0.137000
     21 H6         -2.2040    1.0640    0.0280 ha        1 FC2      0.187000
@<TRIPOS>BOND
     1    1    2 1   
     2    1    7 1   
     3    2    3 1   
     4    2    5 2   
     5    3    4 1   
     6    3    8 1   
     7    5    6 1   
     8    5   17 1   
     9    6    7 2   
    10    6   18 1   
    11    7    9 1   
    12    9   10 ar  
    13    9   14 ar  
    14   10   11 ar  
    15   10   15 1   
    16   11   12 ar  
    17   11   19 1   
    18   12   13 ar  
    19   12   20 1   
    20   13   14 ar  
    21   13   16 1   
    22   14   21 1   
@<TRIPOS>SUBSTRUCTURE
     1 FC2         1 TEMP              0 ****  ****    0 ROOT
