@<TRIPOS>MOLECULE
FC2
   21    22     1     0     0
SMALL
bcc


@<TRIPOS>ATOM
      1 OA          1.4210    0.6140    0.0150 os        1 FC2     -0.329800
      2 CA          2.7450    0.3590    0.3220 cc        1 FC2      0.282200
      3 C           3.7670    1.4610    0.0710 c         1 FC2      0.826100
      4 OXT         3.3460    2.5920   -0.2770 o         1 FC2     -0.795800
      5 CB          2.8690   -0.9300    0.8360 cd        1 FC2     -0.320300
      6 CG          1.5570   -1.5060    0.8480 cd        1 FC2     -0.197300
      7 CD          0.6850   -0.5470    0.3400 cc        1 FC2      0.185200
      8 OB          4.9700    1.1360    0.2480 o         1 FC2     -0.795800
      9 C1         -0.7320   -0.4620    0.1170 ca        1 FC2     -0.040500
     10 C2         -1.5950   -1.5730    0.1060 ca        1 FC2      0.002400
     11 C3         -2.9720   -1.4130   -0.0970 ca        1 FC2     -0.122000
     12 C4         -3.5150   -0.1510   -0.3020 ca        1 FC2     -0.150000
     13 C5         -2.6630    0.9600   -0.3060 ca        1 FC2      0.021400
     14 C6         -1.2960    0.8150   -0.1020 ca        1 FC2     -0.111000
     15 CL1        -1.0350   -3.1690    0.3190 cl        1 FC2     -0.108400
     16 CL2        -3.3220    2.5110   -0.5640 cl        1 FC2     -0.112400
     17 HB          3.7920   -1.4000    1.1610 ha        1 FC2      0.161000
     18 HG          1.3100   -2.5020    1.2010 ha        1 FC2      0.144000
     19 H3         -3.6310   -2.2950   -0.0980 ha        1 FC2      0.136000
     20 H4         -4.5950   -0.0310   -0.4610 ha        1 FC2      0.137000
     21 H6         -0.6250    1.6930   -0.1100 ha        1 FC2      0.187000
@<TRIPOS>BOND
     1    1    2 1   
     2    1    7 1   
     3    2    3 1   
     4    2    5 2   
     5    3    4 1   
     6    3    8 1   
     7    5    6 1   
     8    5   17 1   
     9    6    7 2   
    10    6   18 1   
    11    7    9 1   
    12    9   10 ar  
    13    9   14 ar  
    14   10   11 ar  
    15   10   15 1   
    16   11   12 ar  
    17   11   19 1   
    18   12   13 ar  
    19   12   20 1   
    20   13   14 ar  
    21   13   16 1   
    22   14   21 1   
@<TRIPOS>SUBSTRUCTURE
     1 FC2         1 TEMP              0 ****  ****    0 ROOT
