@<TRIPOS>MOLECULE
FC2
   21    16     1     0     0
SMALL
bcc


@<TRIPOS>ATOM
      1 OA         -0.3250    0.5120    1.0590 os        1 FC2     -0.045000
      2 CA         -0.3440    1.6110    1.8780 c1        1 FC2     -0.011000
      3 C          -1.3370    1.8740    2.9890 c1        1 FC2      0.386000
      4 OXT        -1.0070    1.6780    4.1880 o         1 FC2     -0.531500
      5 CB          0.6900    2.4430    1.5010 c1        1 FC2     -0.248000
      6 CG          1.3430    1.8560    0.4540 c1        1 FC2     -0.159000
      7 CD          0.7150    0.6580    0.1780 c2        1 FC2     -0.115000
      8 OB         -2.4960    2.2820    2.7140 o         1 FC2     -0.531500
      9 C1          0.3940   -0.4230   -0.6270 c1        1 FC2      0.061000
     10 C2          0.6830   -1.7120   -0.2040 c1        1 FC2     -0.054000
     11 C3          0.3170   -2.7960   -0.9860 c1        1 FC2     -0.134000
     12 C4         -0.3380   -2.5920   -2.1910 c1        1 FC2     -0.134000
     13 C5         -0.6260   -1.3050   -2.6140 c1        1 FC2     -0.063000
     14 C6         -0.2600   -0.2200   -1.8320 c1        1 FC2     -0.123000
     15 CL1         1.5460   -1.9660    1.2890 cl        1 FC2      0.021000
     16 CL2        -1.4420   -1.0480   -4.1330 cl        1 FC2     -0.044000
     17 HB          0.9030    3.3090    1.8960 DU        1 FC2      0.147500
     18 HG          2.1290    2.2100   -0.0040 DU        1 FC2      0.147500
     19 H3          0.5130   -3.7030   -0.6850 ha        1 FC2      0.138500
     20 H4         -0.5950   -3.3560   -2.7410 ha        1 FC2      0.138500
     21 H6         -0.4630    0.6870   -2.1300 ha        1 FC2      0.154000
@<TRIPOS>BOND
     1    1    2 1   
     2    1    7 1   
     3    2    5 1   
     4    3    4 1   
     5    3    8 1   
     6    5    6 1   
     7    6    7 1   
     8    7    9 1   
     9    9   10 1   
    10   10   15 1   
    11   11   12 1   
    12   11   19 1   
    13   12   20 1   
    14   13   14 1   
    15   13   16 1   
    16   14   21 1   
@<TRIPOS>SUBSTRUCTURE
     1 FC2         1 TEMP              0 ****  ****    0 ROOT
