@<TRIPOS>MOLECULE
FC5
   18    19     1     0     0
SMALL
bcc


@<TRIPOS>ATOM
      1 S1          0.1000    0.1230   -0.1000 s         1 FC5     -0.320400
      2 CAF         1.6500    0.0520    0.0080 c         1 FC5      0.405700
      3 CAI         2.4230   -0.0320    1.2300 cc        1 FC5     -0.221200
      4 CAH         3.7730   -0.0900    1.2260 cd        1 FC5     -0.031200
      5 CAN         4.4790   -0.0700   -0.0300 ca        1 FC5     -0.099800
      6 CAM         5.8800   -0.1270   -0.1240 ca        1 FC5     -0.171000
      7 OAK         2.3380    0.0710   -1.1980 os        1 FC5     -0.262200
      8 CAO         3.7180    0.0110   -1.2090 ca        1 FC5      0.094100
      9 CAL         4.3290    0.0370   -2.4800 ca        1 FC5     -0.110000
     10 CAG         5.7070   -0.0190   -2.5640 ca        1 FC5     -0.109000
     11 CAJ         6.4790   -0.1010   -1.3810 ca        1 FC5      0.106100
     12 OAD         7.8430   -0.1530   -1.5610 oh        1 FC5     -0.492100
     13 HAI         1.8420   -0.0450    2.1670 ha        1 FC5      0.170000
     14 HAH0        4.3590   -0.1540    2.1560 ha        1 FC5      0.149000
     15 HAM         6.4860   -0.1900    0.7900 ha        1 FC5      0.143000
     16 HAL         3.7000    0.1010   -3.3810 ha        1 FC5      0.164000
     17 HAG         6.2200   -0.0020   -3.5370 ha        1 FC5      0.162000
     18 HOAD        8.2580   -0.2070   -0.6880 ho        1 FC5      0.422000
@<TRIPOS>BOND
     1    1    2 2   
     2    2    3 1   
     3    2    7 1   
     4    3    4 2   
     5    3   13 1   
     6    4    5 1   
     7    4   14 1   
     8    5    6 ar  
     9    5    8 ar  
    10    6   11 ar  
    11    6   15 1   
    12    7    8 1   
    13    8    9 ar  
    14    9   10 ar  
    15    9   16 1   
    16   10   11 ar  
    17   10   17 1   
    18   11   12 1   
    19   12   18 1   
@<TRIPOS>SUBSTRUCTURE
     1 FC5         1 TEMP              0 ****  ****    0 ROOT
