@<TRIPOS>MOLECULE
FC9
   68    73     1     0     0
SMALL
bcc


@<TRIPOS>ATOM
      1 C9          0.0000    0.0000    0.0000 ca        1 FC9     -0.095500
      2 C10         1.3880    0.0000    0.0000 ca        1 FC9     -0.091200
      3 C11         2.0790    0.0000    1.2030 ca        1 FC9     -0.095500
      4 C12         1.3850    0.0010    2.3970 ca        1 FC9      0.038000
      5 C8         -0.6890   -0.0000    1.1970 ca        1 FC9      0.038000
      6 C7          0.0020   -0.0000    2.3940 ca        1 FC9     -0.224500
      7 S          -0.8810   -0.0000    3.9190 sy        1 FC9      0.945200
      8 O1         -2.1630   -0.5450    3.6400 o         1 FC9     -0.484300
      9 O2          0.0000   -0.5440    4.8930 o         1 FC9     -0.484300
     10 N3         -1.1270    1.5820    4.3430 nz        1 FC9     -0.129500
     11 N1          2.0910   -0.0010   -1.2140 na        1 FC9      0.702300
     12 N2          1.5670   -0.0000   -2.3900 nc        1 FC9     -0.334800
     13 N4          2.4890   -0.0010   -3.2870 nd        1 FC9     -0.242000
     14 C4          3.6840   -0.0000   -2.6860 cd        1 FC9      0.202600
     15 C5          3.4450    0.0050   -1.3530 cc        1 FC9     -0.418600
     16 C1          5.0320   -0.0010   -3.3590 c3        1 FC9     -0.022500
     17 N5          5.4150   -1.3770   -3.6860 ny        1 FC9      0.331200
     18 C6          6.5910   -1.6220   -4.2970 c         1 FC9     -0.238600
     19 S7          7.6360   -0.3260   -4.6930 s         1 FC9     -0.481400
     20 N8          6.9430   -2.8880   -4.5970 ns        1 FC9      0.401900
     21 C13         8.1160   -3.1350   -5.3070 ca        1 FC9     -0.310400
     22 C14         9.2940   -2.4870   -4.9470 ca        1 FC9     -0.045000
     23 C15        10.4600   -2.7230   -5.6400 ca        1 FC9     -0.117000
     24 C16        10.4660   -3.6180   -6.7140 ca        1 FC9      0.075000
     25 C17         9.2730   -4.2770   -7.0820 ca        1 FC9     -0.085600
     26 C18         8.1060   -4.0330   -6.3690 ca        1 FC9     -0.005000
     27 C3         11.7100   -3.8710   -7.4580 cc        1 FC9      0.098000
     28 C19        12.4330   -5.0740   -7.2880 cd        1 FC9     -0.145100
     29 C20        13.6250   -5.2780   -8.0230 cd        1 FC9      0.353700
     30 O21        14.0820   -4.3430   -8.8820 os        1 FC9     -0.337800
     31 C22        13.4400   -3.1750   -9.0890 ca        1 FC9      0.414000
     32 C23        12.2420   -2.8880   -8.4060 ca        1 FC9     -0.198300
     33 C24        11.5770   -1.6740   -8.6310 ca        1 FC9     -0.029000
     34 C25        12.0900   -0.7750   -9.5180 ca        1 FC9     -0.174000
     35 C26        13.2730   -1.0560  -10.2020 ca        1 FC9      0.176100
     36 C27        13.9510   -2.2440   -9.9830 ca        1 FC9     -0.242300
     37 O3         13.7720   -0.1510  -11.0820 oh        1 FC9     -0.504100
     38 C21        14.3280   -6.4550   -7.8550 cc        1 FC9     -0.308200
     39 C28        13.8580   -7.4280   -6.9650 c         1 FC9      0.623500
     40 C29        12.6690   -7.2140   -6.2380 cc        1 FC9     -0.199200
     41 C30        11.9710   -6.0600   -6.3960 cd        1 FC9     -0.025200
     42 O4         14.4820   -8.4710   -6.8170 o         1 FC9     -0.609100
     43 C2          9.2680   -5.2250   -8.2160 c         1 FC9      0.953200
     44 O5         10.2910   -5.4390   -8.8340 o         1 FC9     -0.835800
     45 O6          8.1270   -5.8520   -8.5630 o         1 FC9     -0.835800
     46 H1         -0.5420   -0.0000   -0.9380 ha        1 FC9      0.151000
     47 H2          3.1620   -0.0000    1.2060 ha        1 FC9      0.151000
     48 H3          1.9240    0.0010    3.3370 ha        1 FC9      0.137500
     49 H4         -1.7730   -0.0010    1.1980 ha        1 FC9      0.137500
     50 H5         -1.6580    2.0400    3.6290 hn        1 FC9      0.316133
     51 H6         -0.2440    2.0410    4.4480 hn        1 FC9      0.316133
     52 H7          4.1640    0.2440   -0.5780 h4        1 FC9      0.178000
     53 H8          4.9820    0.5860   -4.2680 hx        1 FC9      0.109700
     54 H9          5.7690    0.4300   -2.6920 hx        1 FC9      0.109700
     55 H10         5.4210   -1.8890   -2.8260 hn        1 FC9      0.211800
     56 H11         6.3830   -3.6530   -4.2750 hn        1 FC9      0.136500
     57 H12         9.2930   -1.7920   -4.1150 ha        1 FC9      0.132000
     58 H13        11.3800   -2.2410   -5.3320 ha        1 FC9      0.124000
     59 H14         7.1770   -4.4990   -6.6750 ha        1 FC9      0.141000
     60 H15        10.7060   -1.4160   -8.0410 ha        1 FC9      0.106000
     61 H16        11.5770    0.1620   -9.6920 ha        1 FC9      0.115000
     62 H17        14.8330   -2.4800  -10.5650 ha        1 FC9      0.133000
     63 H19        15.2420   -6.6240   -8.4110 ha        1 FC9      0.137000
     64 H20        12.3120   -7.9710   -5.5510 ha        1 FC9      0.116000
     65 H21        11.0580   -5.8990   -5.8370 ha        1 FC9      0.098000
     66 H18        13.4450   -0.3400  -11.9460 ho        1 FC9      0.411000
     67 H33        -1.6280    1.6210    5.2090 hn        1 FC9      0.316133
     68 H52         4.6970   -1.7460   -4.2770 hn        1 FC9      0.211800
@<TRIPOS>BOND
     1    1    2 ar  
     2    1    5 ar  
     3    1   46 1   
     4    2    3 ar  
     5    2   11 1   
     6    3    4 ar  
     7    3   47 1   
     8    4    6 ar  
     9    4   48 1   
    10    5    6 ar  
    11    5   49 1   
    12    6    7 1   
    13    7    8 2   
    14    7    9 2   
    15    7   10 1   
    16   10   50 1   
    17   10   51 1   
    18   10   67 1   
    19   11   12 1   
    20   11   15 1   
    21   12   13 2   
    22   13   14 1   
    23   14   15 2   
    24   14   16 1   
    25   15   52 1   
    26   16   17 1   
    27   16   53 1   
    28   16   54 1   
    29   17   18 1   
    30   17   55 1   
    31   17   68 1   
    32   18   19 2   
    33   18   20 1   
    34   20   21 1   
    35   20   56 1   
    36   21   22 ar  
    37   21   26 ar  
    38   22   23 ar  
    39   22   57 1   
    40   23   24 ar  
    41   23   58 1   
    42   24   25 ar  
    43   24   27 1   
    44   25   26 ar  
    45   25   43 1   
    46   26   59 1   
    47   27   28 2   
    48   27   32 1   
    49   28   29 1   
    50   28   41 1   
    51   29   30 1   
    52   29   38 2   
    53   30   31 1   
    54   31   32 ar  
    55   31   36 ar  
    56   32   33 ar  
    57   33   34 ar  
    58   33   60 1   
    59   34   35 ar  
    60   34   61 1   
    61   35   36 ar  
    62   35   37 1   
    63   36   62 1   
    64   37   66 1   
    65   38   39 1   
    66   38   63 1   
    67   39   40 1   
    68   39   42 2   
    69   40   41 2   
    70   40   64 1   
    71   41   65 1   
    72   43   44 1   
    73   43   45 1   
@<TRIPOS>SUBSTRUCTURE
     1 FC9         1 TEMP              0 ****  ****    0 ROOT
