@<TRIPOS>MOLECULE
FCA
   23    23     1     0     0
SMALL
bcc


@<TRIPOS>ATOM
      1 C1          1.4150   -0.6360   -0.3910 c3        1 FCA      0.299900
      2 C2          0.1530   -0.5500   -1.2710 c3        1 FCA      0.104100
      3 C3         -0.7320    0.6210   -0.8140 c3        1 FCA      0.122100
      4 C4         -1.0080    0.4770    0.6950 c3        1 FCA      0.080100
      5 C5          0.3260    0.4420    1.4530 c3        1 FCA      0.110100
      6 C6          0.1480    0.2350    2.9440 c3        1 FCA     -0.100100
      7 O1          2.2020    0.5050   -0.6500 oh        1 FCA     -0.635800
      8 O2          0.5130   -0.4520   -2.6280 oh        1 FCA     -0.575800
      9 O3         -1.9330    0.6910   -1.5450 oh        1 FCA     -0.578800
     10 O4         -1.7800   -0.7050    0.8420 oh        1 FCA     -0.603800
     11 O5          1.1580   -0.6320    0.9980 os        1 FCA     -0.440600
     12 H1          1.9810   -1.5920   -0.5760 h2        1 FCA      0.085700
     13 H2         -0.4180   -1.5170   -1.1840 h1        1 FCA      0.102700
     14 H3         -0.2130    1.6010   -1.0120 h1        1 FCA      0.091700
     15 H4         -1.6170    1.3540    1.0540 h1        1 FCA      0.058700
     16 H5          0.8630    1.4140    1.2520 h1        1 FCA      0.059700
     17 H61         1.1130    0.4250    3.4710 hc        1 FCA      0.050700
     18 H62        -0.6260    0.9400    3.3290 hc        1 FCA      0.050700
     19 H63        -0.1620   -0.8150    3.1630 hc        1 FCA      0.050700
     20 HO1         3.0080    0.4290   -0.1250 ho        1 FCA      0.422000
     21 HO2         0.9670    0.3940   -2.7450 ho        1 FCA      0.416000
     22 HO3        -2.4090   -0.1380   -1.3960 ho        1 FCA      0.418000
     23 HO4        -1.7790   -0.9340    1.7780 ho        1 FCA      0.414000
@<TRIPOS>BOND
     1    1    2 1   
     2    1    7 1   
     3    1   11 1   
     4    1   12 1   
     5    2    3 1   
     6    2    8 1   
     7    2   13 1   
     8    3    4 1   
     9    3    9 1   
    10    3   14 1   
    11    4    5 1   
    12    4   10 1   
    13    4   15 1   
    14    5    6 1   
    15    5   11 1   
    16    5   16 1   
    17    6   17 1   
    18    6   18 1   
    19    6   19 1   
    20    7   20 1   
    21    8   21 1   
    22    9   22 1   
    23   10   23 1   
@<TRIPOS>SUBSTRUCTURE
     1 FCA         1 TEMP              0 ****  ****    0 ROOT
