@<TRIPOS>MOLECULE
FCA
   23    23     1     0     0
SMALL
bcc


@<TRIPOS>ATOM
      1 C1         -0.9440   -0.6290   -1.3190 c3        1 FCA      0.306900
      2 C2          0.5690   -0.6290   -1.3190 c3        1 FCA      0.095100
      3 C3          1.1330   -0.6290    0.0530 c3        1 FCA      0.075100
      4 C4          0.5560    0.4560    0.9000 c3        1 FCA      0.124100
      5 C5         -0.9620    0.4530    0.8880 c3        1 FCA      0.150100
      6 C6         -1.4540    1.6700    1.6060 c3        1 FCA     -0.088100
      7 O1         -1.3910   -1.8490   -0.8530 oh        1 FCA     -0.644800
      8 O2          1.0350   -1.8030   -2.0140 oh        1 FCA     -0.594800
      9 O3          2.5710   -0.4460   -0.0300 oh        1 FCA     -0.607800
     10 O4          1.0210    1.7210    0.4110 oh        1 FCA     -0.590800
     11 O5         -1.5130    0.4490   -0.4680 os        1 FCA     -0.431600
     12 H1         -1.2590   -0.5060   -2.2350 h2        1 FCA      0.085700
     13 H2          0.8860    0.1650   -1.7910 h1        1 FCA      0.107700
     14 H3          0.9460   -1.4900    0.4720 h1        1 FCA      0.059700
     15 H4          0.8660    0.3390    1.8180 h1        1 FCA      0.054700
     16 H5         -1.2790   -0.3410    1.3600 h1        1 FCA      0.047700
     17 H61        -2.4140    1.5890    1.7640 hc        1 FCA      0.053033
     18 H62        -0.9890    1.7540    2.4600 hc        1 FCA      0.053033
     19 H63        -1.2800    2.4610    1.0610 hc        1 FCA      0.053033
     20 HO1        -2.0840   -2.1150   -1.3390 ho        1 FCA      0.427000
     21 HO2         1.3740   -1.5670   -2.7990 ho        1 FCA      0.421000
     22 HO3         2.9780   -1.1000    0.4100 ho        1 FCA      0.424000
     23 HO4         1.6340    2.0460    0.9650 ho        1 FCA      0.421000
@<TRIPOS>BOND
     1    1    2 1   
     2    1    7 1   
     3    1   11 1   
     4    1   12 1   
     5    2    3 1   
     6    2    8 1   
     7    2   13 1   
     8    3    4 1   
     9    3    9 1   
    10    3   14 1   
    11    4    5 1   
    12    4   10 1   
    13    4   15 1   
    14    5    6 1   
    15    5   11 1   
    16    5   16 1   
    17    6   17 1   
    18    6   18 1   
    19    6   19 1   
    20    7   20 1   
    21    8   21 1   
    22    9   22 1   
    23   10   23 1   
@<TRIPOS>SUBSTRUCTURE
     1 FCA         1 TEMP              0 ****  ****    0 ROOT
