@<TRIPOS>MOLECULE
FCB
   23    23     1     0     0
SMALL
bcc


@<TRIPOS>ATOM
      1 C1         -0.9370   -0.7060   -1.2420 c3        1 FCB      0.314900
      2 C2          0.5760   -0.7060   -1.2420 c3        1 FCB      0.050100
      3 C3          1.1390   -0.7060    0.1300 c3        1 FCB      0.111100
      4 C4          0.5630    0.3790    0.9770 c3        1 FCB      0.117100
      5 C5         -0.9560    0.3760    0.9660 c3        1 FCB      0.160100
      6 C6         -1.4470    1.5930    1.6830 c3        1 FCB     -0.089100
      7 O1         -1.3840   -0.5350   -2.5370 oh        1 FCB     -0.600800
      8 O2          1.0420   -1.8800   -1.9360 oh        1 FCB     -0.605800
      9 O3          2.5770   -0.5230    0.0470 oh        1 FCB     -0.608800
     10 O4          1.0270    1.6440    0.4880 oh        1 FCB     -0.590800
     11 O5         -1.5060    0.3710   -0.3900 os        1 FCB     -0.438600
     12 H1         -1.2520   -1.5690   -0.9110 h2        1 FCB      0.079700
     13 H2          0.8920    0.0880   -1.7140 h1        1 FCB      0.070700
     14 H3          0.9530   -1.5680    0.5490 h1        1 FCB      0.057700
     15 H4          0.8730    0.2620    1.8950 h1        1 FCB      0.056700
     16 H5         -1.2730   -0.4180    1.4370 h1        1 FCB      0.040700
     17 H61        -0.9810    1.6780    2.5360 hc        1 FCB      0.055033
     18 H62        -2.4070    1.5100    1.8440 hc        1 FCB      0.055033
     19 H63        -1.2760    2.3840    1.1380 hc        1 FCB      0.055033
     20 HO1        -2.1940   -0.8880   -2.6200 ho        1 FCB      0.432000
     21 HO2         1.4570   -1.6370   -2.6820 ho        1 FCB      0.425000
     22 HO3         2.9850   -1.1830    0.4770 ho        1 FCB      0.430000
     23 HO4         1.5300    2.0340    1.1070 ho        1 FCB      0.423000
@<TRIPOS>BOND
     1    1    2 1   
     2    1    7 1   
     3    1   11 1   
     4    1   12 1   
     5    2    3 1   
     6    2    8 1   
     7    2   13 1   
     8    3    4 1   
     9    3    9 1   
    10    3   14 1   
    11    4    5 1   
    12    4   10 1   
    13    4   15 1   
    14    5    6 1   
    15    5   11 1   
    16    5   16 1   
    17    6   17 1   
    18    6   18 1   
    19    6   19 1   
    20    7   20 1   
    21    8   21 1   
    22    9   22 1   
    23   10   23 1   
@<TRIPOS>SUBSTRUCTURE
     1 FCB         1 TEMP              0 ****  ****    0 ROOT
