@<TRIPOS>MOLECULE
FCB
   23    23     1     0     0
SMALL
bcc


@<TRIPOS>ATOM
      1 C1          1.2770    0.3730   -0.7530 c3        1 FCB      0.313900
      2 C2         -0.1060   -0.1190   -1.2290 c3        1 FCB      0.049100
      3 C3         -1.2020    0.5310   -0.3730 c3        1 FCB      0.160100
      4 C4         -0.9300    0.1960    1.1040 c3        1 FCB      0.111100
      5 C5          0.4700    0.7260    1.4700 c3        1 FCB      0.116100
      6 C6          0.8570    0.3830    2.8940 c3        1 FCB     -0.100100
      7 O1          2.3110   -0.3710   -1.3390 oh        1 FCB     -0.597800
      8 O2         -0.3360    0.2800   -2.5690 oh        1 FCB     -0.604800
      9 O3         -2.4920    0.0610   -0.7030 oh        1 FCB     -0.581800
     10 O4         -1.0160   -1.2110    1.2410 oh        1 FCB     -0.573800
     11 O5          1.4770    0.1480    0.6350 os        1 FCB     -0.441600
     12 H1          1.4500    1.4500   -1.0300 h2        1 FCB      0.081700
     13 H2         -0.1700   -1.2390   -1.1400 h1        1 FCB      0.080700
     14 H3         -1.1740    1.6500   -0.5090 h1        1 FCB      0.047700
     15 H4         -1.7040    0.6940    1.7500 h1        1 FCB      0.059700
     16 H5          0.4780    1.8440    1.3210 h1        1 FCB      0.047700
     17 H61         1.8110    0.8950    3.1630 hc        1 FCB      0.052033
     18 H62         0.0510    0.7160    3.5900 hc        1 FCB      0.052033
     19 H63         1.0110   -0.7180    3.0030 hc        1 FCB      0.052033
     20 HO1         2.4050   -1.1980   -0.8430 ho        1 FCB      0.429000
     21 HO2         0.4070   -0.0580   -3.0870 ho        1 FCB      0.423000
     22 HO3        -2.5370    0.0320   -1.6690 ho        1 FCB      0.422000
     23 HO4        -0.9020   -1.4030    2.1800 ho        1 FCB      0.403000
@<TRIPOS>BOND
     1    1    2 1   
     2    1    7 1   
     3    1   11 1   
     4    1   12 1   
     5    2    3 1   
     6    2    8 1   
     7    2   13 1   
     8    3    4 1   
     9    3    9 1   
    10    3   14 1   
    11    4    5 1   
    12    4   10 1   
    13    4   15 1   
    14    5    6 1   
    15    5   11 1   
    16    5   16 1   
    17    6   17 1   
    18    6   18 1   
    19    6   19 1   
    20    7   20 1   
    21    8   21 1   
    22    9   22 1   
    23   10   23 1   
@<TRIPOS>SUBSTRUCTURE
     1 FCB         1 TEMP              0 ****  ****    0 ROOT
