@<TRIPOS>MOLECULE
FCD
   21    22     1     0     0
SMALL
bcc


@<TRIPOS>ATOM
      1 OA          0.0770   -0.4950    0.1700 os        1 FCD     -0.332800
      2 CA          1.4380   -0.2600    0.0730 cc        1 FCD      0.277200
      3 C           2.2180   -1.0030   -1.0010 c         1 FCD      0.827100
      4 OXT         3.4250   -0.6670   -1.1300 o         1 FCD     -0.798800
      5 CB          1.8250    0.6560    1.0480 cd        1 FCD     -0.319300
      6 CG          0.6480    1.0090    1.7860 cd        1 FCD     -0.205300
      7 CD         -0.4110    0.2960    1.2330 cc        1 FCD      0.194200
      8 OB          1.6210   -1.8870   -1.6650 o         1 FCD     -0.798800
      9 C1         -1.8160    0.1580    1.5060 ca        1 FCD     -0.053500
     10 C2         -2.5100   -0.9200    0.9090 ca        1 FCD     -0.115000
     11 C3         -3.8630   -1.1210    1.1380 ca        1 FCD     -0.132000
     12 C4         -4.5720   -0.2540    1.9720 ca        1 FCD     -0.152000
     13 C5         -3.9160    0.8170    2.5660 ca        1 FCD     -0.132000
     14 C6         -2.5500    1.0270    2.3330 ca        1 FCD      0.007400
     15 CL2        -1.8450    2.3850    3.0880 cl        1 FCD     -0.116400
     16 HB          2.8320    1.0290    1.2080 ha        1 FCD      0.160000
     17 HG          0.6130    1.7000    2.6230 ha        1 FCD      0.143000
     18 H2         -1.9480   -1.6020    0.2470 ha        1 FCD      0.172000
     19 H3         -4.3780   -1.9680    0.6610 ha        1 FCD      0.126000
     20 H4         -5.6430   -0.4140    2.1580 ha        1 FCD      0.120000
     21 H5         -4.4700    1.5080    3.2190 ha        1 FCD      0.130000
@<TRIPOS>BOND
     1    1    2 1   
     2    1    7 1   
     3    2    3 1   
     4    2    5 2   
     5    3    4 1   
     6    3    8 1   
     7    5    6 1   
     8    5   16 1   
     9    6    7 2   
    10    6   17 1   
    11    7    9 1   
    12    9   10 ar  
    13    9   14 ar  
    14   10   11 ar  
    15   10   18 1   
    16   11   12 ar  
    17   11   19 1   
    18   12   13 ar  
    19   12   20 1   
    20   13   14 ar  
    21   13   21 1   
    22   14   15 1   
@<TRIPOS>SUBSTRUCTURE
     1 FCD         1 TEMP              0 ****  ****    0 ROOT
