@<TRIPOS>MOLECULE
FCD
   21    22     1     0     0
SMALL
bcc


@<TRIPOS>ATOM
      1 OA          5.1680   -1.7380    2.6080 os        1 FCD     -0.332800
      2 CA          6.0400   -2.3750    3.4740 cc        1 FCD      0.277200
      3 C           7.5300   -2.1170    3.3060 c         1 FCD      0.827100
      4 OXT         8.2740   -2.6200    4.1890 o         1 FCD     -0.798800
      5 CB          5.3210   -3.1730    4.3600 cd        1 FCD     -0.319300
      6 CG          3.9340   -3.0250    4.0300 cd        1 FCD     -0.205300
      7 CD          3.8600   -2.1410    2.9580 cc        1 FCD      0.194200
      8 OB          7.9090   -1.4420    2.3170 o         1 FCD     -0.798800
      9 C1          2.8110   -1.5990    2.1380 ca        1 FCD     -0.053500
     10 C2          3.1690   -0.9650    0.9260 ca        1 FCD     -0.115000
     11 C3          2.2090   -0.4310    0.0800 ca        1 FCD     -0.132000
     12 C4          0.8550   -0.5110    0.4140 ca        1 FCD     -0.152000
     13 C5          0.4760   -1.1220    1.6030 ca        1 FCD     -0.132000
     14 C6          1.4440   -1.6590    2.4620 ca        1 FCD      0.007400
     15 CL2         0.8760   -2.3640    3.9080 cl        1 FCD     -0.116400
     16 HB          5.7410   -3.7870    5.1500 ha        1 FCD      0.160000
     17 HG          3.1100   -3.5240    4.5320 ha        1 FCD      0.143000
     18 H2          4.2400   -0.9000    0.6660 ha        1 FCD      0.172000
     19 H3          2.5150    0.0570   -0.8570 ha        1 FCD      0.126000
     20 H4          0.0920   -0.0910   -0.2560 ha        1 FCD      0.120000
     21 H5         -0.5890   -1.1830    1.8750 ha        1 FCD      0.130000
@<TRIPOS>BOND
     1    1    2 1   
     2    1    7 1   
     3    2    3 1   
     4    2    5 2   
     5    3    4 1   
     6    3    8 1   
     7    5    6 1   
     8    5   16 1   
     9    6    7 2   
    10    6   17 1   
    11    7    9 1   
    12    9   10 ar  
    13    9   14 ar  
    14   10   11 ar  
    15   10   18 1   
    16   11   12 ar  
    17   11   19 1   
    18   12   13 ar  
    19   12   20 1   
    20   13   14 ar  
    21   13   21 1   
    22   14   15 1   
@<TRIPOS>SUBSTRUCTURE
     1 FCD         1 TEMP              0 ****  ****    0 ROOT
