@<TRIPOS>MOLECULE
FCD
   21    16     1     0     0
SMALL
bcc


@<TRIPOS>ATOM
      1 OA          1.0660   -0.5540   -0.9730 os        1 FCD     -0.074000
      2 CA          2.4220   -0.3880   -1.0880 c1        1 FCD     -0.007000
      3 C           3.2930   -0.9340   -2.1970 c1        1 FCD      0.386000
      4 OXT         3.4910   -0.2500   -3.2360 o         1 FCD     -0.533500
      5 CB          2.8480    0.3890   -0.0300 c1        1 FCD     -0.254000
      6 CG          1.7570    0.6990    0.7320 c1        1 FCD     -0.140000
      7 CD          0.6510    0.1150    0.1490 c2        1 FCD     -0.108000
      8 OB          3.8070   -2.0780   -2.0890 o         1 FCD     -0.533500
      9 C1         -0.7150    0.0750    0.3830 c1        1 FCD      0.054000
     10 C2         -1.2470   -0.8990    1.2130 c1        1 FCD     -0.115000
     11 C3         -2.6080   -0.9170    1.4750 c1        1 FCD     -0.142000
     12 C4         -3.4360    0.0380    0.9080 c1        1 FCD     -0.142000
     13 C5         -2.9040    1.0120    0.0780 c1        1 FCD     -0.132000
     14 C6         -1.5430    1.0310   -0.1850 c1        1 FCD     -0.071000
     15 CL2        -0.8800    2.2280   -1.2640 cl        1 FCD     -0.038000
     16 HB          3.7710    0.6470    0.1570 DU        1 FCD      0.151500
     17 HG          1.7560    1.2570    1.5330 DU        1 FCD      0.151500
     18 H2         -0.6640   -1.5710    1.6130 ha        1 FCD      0.172000
     19 H3         -2.9850   -1.6120    2.0480 ha        1 FCD      0.123000
     20 H4         -4.3940    0.0260    1.0930 ha        1 FCD      0.123000
     21 H5         -3.4870    1.6850   -0.3210 ha        1 FCD      0.130000
@<TRIPOS>BOND
     1    1    2 1   
     2    1    7 1   
     3    2    5 1   
     4    3    4 1   
     5    3    8 1   
     6    5    6 1   
     7    6    7 1   
     8    7    9 1   
     9    9   10 1   
    10   10   18 1   
    11   11   12 1   
    12   11   19 1   
    13   12   20 1   
    14   13   14 1   
    15   13   21 1   
    16   14   15 1   
@<TRIPOS>SUBSTRUCTURE
     1 FCD         1 TEMP              0 ****  ****    0 ROOT
