@<TRIPOS>MOLECULE
FCF
   38    39     1     0     0
SMALL
bcc


@<TRIPOS>ATOM
      1 O40         0.3490    0.2450    0.1670 o         1 FCF     -0.827300
      2 C38         1.5970    0.3950    0.0500 c         1 FCF      0.909200
      3 O39         2.3620    0.7870    0.9750 o         1 FCF     -0.827300
      4 C5          2.2250    0.0820   -1.3030 ca        1 FCF     -0.137600
      5 C6          1.4330   -0.3530   -2.3690 ca        1 FCF     -0.081000
      6 C1          2.0110   -0.6370   -3.6060 ca        1 FCF     -0.177000
      7 C4          3.6000    0.2300   -1.4880 ca        1 FCF     -0.077000
      8 C3          4.1890   -0.0530   -2.7310 ca        1 FCF     -0.191900
      9 C2          3.3840   -0.4890   -3.7930 ca        1 FCF     -0.110000
     10 C17         5.6350    0.1250   -2.8570 ce        1 FCF      0.456800
     11 N18         6.2900   -0.0500   -3.9740 n2        1 FCF     -0.485200
     12 O21         7.6040    0.1730   -3.8600 os        1 FCF     -0.210300
     13 C22         8.3160   -0.0200   -5.1040 c3        1 FCF      0.141400
     14 C23         9.7760    0.2480   -4.7680 c3        1 FCF      0.134400
     15 O27        10.3610   -1.0840   -4.5960 os        1 FCF     -0.175300
     16 N31        11.6170   -1.0730   -4.2210 n2        1 FCF     -0.400200
     17 C30        12.1390   -2.2500   -4.0040 ce        1 FCF      0.357500
     18 C16        13.5520   -2.4260   -3.6010 cc        1 FCF      0.075000
     19 N11        14.3310   -1.3300   -3.2580 ns        1 FCF     -0.459100
     20 C15        14.0740   -3.6910   -3.5740 cd        1 FCF     -0.318200
     21 C14        15.4680   -3.9210   -3.1850 c         1 FCF      0.717700
     22 O33        16.0180   -5.0350   -3.1390 o         1 FCF     -0.615500
     23 N13        16.2200   -2.7810   -2.8460 ns        1 FCF     -0.586500
     24 C12        15.6790   -1.4880   -2.8740 c         1 FCF      0.806500
     25 O34        16.3630   -0.4870   -2.5730 o         1 FCF     -0.642500
     26 H6          0.3490   -0.4640   -2.2020 ha        1 FCF      0.154000
     27 H1          1.3830   -0.9810   -4.4400 ha        1 FCF      0.109000
     28 H4          4.2050    0.5750   -0.6320 ha        1 FCF      0.155000
     29 H2          3.8280   -0.7160   -4.7720 ha        1 FCF      0.121000
     30 H17         6.1470    0.4300   -1.9170 h4        1 FCF     -0.000200
     31 H22         8.1680   -1.0650   -5.4810 h1        1 FCF      0.060700
     32 H22A        7.9590    0.7190   -5.8660 h1        1 FCF      0.060700
     33 H23         9.8810    0.8350   -3.8200 h1        1 FCF      0.066700
     34 H23A       10.2940    0.7620   -5.6160 h1        1 FCF      0.066700
     35 H30        11.5760   -3.2000   -4.1110 h4        1 FCF      0.031800
     36 HN13       17.1720   -2.8740   -2.5670 hn        1 FCF      0.351500
     37 H13        13.9630   -0.4040   -3.2640 hn        1 FCF      0.367500
     38 H15        13.4870   -4.5800   -3.8360 ha        1 FCF      0.180000
@<TRIPOS>BOND
     1    1    2 1   
     2    2    3 1   
     3    2    4 1   
     4    4    5 ar  
     5    4    7 ar  
     6    5    6 ar  
     7    5   26 1   
     8    6    9 ar  
     9    6   27 1   
    10    7    8 ar  
    11    7   28 1   
    12    8    9 ar  
    13    8   10 1   
    14    9   29 1   
    15   10   11 2   
    16   10   30 1   
    17   11   12 1   
    18   12   13 1   
    19   13   14 1   
    20   13   31 1   
    21   13   32 1   
    22   14   15 1   
    23   14   33 1   
    24   14   34 1   
    25   15   16 1   
    26   16   17 2   
    27   17   18 1   
    28   17   35 1   
    29   18   19 1   
    30   18   20 2   
    31   19   24 1   
    32   19   37 1   
    33   20   21 1   
    34   20   38 1   
    35   21   22 2   
    36   21   23 1   
    37   23   24 1   
    38   23   36 1   
    39   24   25 2   
@<TRIPOS>SUBSTRUCTURE
     1 FCF         1 TEMP              0 ****  ****    0 ROOT
