@<TRIPOS>MOLECULE
FCF
   38    34     1     0     0
SMALL
bcc


@<TRIPOS>ATOM
      1 O40         3.7030    7.0640    1.1260 o         1 FCF     -0.562000
      2 C38         2.5540    6.5640    1.1560 c2        1 FCF      0.358000
      3 O39         1.7640    6.8730    2.0690 o         1 FCF     -0.562000
      4 C5          2.1160    5.6390    0.0760 c2        1 FCF     -0.119000
      5 C6          1.4180    6.1280   -1.0130 c2        1 FCF     -0.078000
      6 C1          0.9930    5.2620   -2.0130 c1        1 FCF     -0.178000
      7 C4          2.3930    4.2840    0.1700 c1        1 FCF     -0.073000
      8 C3          1.9710    3.4180   -0.8270 c2        1 FCF     -0.138000
      9 C2          1.2700    3.9080   -1.9190 c1        1 FCF     -0.111000
     10 C17         2.4300    1.9590   -0.8100 c2        1 FCF     -0.030000
     11 N18         1.6670    1.0450   -0.2950 n1        1 FCF     -0.131000
     12 O21         0.4490    1.3840    0.2310 o         1 FCF     -0.207000
     13 C22        -0.4940    0.3840   -0.0710 c3        1 FCF     -0.029000
     14 C23        -0.6480   -0.5450    1.1280 c3        1 FCF     -0.026000
     15 O27        -1.1260   -1.8330    0.6850 os        1 FCF     -0.236000
     16 N31        -2.4890   -1.9610    0.9850 n2        1 FCF      0.008000
     17 C30        -3.0790   -3.1640    0.9370 c1        1 FCF     -0.143000
     18 C16        -2.2770   -4.3870    0.5590 c1        1 FCF      0.131000
     19 N11        -2.0700   -4.7010   -0.8120 n         1 FCF     -0.303000
     20 C15        -1.8840   -5.3610    1.6040 c1        1 FCF     -0.301000
     21 C14        -1.2460   -6.6270    1.2230 c1        1 FCF      0.355000
     22 O33        -0.9150   -7.4420    2.0990 o         1 FCF     -0.345000
     23 N13        -0.9700   -6.9000   -0.1430 n         1 FCF     -0.366000
     24 C12        -1.4160   -5.9610   -1.1860 c2        1 FCF      0.395000
     25 O34        -1.3080   -6.2680   -2.3710 o         1 FCF     -0.362000
     26 H6          1.1690    7.0850   -1.0500 ha        1 FCF      0.155000
     27 H1          0.4530    5.5840   -2.7170 ha        1 FCF      0.110000
     28 H4          2.8960    3.9330    0.9530 DU        1 FCF      0.154000
     29 H2          0.9560    3.2910   -2.6190 ha        1 FCF      0.124000
     30 H17         3.3240    1.7080   -1.1960 h4        1 FCF      0.155000
     31 H22        -1.3570    0.7990   -0.2760 h1        1 FCF      0.102500
     32 H22A       -0.1910   -0.1230   -0.8350 h1        1 FCF      0.102500
     33 H23         0.2070   -0.6500    1.5650 h1        1 FCF      0.122000
     34 H23A       -1.2720   -0.1710    1.7400 h1        1 FCF      0.122000
     35 H30        -4.0390   -3.2510    1.1480 ha        1 FCF      0.180000
     36 HN13       -0.5290   -7.6780   -0.3790 hn        1 FCF      0.264000
     37 H13        -2.2840   -4.0840   -1.4610 hn        1 FCF      0.287000
     38 H15        -2.1380   -5.2040    2.5380 ha        1 FCF      0.176000
@<TRIPOS>BOND
     1    1    2 1   
     2    2    3 1   
     3    2    4 1   
     4    4    5 1   
     5    4    7 1   
     6    5    6 1   
     7    5   26 1   
     8    6   27 1   
     9    7    8 1   
    10    8    9 1   
    11    8   10 1   
    12    9   29 1   
    13   10   11 1   
    14   10   30 1   
    15   12   13 1   
    16   13   14 1   
    17   13   31 1   
    18   13   32 1   
    19   14   15 1   
    20   14   33 1   
    21   14   34 1   
    22   15   16 1   
    23   16   17 1   
    24   17   35 1   
    25   18   19 1   
    26   18   20 1   
    27   19   24 1   
    28   19   37 1   
    29   20   38 1   
    30   21   22 1   
    31   21   23 1   
    32   23   24 1   
    33   23   36 1   
    34   24   25 1   
@<TRIPOS>SUBSTRUCTURE
     1 FCF         1 TEMP              0 ****  ****    0 ROOT
