@<TRIPOS>MOLECULE
FCF
   38    39     1     0     0
SMALL
bcc


@<TRIPOS>ATOM
      1 O40         0.3600    0.2890    0.1750 o         1 FCF     -0.827300
      2 C38         1.6060    0.4470    0.0470 c         1 FCF      0.909200
      3 O39         2.3710    0.8730    0.9580 o         1 FCF     -0.827300
      4 C5          2.2310    0.1010   -1.2990 ca        1 FCF     -0.137600
      5 C6          1.4380   -0.3730   -2.3480 ca        1 FCF     -0.081000
      6 C1          2.0130   -0.6880   -3.5790 ca        1 FCF     -0.177000
      7 C4          3.6040    0.2550   -1.4940 ca        1 FCF     -0.077000
      8 C3          4.1900   -0.0590   -2.7320 ca        1 FCF     -0.191900
      9 C2          3.3840   -0.5330   -3.7760 ca        1 FCF     -0.110000
     10 C17         5.6330    0.1280   -2.8690 ce        1 FCF      0.456800
     11 N18         6.2850   -0.0730   -3.9830 n2        1 FCF     -0.485200
     12 O21         7.5980    0.1640   -3.8820 os        1 FCF     -0.210300
     13 C22         8.3060   -0.0550   -5.1240 c3        1 FCF      0.141400
     14 C23         9.7670    0.2240   -4.8000 c3        1 FCF      0.134400
     15 O27        10.3550   -1.1030   -4.6030 os        1 FCF     -0.175300
     16 N31        11.6120   -1.0810   -4.2320 n2        1 FCF     -0.400200
     17 C30        12.1380   -2.2530   -3.9930 ce        1 FCF      0.357500
     18 C16        13.5520   -2.4170   -3.5920 cc        1 FCF      0.075000
     19 N11        14.3300   -1.3130   -3.2740 n         1 FCF     -0.459100
     20 C15        14.0780   -3.6800   -3.5410 cd        1 FCF     -0.318200
     21 C14        15.4740   -3.8990   -3.1520 c         1 FCF      0.717700
     22 O33        16.0260   -5.0110   -3.0850 o         1 FCF     -0.615500
     23 N13        16.2240   -2.7500   -2.8390 n         1 FCF     -0.586500
     24 C12        15.6800   -1.4600   -2.8910 c         1 FCF      0.806500
     25 O34        16.3630   -0.4510   -2.6120 o         1 FCF     -0.642500
     26 H6          0.3560   -0.4880   -2.1730 ha        1 FCF      0.154000
     27 H1          1.3850   -1.0600   -4.4000 ha        1 FCF      0.109000
     28 H4          4.2090    0.6290   -0.6510 ha        1 FCF      0.155000
     29 H2          3.8260   -0.7840   -4.7500 ha        1 FCF      0.121000
     30 H17         6.1480    0.4630   -1.9400 h4        1 FCF     -0.000200
     31 H22         8.1590   -1.1080   -5.4780 h1        1 FCF      0.061200
     32 H22A        7.9440    0.6670   -5.9000 h1        1 FCF      0.061200
     33 H23         9.8730    0.8300   -3.8650 h1        1 FCF      0.066700
     34 H23A       10.2800    0.7210   -5.6600 h1        1 FCF      0.066700
     35 H30        11.5770   -3.2060   -4.0790 h4        1 FCF      0.031800
     36 HN13       17.1770   -2.8350   -2.5610 hn        1 FCF      0.351500
     37 H13        13.9600   -0.3880   -3.2970 hn        1 FCF      0.367500
     38 H15        13.4920   -4.5750   -3.7830 ha        1 FCF      0.180000
@<TRIPOS>BOND
     1    1    2 1   
     2    2    3 1   
     3    2    4 1   
     4    4    5 ar  
     5    4    7 ar  
     6    5    6 ar  
     7    5   26 1   
     8    6    9 ar  
     9    6   27 1   
    10    7    8 ar  
    11    7   28 1   
    12    8    9 ar  
    13    8   10 1   
    14    9   29 1   
    15   10   11 2   
    16   10   30 1   
    17   11   12 1   
    18   12   13 1   
    19   13   14 1   
    20   13   31 1   
    21   13   32 1   
    22   14   15 1   
    23   14   33 1   
    24   14   34 1   
    25   15   16 1   
    26   16   17 2   
    27   17   18 1   
    28   17   35 1   
    29   18   19 1   
    30   18   20 2   
    31   19   24 1   
    32   19   37 1   
    33   20   21 1   
    34   20   38 1   
    35   21   22 2   
    36   21   23 1   
    37   23   24 1   
    38   23   36 1   
    39   24   25 2   
@<TRIPOS>SUBSTRUCTURE
     1 FCF         1 TEMP              0 ****  ****    0 ROOT
