@<TRIPOS>MOLECULE
FCF
   38    39     1     0     0
SMALL
bcc


@<TRIPOS>ATOM
      1 O40        -8.7320   -1.6960    0.6880 o         1 FCF     -0.827300
      2 C38        -7.5290   -1.5570    1.0470 c         1 FCF      0.909200
      3 O39        -6.9950   -2.1700    2.0140 o         1 FCF     -0.827300
      4 C5         -6.6630   -0.5810    0.2610 ca        1 FCF     -0.137600
      5 C6         -7.1960    0.1300   -0.8180 ca        1 FCF     -0.081000
      6 C1         -6.3990    1.0230   -1.5350 ca        1 FCF     -0.177000
      7 C4         -5.3260   -0.3890    0.6140 ca        1 FCF     -0.077000
      8 C3         -4.5190    0.5090   -0.1020 ca        1 FCF     -0.191900
      9 C2         -5.0660    1.2160   -1.1830 ca        1 FCF     -0.110000
     10 C17        -3.1290    0.6640    0.3220 ce        1 FCF      0.456800
     11 N18        -2.2960    1.5090   -0.2250 n2        1 FCF     -0.485200
     12 O21        -1.0770    1.4850    0.3240 os        1 FCF     -0.210300
     13 C22        -0.1670    2.4310   -0.2850 c3        1 FCF      0.141400
     14 C23         1.1560    2.2270    0.4380 c3        1 FCF      0.134400
     15 O27         1.9380    1.3810   -0.4660 os        1 FCF     -0.175300
     16 N31         3.1030    1.0200    0.0140 n2        1 FCF     -0.400200
     17 C30         3.7910    0.2150   -0.7520 ce        1 FCF      0.357500
     18 C16         5.1380   -0.2710   -0.3810 cc        1 FCF      0.075000
     19 N11         5.6500   -0.0350    0.8870 n         1 FCF     -0.459100
     20 C15         5.8690   -0.9560   -1.3140 cd        1 FCF     -0.318200
     21 C14         7.2090   -1.4580   -0.9990 c         1 FCF      0.717700
     22 O33         7.9370   -2.0840   -1.7890 o         1 FCF     -0.615500
     23 N13         7.6870   -1.1950    0.2980 n         1 FCF     -0.586500
     24 C12         6.9340   -0.4940    1.2500 c         1 FCF      0.806500
     25 O34         7.3760   -0.2680    2.3970 o         1 FCF     -0.642500
     26 H6         -8.2530   -0.0370   -1.0810 ha        1 FCF      0.154000
     27 H1         -6.8230    1.5790   -2.3830 ha        1 FCF      0.109000
     28 H4         -4.9290   -0.9620    1.4680 ha        1 FCF      0.155000
     29 H2         -4.4480    1.9230   -1.7550 ha        1 FCF      0.121000
     30 H17        -2.8250    0.0000    1.1620 h4        1 FCF     -0.000200
     31 H22        -0.0690    2.2280   -1.3830 h1        1 FCF      0.061200
     32 H22A       -0.5360    3.4750   -0.1170 h1        1 FCF      0.061200
     33 H23         1.6920    3.2000    0.5750 h1        1 FCF      0.066700
     34 H23A        1.0140    1.7070    1.4190 h1        1 FCF      0.066700
     35 H30         3.4290   -0.1560   -1.7340 h4        1 FCF      0.031800
     36 HN13        8.5890   -1.5170    0.5740 hn        1 FCF      0.351500
     37 H13         5.1260    0.4540    1.5800 hn        1 FCF      0.367500
     38 H15         5.4950   -1.1620   -2.3240 ha        1 FCF      0.180000
@<TRIPOS>BOND
     1    1    2 1   
     2    2    3 1   
     3    2    4 1   
     4    4    5 ar  
     5    4    7 ar  
     6    5    6 ar  
     7    5   26 1   
     8    6    9 ar  
     9    6   27 1   
    10    7    8 ar  
    11    7   28 1   
    12    8    9 ar  
    13    8   10 1   
    14    9   29 1   
    15   10   11 2   
    16   10   30 1   
    17   11   12 1   
    18   12   13 1   
    19   13   14 1   
    20   13   31 1   
    21   13   32 1   
    22   14   15 1   
    23   14   33 1   
    24   14   34 1   
    25   15   16 1   
    26   16   17 2   
    27   17   18 1   
    28   17   35 1   
    29   18   19 1   
    30   18   20 2   
    31   19   24 1   
    32   19   37 1   
    33   20   21 1   
    34   20   38 1   
    35   21   22 2   
    36   21   23 1   
    37   23   24 1   
    38   23   36 1   
    39   24   25 2   
@<TRIPOS>SUBSTRUCTURE
     1 FCF         1 TEMP              0 ****  ****    0 ROOT
