@<TRIPOS>MOLECULE
FCF
   38    39     1     0     0
SMALL
bcc


@<TRIPOS>ATOM
      1 O40         0.3570    0.2850    0.1750 o         1 FCF     -0.827300
      2 C38         1.6050    0.4310    0.0530 c         1 FCF      0.909200
      3 O39         2.3730    0.8300    0.9730 o         1 FCF     -0.827300
      4 C5          2.2280    0.1060   -1.2990 ca        1 FCF     -0.137600
      5 C6          1.4320   -0.3370   -2.3590 ca        1 FCF     -0.081000
      6 C1          2.0060   -0.6320   -3.5950 ca        1 FCF     -0.177000
      7 C4          3.6030    0.2490   -1.4890 ca        1 FCF     -0.077000
      8 C3          4.1880   -0.0450   -2.7320 ca        1 FCF     -0.191900
      9 C2          3.3780   -0.4890   -3.7870 ca        1 FCF     -0.110000
     10 C17         5.6330    0.1280   -2.8630 ce        1 FCF      0.456800
     11 N18         6.2850   -0.0600   -3.9790 n2        1 FCF     -0.485200
     12 O21         7.6000    0.1620   -3.8720 os        1 FCF     -0.210300
     13 C22         8.3090   -0.0470   -5.1150 c3        1 FCF      0.141400
     14 C23         9.7700    0.2290   -4.7870 c3        1 FCF      0.134400
     15 O27        10.3570   -1.1000   -4.5980 os        1 FCF     -0.175300
     16 N31        11.6140   -1.0800   -4.2270 n2        1 FCF     -0.400200
     17 C30        12.1390   -2.2530   -3.9950 ce        1 FCF      0.357500
     18 C16        13.5540   -2.4210   -3.5950 cc        1 FCF      0.075000
     19 N11        14.3330   -1.3180   -3.2730 n         1 FCF     -0.459100
     20 C15        14.0790   -3.6840   -3.5490 cd        1 FCF     -0.318200
     21 C14        15.4740   -3.9060   -3.1620 c         1 FCF      0.717700
     22 O33        16.0260   -5.0180   -3.0990 o         1 FCF     -0.615500
     23 N13        16.2260   -2.7600   -2.8440 n         1 FCF     -0.586500
     24 C12        15.6830   -1.4680   -2.8910 c         1 FCF      0.806500
     25 O34        16.3670   -0.4610   -2.6080 o         1 FCF     -0.642500
     26 H6          0.3480   -0.4430   -2.1880 ha        1 FCF      0.154000
     27 H1          1.3750   -0.9810   -4.4250 ha        1 FCF      0.109000
     28 H4          4.2110    0.5990   -0.6370 ha        1 FCF      0.155000
     29 H2          3.8190   -0.7250   -4.7660 ha        1 FCF      0.121000
     30 H17         6.1500    0.4400   -1.9270 h4        1 FCF     -0.000200
     31 H22         7.9480    0.6810   -5.8860 h1        1 FCF      0.060700
     32 H22A        8.1620   -1.0980   -5.4760 h1        1 FCF      0.060700
     33 H23        10.2840    0.7320   -5.6440 h1        1 FCF      0.066700
     34 H23A        9.8760    0.8290   -3.8480 h1        1 FCF      0.066700
     35 H30        11.5780   -3.2060   -4.0860 h4        1 FCF      0.031800
     36 HN13       17.1790   -2.8460   -2.5670 hn        1 FCF      0.351500
     37 H13        13.9630   -0.3930   -3.2920 hn        1 FCF      0.367500
     38 H15        13.4920   -4.5780   -3.7950 ha        1 FCF      0.180000
@<TRIPOS>BOND
     1    1    2 1   
     2    2    3 1   
     3    2    4 1   
     4    4    5 ar  
     5    4    7 ar  
     6    5    6 ar  
     7    5   26 1   
     8    6    9 ar  
     9    6   27 1   
    10    7    8 ar  
    11    7   28 1   
    12    8    9 ar  
    13    8   10 1   
    14    9   29 1   
    15   10   11 2   
    16   10   30 1   
    17   11   12 1   
    18   12   13 1   
    19   13   14 1   
    20   13   31 1   
    21   13   32 1   
    22   14   15 1   
    23   14   33 1   
    24   14   34 1   
    25   15   16 1   
    26   16   17 2   
    27   17   18 1   
    28   17   35 1   
    29   18   19 1   
    30   18   20 2   
    31   19   24 1   
    32   19   37 1   
    33   20   21 1   
    34   20   38 1   
    35   21   22 2   
    36   21   23 1   
    37   23   24 1   
    38   23   36 1   
    39   24   25 2   
@<TRIPOS>SUBSTRUCTURE
     1 FCF         1 TEMP              0 ****  ****    0 ROOT
