@<TRIPOS>MOLECULE
FCH
   50    51     1     0     0
SMALL
bcc


@<TRIPOS>ATOM
      1 C11        -0.2840   -0.1730    0.2090 c3        1 FCH     -0.078900
      2 N11         3.9860    1.1510    0.4590 n4        1 FCH     -0.758000
      3 C12         3.4370   -0.0000    1.2510 c3        1 FCH      0.105800
      4 C13         1.9110    0.0590    1.3820 c3        1 FCH     -0.092700
      5 C14         1.4940   -1.0270    2.3730 c3        1 FCH     -0.077900
      6 C15         1.2240   -0.1480    0.0410 c3        1 FCH     -0.077900
      7 C16         5.4670    1.0880    0.3280 c3        1 FCH      0.093800
      8 C17         6.0650    2.3220   -0.3930 c3        1 FCH      0.117100
      9 C18        -0.7120   -1.2290    1.2060 c3        1 FCH     -0.086400
     10 O18         5.4570    3.4390    0.2200 oh        1 FCH     -0.590800
     11 C19         7.6010    2.3860   -0.1780 c3        1 FCH      0.080500
     12 C20        -0.0130   -1.0440    2.5360 c3        1 FCH     -0.078900
     13 N20         8.3500    1.4300   -1.0610 n4        1 FCH     -0.844600
     14 C32         8.1150    3.8240   -0.4030 c3        1 FCH     -0.049100
     15 C33        10.3270    3.7990   -1.5730 ca        1 FCH     -0.133500
     16 C34        11.7150    3.9180   -1.5580 ca        1 FCH     -0.105000
     17 C35        12.3870    4.1270   -0.3510 ca        1 FCH     -0.079000
     18 C36        11.6660    4.2190    0.8410 ca        1 FCH     -0.105000
     19 C37        10.2760    4.1020    0.8300 ca        1 FCH     -0.133500
     20 C38         9.5990    3.8870   -0.3760 ca        1 FCH     -0.191300
     21 H11        -0.6400    0.8350    0.5510 hc        1 FCH      0.065450
     22 H11A       -0.7600   -0.3790   -0.7860 hc        1 FCH      0.065450
     23 H12         3.7400   -0.9530    0.7310 hx        1 FCH      0.106200
     24 H12A        3.9090    0.0320    2.2750 hx        1 FCH      0.106200
     25 H13         1.6030    1.0570    1.8060 hc        1 FCH      0.078700
     26 H14         1.8420   -2.0260    2.0020 hc        1 FCH      0.044700
     27 H14A        1.9770   -0.8370    3.3660 hc        1 FCH      0.044700
     28 H15         1.5620   -1.1180   -0.4110 hc        1 FCH      0.044700
     29 H15A        1.4920    0.6770   -0.6700 hc        1 FCH      0.044700
     30 H16         5.8930    1.0240    1.3720 hx        1 FCH      0.110700
     31 H16A        5.7330    0.1540   -0.2410 hx        1 FCH      0.110700
     32 H17         5.8190    2.2940   -1.4930 h1        1 FCH      0.075700
     33 H18        -0.4830   -2.2490    0.7980 hc        1 FCH      0.067200
     34 H18A       -1.8220   -1.1700    1.3570 hc        1 FCH      0.067200
     35 HO18        5.6080    4.2250   -0.3300 ho        1 FCH      0.468000
     36 H19         7.8430    2.0960    0.8910 hx        1 FCH      0.129700
     37 H20        -0.2940   -1.8800    3.2300 hc        1 FCH      0.065450
     38 H20A       -0.3510   -0.0860    3.0120 hc        1 FCH      0.065450
     39 HN20        8.1560    0.4600   -0.8060 hn        1 FCH      0.471467
     40 H32         7.6930    4.4600    0.4260 hc        1 FCH      0.095700
     41 H32A        7.7220    4.2200   -1.3780 hc        1 FCH      0.095700
     42 H35        13.4850    4.2350   -0.3430 ha        1 FCH      0.175000
     43 H36        12.1940    4.4020    1.7920 ha        1 FCH      0.169500
     44 H37         9.7130    4.2050    1.7710 ha        1 FCH      0.135500
     45 H2          3.7320    2.0370    0.9250 hn        1 FCH      0.468300
     46 H1          8.1080    1.5830   -2.0450 hn        1 FCH      0.471467
     47 H33         9.8020    3.6970   -2.5350 ha        1 FCH      0.135500
     48 H112        3.5480    1.1540   -0.4710 hn        1 FCH      0.468300
     49 H203        9.3660    1.6210   -0.9510 hn        1 FCH      0.471467
     50 H34        12.2830    3.8690   -2.5020 ha        1 FCH      0.169500
@<TRIPOS>BOND
     1    1    6 1   
     2    1    9 1   
     3    1   21 1   
     4    1   22 1   
     5    2    3 1   
     6    2    7 1   
     7    2   45 1   
     8    2   48 1   
     9    3    4 1   
    10    3   23 1   
    11    3   24 1   
    12    4    5 1   
    13    4    6 1   
    14    4   25 1   
    15    5   12 1   
    16    5   26 1   
    17    5   27 1   
    18    6   28 1   
    19    6   29 1   
    20    7    8 1   
    21    7   30 1   
    22    7   31 1   
    23    8   10 1   
    24    8   11 1   
    25    8   32 1   
    26    9   12 1   
    27    9   33 1   
    28    9   34 1   
    29   10   35 1   
    30   11   13 1   
    31   11   14 1   
    32   11   36 1   
    33   12   37 1   
    34   12   38 1   
    35   13   39 1   
    36   13   46 1   
    37   13   49 1   
    38   14   20 1   
    39   14   40 1   
    40   14   41 1   
    41   15   16 ar  
    42   15   20 ar  
    43   15   47 1   
    44   16   17 ar  
    45   16   50 1   
    46   17   18 ar  
    47   17   42 1   
    48   18   19 ar  
    49   18   43 1   
    50   19   20 ar  
    51   19   44 1   
@<TRIPOS>SUBSTRUCTURE
     1 FCH         1 TEMP              0 ****  ****    0 ROOT
