@<TRIPOS>MOLECULE
FCH
   50    51     1     0     0
SMALL
bcc


@<TRIPOS>ATOM
      1 C11        -0.2800   -0.1880    0.2270 c3        1 FCH     -0.078900
      2 N11         3.9870    1.1510    0.4630 n4        1 FCH     -0.758000
      3 C12         3.4410    0.0060    1.2670 c3        1 FCH      0.105800
      4 C13         1.9150    0.0630    1.3970 c3        1 FCH     -0.092700
      5 C14         1.5000   -1.0130    2.4000 c3        1 FCH     -0.077900
      6 C15         1.2280   -0.1610    0.0580 c3        1 FCH     -0.077900
      7 C16         5.4670    1.0890    0.3320 c3        1 FCH      0.093800
      8 C17         6.0620    2.3180   -0.4020 c3        1 FCH      0.117100
      9 C18        -0.7050   -1.2340    1.2350 c3        1 FCH     -0.086400
     10 O18         5.4520    3.4400    0.2020 oh        1 FCH     -0.590800
     11 C19         7.5990    2.3880   -0.1880 c3        1 FCH      0.080500
     12 C20        -0.0070   -1.0320    2.5630 c3        1 FCH     -0.078900
     13 N20         8.3490    1.4240   -1.0610 n4        1 FCH     -0.844600
     14 C32         8.1090    3.8240   -0.4280 c3        1 FCH     -0.049100
     15 C33        10.3210    3.7910   -1.6000 ca        1 FCH     -0.133500
     16 C34        11.7080    3.9130   -1.5870 ca        1 FCH     -0.105000
     17 C35        12.3810    4.1360   -0.3820 ca        1 FCH     -0.079000
     18 C36        11.6610    4.2390    0.8080 ca        1 FCH     -0.105000
     19 C37        10.2710    4.1190    0.8000 ca        1 FCH     -0.133500
     20 C38         9.5940    3.8900   -0.4030 ca        1 FCH     -0.191300
     21 H11        -0.7550   -0.4060   -0.7660 hc        1 FCH      0.065450
     22 H11A       -0.6380    0.8230    0.5570 hc        1 FCH      0.065450
     23 H12         3.9120    0.0510    2.2910 hx        1 FCH      0.106200
     24 H12A        3.7470   -0.9510    0.7570 hx        1 FCH      0.106200
     25 H13         1.6030    1.0650    1.8100 hc        1 FCH      0.078700
     26 H14         1.8510   -2.0150    2.0400 hc        1 FCH      0.044700
     27 H14A        1.9820   -0.8110    3.3920 hc        1 FCH      0.044700
     28 H15         1.4940    0.6570   -0.6620 hc        1 FCH      0.044700
     29 H15A        1.5690   -1.1350   -0.3830 hc        1 FCH      0.044700
     30 H16         5.8950    1.0370    1.3770 hx        1 FCH      0.110700
     31 H16A        5.7360    0.1500   -0.2280 hx        1 FCH      0.110700
     32 H17         5.8170    2.2790   -1.5010 h1        1 FCH      0.075700
     33 H18        -0.4740   -2.2580    0.8380 hc        1 FCH      0.067200
     34 H18A       -1.8150   -1.1760    1.3850 hc        1 FCH      0.067200
     35 HO18        5.6010    4.2210   -0.3570 ho        1 FCH      0.468000
     36 H19         7.8420    2.1090    0.8840 hx        1 FCH      0.129700
     37 H20        -0.3480   -0.0690    3.0290 hc        1 FCH      0.065450
     38 H20A       -0.2850   -1.8610    3.2660 hc        1 FCH      0.065450
     39 HN20        9.3640    1.6170   -0.9540 hn        1 FCH      0.471467
     40 H32         7.7150    4.2080   -1.4070 hc        1 FCH      0.095700
     41 H32A        7.6870    4.4670    0.3950 hc        1 FCH      0.095700
     42 H35        13.4790    4.2460   -0.3770 ha        1 FCH      0.175000
     43 H36        12.1890    4.4330    1.7580 ha        1 FCH      0.169500
     44 H37         9.7090    4.2310    1.7400 ha        1 FCH      0.135500
     45 H2          3.7310    2.0410    0.9200 hn        1 FCH      0.468300
     46 H1          8.1060    1.5660   -2.0470 hn        1 FCH      0.471467
     47 H33         9.7960    3.6780   -2.5610 ha        1 FCH      0.135500
     48 H112        3.5480    1.1430   -0.4670 hn        1 FCH      0.468300
     49 H203        8.1570    0.4560   -0.7960 hn        1 FCH      0.471467
     50 H34        12.2760    3.8550   -2.5310 ha        1 FCH      0.169500
@<TRIPOS>BOND
     1    1    6 1   
     2    1    9 1   
     3    1   21 1   
     4    1   22 1   
     5    2    3 1   
     6    2    7 1   
     7    2   45 1   
     8    2   48 1   
     9    3    4 1   
    10    3   23 1   
    11    3   24 1   
    12    4    5 1   
    13    4    6 1   
    14    4   25 1   
    15    5   12 1   
    16    5   26 1   
    17    5   27 1   
    18    6   28 1   
    19    6   29 1   
    20    7    8 1   
    21    7   30 1   
    22    7   31 1   
    23    8   10 1   
    24    8   11 1   
    25    8   32 1   
    26    9   12 1   
    27    9   33 1   
    28    9   34 1   
    29   10   35 1   
    30   11   13 1   
    31   11   14 1   
    32   11   36 1   
    33   12   37 1   
    34   12   38 1   
    35   13   39 1   
    36   13   46 1   
    37   13   49 1   
    38   14   20 1   
    39   14   40 1   
    40   14   41 1   
    41   15   16 ar  
    42   15   20 ar  
    43   15   47 1   
    44   16   17 ar  
    45   16   50 1   
    46   17   18 ar  
    47   17   42 1   
    48   18   19 ar  
    49   18   43 1   
    50   19   20 ar  
    51   19   44 1   
@<TRIPOS>SUBSTRUCTURE
     1 FCH         1 TEMP              0 ****  ****    0 ROOT
