@<TRIPOS>MOLECULE
FCH
   48    49     1     0     0
SMALL
bcc


@<TRIPOS>ATOM
      1 C11         5.5700   -0.7060   -1.5040 c3        1 FCH     -0.075900
      2 N11         1.8990   -1.0210    1.1090 n3        1 FCH     -0.810200
      3 C12         2.8260    0.0960    1.1050 c3        1 FCH      0.161800
      4 C13         4.2150   -0.2590    0.5570 c3        1 FCH     -0.067700
      5 C14         5.1910    0.8440    0.9430 c3        1 FCH     -0.074900
      6 C15         4.1840   -0.4350   -0.9540 c3        1 FCH     -0.074900
      7 C16         0.5370   -0.6560    1.4200 c3        1 FCH      0.127800
      8 C17        -0.2870   -0.0440    0.2690 c3        1 FCH      0.052100
      9 C18         6.5450    0.3840   -1.1090 c3        1 FCH     -0.077400
     10 O18        -0.1270   -0.8120   -0.9130 oh        1 FCH     -0.593800
     11 C19        -1.7920    0.0660    0.6430 c3        1 FCH      0.147500
     12 C20         6.5750    0.5710    0.3930 c3        1 FCH     -0.075900
     13 N20        -2.0650    0.7260    1.8990 n3        1 FCH     -0.902800
     14 C32        -2.5210    0.7410   -0.5360 c3        1 FCH     -0.034100
     15 C33        -4.8350    1.2100    0.3120 ca        1 FCH     -0.118500
     16 C34        -6.2070    0.9630    0.3110 ca        1 FCH     -0.133000
     17 C35        -6.7410   -0.0190   -0.5220 ca        1 FCH     -0.131000
     18 C36        -5.8990   -0.7560   -1.3550 ca        1 FCH     -0.133000
     19 C37        -4.5270   -0.5110   -1.3550 ca        1 FCH     -0.118500
     20 C38        -3.9840    0.4730   -0.5200 ca        1 FCH     -0.076300
     21 H11         5.9380   -1.6930   -1.1180 hc        1 FCH      0.039700
     22 H11A        5.5190   -0.7780   -2.6210 hc        1 FCH      0.039700
     23 H12         2.4300    0.9770    0.5170 h1        1 FCH      0.028200
     24 H12A        2.9390    0.4320    2.1750 h1        1 FCH      0.028200
     25 H13         4.5650   -1.2220    1.0240 hc        1 FCH      0.063700
     26 H14         4.8180    1.8260    0.5490 hc        1 FCH      0.040200
     27 H14A        5.2420    0.9250    2.0600 hc        1 FCH      0.040200
     28 H15         3.7680    0.4920   -1.4290 hc        1 FCH      0.040200
     29 H15A        3.5090   -1.2860   -1.2280 hc        1 FCH      0.040200
     30 H16         0.0200   -1.6000    1.7580 h1        1 FCH      0.052700
     31 H16A        0.5490    0.0670    2.2820 h1        1 FCH      0.052700
     32 H17         0.1180    0.9690   -0.0110 h1        1 FCH      0.076700
     33 H18         7.5710    0.1220   -1.4770 hc        1 FCH      0.039200
     34 H18A        6.2470    1.3480   -1.6000 hc        1 FCH      0.039200
     35 HO18       -0.5070   -1.6830   -0.7430 ho        1 FCH      0.400000
     36 H19        -2.1900   -0.9900    0.7360 h1        1 FCH      0.062700
     37 H20         7.2550    1.4240    0.6530 hc        1 FCH      0.039700
     38 H20A        6.9930   -0.3520    0.8760 hc        1 FCH      0.039700
     39 HN20       -1.6350    0.2360    2.6580 hn        1 FCH      0.351300
     40 H32        -2.3370    1.8490   -0.5150 hc        1 FCH      0.058700
     41 H32A       -2.0710    0.3460   -1.4870 hc        1 FCH      0.058700
     42 H34        -6.8680    1.5440    0.9700 ha        1 FCH      0.129000
     43 H35        -7.8240   -0.2130   -0.5230 ha        1 FCH      0.129000
     44 H36        -6.3170   -1.5300   -2.0140 ha        1 FCH      0.129000
     45 H37        -3.8680   -1.0920   -2.0160 ha        1 FCH      0.133000
     46 H2          1.9300   -1.5060    0.2290 hn        1 FCH      0.367800
     47 H1         -1.7420    1.6730    1.8880 hn        1 FCH      0.351300
     48 H33        -4.4140    1.9780    0.9780 ha        1 FCH      0.133000
@<TRIPOS>BOND
     1    1    6 1   
     2    1    9 1   
     3    1   21 1   
     4    1   22 1   
     5    2    3 1   
     6    2    7 1   
     7    2   46 1   
     8    3    4 1   
     9    3   23 1   
    10    3   24 1   
    11    4    5 1   
    12    4    6 1   
    13    4   25 1   
    14    5   12 1   
    15    5   26 1   
    16    5   27 1   
    17    6   28 1   
    18    6   29 1   
    19    7    8 1   
    20    7   30 1   
    21    7   31 1   
    22    8   10 1   
    23    8   11 1   
    24    8   32 1   
    25    9   12 1   
    26    9   33 1   
    27    9   34 1   
    28   10   35 1   
    29   11   13 1   
    30   11   14 1   
    31   11   36 1   
    32   12   37 1   
    33   12   38 1   
    34   13   39 1   
    35   13   47 1   
    36   14   20 1   
    37   14   40 1   
    38   14   41 1   
    39   15   16 ar  
    40   15   20 ar  
    41   15   48 1   
    42   16   17 ar  
    43   16   42 1   
    44   17   18 ar  
    45   17   43 1   
    46   18   19 ar  
    47   18   44 1   
    48   19   20 ar  
    49   19   45 1   
@<TRIPOS>SUBSTRUCTURE
     1 FCH         1 TEMP              0 ****  ****    0 ROOT
