@<TRIPOS>MOLECULE
FCH
   50    51     1     0     0
SMALL
bcc


@<TRIPOS>ATOM
      1 C11        -0.2820   -0.1760    0.2090 c3        1 FCH     -0.078900
      2 N11         3.9870    1.1500    0.4580 ny        1 FCH     -0.758000
      3 C12         3.4370    0.0050    1.2580 c3        1 FCH      0.105800
      4 C13         1.9110    0.0650    1.3850 c3        1 FCH     -0.092700
      5 C14         1.4910   -1.0130    2.3830 c3        1 FCH     -0.077900
      6 C15         1.2260   -0.1520    0.0440 c3        1 FCH     -0.077900
      7 C16         5.4680    1.0870    0.3310 c3        1 FCH      0.093800
      8 C17         6.0670    2.3160   -0.3980 c3        1 FCH      0.117100
      9 C18        -0.7120   -1.2250    1.2130 c3        1 FCH     -0.086400
     10 O18         5.4570    3.4380    0.2040 oh        1 FCH     -0.590800
     11 C19         7.6040    2.3840   -0.1790 c3        1 FCH      0.080500
     12 C20        -0.0160   -1.0290    2.5430 c3        1 FCH     -0.078900
     13 N20         8.3550    1.4200   -1.0500 nz        1 FCH     -0.844600
     14 C32         8.1160    3.8200   -0.4150 c3        1 FCH     -0.049100
     15 C33        10.3310    3.7850   -1.5800 ca        1 FCH     -0.133500
     16 C34        11.7190    3.9060   -1.5630 ca        1 FCH     -0.105000
     17 C35        12.3880    4.1270   -0.3550 ca        1 FCH     -0.079000
     18 C36        11.6640    4.2290    0.8330 ca        1 FCH     -0.105000
     19 C37        10.2740    4.1110    0.8200 ca        1 FCH     -0.133500
     20 C38         9.6010    3.8840   -0.3860 ca        1 FCH     -0.191300
     21 H11        -0.6390    0.8340    0.5420 hc        1 FCH      0.065450
     22 H11A       -0.7560   -0.3900   -0.7860 hc        1 FCH      0.065450
     23 H12         3.9060    0.0460    2.2830 hx        1 FCH      0.106200
     24 H12A        3.7410   -0.9520    0.7460 hx        1 FCH      0.106200
     25 H13         1.6010    1.0660    1.8000 hc        1 FCH      0.078700
     26 H14         1.9720   -0.8160    3.3760 hc        1 FCH      0.044700
     27 H14A        1.8400   -2.0160    2.0200 hc        1 FCH      0.044700
     28 H15         1.4960    0.6680   -0.6730 hc        1 FCH      0.044700
     29 H15A        1.5650   -1.1250   -0.4000 hc        1 FCH      0.044700
     30 H16         5.7370    0.1480   -0.2290 hx        1 FCH      0.110700
     31 H16A        5.8920    1.0320    1.3770 hx        1 FCH      0.110700
     32 H17         5.8250    2.2790   -1.4980 h1        1 FCH      0.075700
     33 H18        -1.8230   -1.1650    1.3600 hc        1 FCH      0.067200
     34 H18A       -0.4820   -2.2480    0.8130 hc        1 FCH      0.067200
     35 HO18        5.6090    4.2190   -0.3520 ho        1 FCH      0.468000
     36 H19         7.8420    2.1040    0.8930 hx        1 FCH      0.129700
     37 H20        -0.2980   -1.8610    3.2420 hc        1 FCH      0.065450
     38 H20A       -0.3560   -0.0680    3.0110 hc        1 FCH      0.065450
     39 HN20        8.1610    0.4520   -0.7870 hn        1 FCH      0.471467
     40 H32         7.7260    4.2060   -1.3950 hc        1 FCH      0.095700
     41 H32A        7.6920    4.4620    0.4070 hc        1 FCH      0.095700
     42 H35        13.4860    4.2360   -0.3460 ha        1 FCH      0.175000
     43 H36        12.1890    4.4220    1.7840 ha        1 FCH      0.169500
     44 H37         9.7090    4.2230    1.7590 ha        1 FCH      0.135500
     45 H2          3.5520    1.1460   -0.4730 hn        1 FCH      0.468300
     46 H1          9.3710    1.6120   -0.9390 hn        1 FCH      0.471467
     47 H33         9.8090    3.6740   -2.5420 ha        1 FCH      0.135500
     48 H112        3.7310    2.0400    0.9170 hn        1 FCH      0.468300
     49 H203        8.1160    1.5640   -2.0370 hn        1 FCH      0.471467
     50 H34        12.2890    3.8480   -2.5050 ha        1 FCH      0.169500
@<TRIPOS>BOND
     1    1    6 1   
     2    1    9 1   
     3    1   21 1   
     4    1   22 1   
     5    2    3 1   
     6    2    7 1   
     7    2   45 1   
     8    2   48 1   
     9    3    4 1   
    10    3   23 1   
    11    3   24 1   
    12    4    5 1   
    13    4    6 1   
    14    4   25 1   
    15    5   12 1   
    16    5   26 1   
    17    5   27 1   
    18    6   28 1   
    19    6   29 1   
    20    7    8 1   
    21    7   30 1   
    22    7   31 1   
    23    8   10 1   
    24    8   11 1   
    25    8   32 1   
    26    9   12 1   
    27    9   33 1   
    28    9   34 1   
    29   10   35 1   
    30   11   13 1   
    31   11   14 1   
    32   11   36 1   
    33   12   37 1   
    34   12   38 1   
    35   13   39 1   
    36   13   46 1   
    37   13   49 1   
    38   14   20 1   
    39   14   40 1   
    40   14   41 1   
    41   15   16 ar  
    42   15   20 ar  
    43   15   47 1   
    44   16   17 ar  
    45   16   50 1   
    46   17   18 ar  
    47   17   42 1   
    48   18   19 ar  
    49   18   43 1   
    50   19   20 ar  
    51   19   44 1   
@<TRIPOS>SUBSTRUCTURE
     1 FCH         1 TEMP              0 ****  ****    0 ROOT
