@<TRIPOS>MOLECULE
FCK
   43    44     1     0     0
SMALL
bcc


@<TRIPOS>ATOM
      1 C1         -0.2090   -0.3210    0.1760 ca        1 FCK     -0.147000
      2 C2          1.1600   -0.4610   -0.0510 ca        1 FCK     -0.116000
      3 C3          2.0610   -0.1310    0.9670 ca        1 FCK     -0.229300
      4 C4          1.5860    0.3300    2.2010 ca        1 FCK     -0.112000
      5 C5          0.2220    0.5340    2.4020 ca        1 FCK     -0.121600
      6 C6         -0.6780    0.1870    1.3910 ca        1 FCK     -0.056000
      7 C7          5.5900    1.1850    0.9380 c3        1 FCK      0.103800
      8 O39         0.7050    1.7100    4.4010 o         1 FCK     -0.801800
      9 C38        -0.2210    1.1940    3.7130 c         1 FCK      0.914200
     10 O40        -1.4460    1.1930    3.9820 o         1 FCK     -0.801800
     11 C17         3.5290   -0.2070    0.7660 c3        1 FCK      0.198100
     12 N18         4.1060    1.1810    0.9320 n4        1 FCK     -0.774000
     13 C22         6.1680    2.5850    1.0960 c3        1 FCK     -0.124400
     14 C23         7.6860    2.4890    1.1140 c3        1 FCK      0.150400
     15 O27         8.1210    3.8740    1.2230 os        1 FCK     -0.181300
     16 N31         9.4370    4.0120    1.1930 n2        1 FCK     -0.423200
     17 C30         9.8550    5.2400    1.3270 ce        1 FCK      0.401500
     18 C16        11.2930    5.5960    1.3060 cc        1 FCK      0.050000
     19 N11        12.2660    4.6110    1.2180 n         1 FCK     -0.465100
     20 C15        11.6370    6.9170    1.3750 cd        1 FCK     -0.292200
     21 C14        13.0480    7.3280    1.3560 c         1 FCK      0.713700
     22 O33        13.4350    8.5060    1.4130 o         1 FCK     -0.593500
     23 N13        14.0000    6.2970    1.2660 n         1 FCK     -0.582500
     24 C12        13.6390    4.9450    1.1970 c         1 FCK      0.807500
     25 O34        14.4920    4.0370    1.1170 o         1 FCK     -0.628500
     26 H1         -0.9210   -0.6040   -0.6130 ha        1 FCK      0.135000
     27 H2          1.5250   -0.8360   -1.0180 ha        1 FCK      0.117000
     28 H4          2.2600    0.5550    3.0470 ha        1 FCK      0.151000
     29 H6         -1.7570    0.3270    1.5790 ha        1 FCK      0.175000
     30 H7          5.9440    0.7260   -0.0300 hx        1 FCK      0.099700
     31 H7A         5.9360    0.5290    1.7890 hx        1 FCK      0.099700
     32 H17         3.8030   -0.5770   -0.2600 hx        1 FCK      0.090200
     33 H17A        4.0130   -0.8620    1.5460 hx        1 FCK      0.090200
     34 HN18        3.7550    1.7780    0.1760 hn        1 FCK      0.458800
     35 H22         5.8170    3.0610    2.0510 hc        1 FCK      0.085200
     36 H22A        5.8500    3.2500    0.2500 hc        1 FCK      0.085200
     37 H23         8.0810    2.0370    0.1690 h1        1 FCK      0.062700
     38 H23A        8.0510    1.9110    2.0020 h1        1 FCK      0.062700
     39 HN13       14.9740    6.5140    1.2520 hn        1 FCK      0.358500
     40 H30         9.1760    6.1090    1.4610 h4        1 FCK      0.034800
     41 H171       12.0330    3.6440    1.1710 hn        1 FCK      0.363500
     42 H15        10.8980    7.7240    1.4460 ha        1 FCK      0.182000
     43 H182        3.7480    1.5730    1.8190 hn        1 FCK      0.458800
@<TRIPOS>BOND
     1    1    2 ar  
     2    1    6 ar  
     3    1   26 1   
     4    2    3 ar  
     5    2   27 1   
     6    3    4 ar  
     7    3   11 1   
     8    4    5 ar  
     9    4   28 1   
    10    5    6 ar  
    11    5    9 1   
    12    6   29 1   
    13    7   12 1   
    14    7   13 1   
    15    7   30 1   
    16    7   31 1   
    17    8    9 1   
    18    9   10 1   
    19   11   12 1   
    20   11   32 1   
    21   11   33 1   
    22   12   34 1   
    23   12   43 1   
    24   13   14 1   
    25   13   35 1   
    26   13   36 1   
    27   14   15 1   
    28   14   37 1   
    29   14   38 1   
    30   15   16 1   
    31   16   17 2   
    32   17   18 1   
    33   17   40 1   
    34   18   19 1   
    35   18   20 2   
    36   19   24 1   
    37   19   41 1   
    38   20   21 1   
    39   20   42 1   
    40   21   22 2   
    41   21   23 1   
    42   23   24 1   
    43   23   39 1   
    44   24   25 2   
@<TRIPOS>SUBSTRUCTURE
     1 FCK         1 TEMP              0 ****  ****    0 ROOT
