@<TRIPOS>MOLECULE
FCK
   43    44     1     0     0
SMALL
bcc


@<TRIPOS>ATOM
      1 C1         -0.2010   -0.3390    0.1800 ca        1 FCK     -0.147000
      2 C2          1.1680   -0.4780   -0.0410 ca        1 FCK     -0.116000
      3 C3          2.0660   -0.1400    0.9780 ca        1 FCK     -0.229300
      4 C4          1.5860    0.3310    2.2070 ca        1 FCK     -0.112000
      5 C5          0.2210    0.5340    2.4010 ca        1 FCK     -0.121600
      6 C6         -0.6750    0.1780    1.3890 ca        1 FCK     -0.056000
      7 C7          5.5940    1.1810    0.9480 c3        1 FCK      0.103800
      8 O39         0.6950    1.7250    4.3930 o         1 FCK     -0.801800
      9 C38        -0.2270    1.2050    3.7050 c         1 FCK      0.914200
     10 O40        -1.4530    1.2050    3.9690 o         1 FCK     -0.801800
     11 C17         3.5340   -0.2160    0.7830 c3        1 FCK      0.198100
     12 N18         4.1100    1.1740    0.9400 n4        1 FCK     -0.774000
     13 C22         6.1700    2.5820    1.1010 c3        1 FCK     -0.124400
     14 C23         7.6870    2.4890    1.1200 c3        1 FCK      0.150400
     15 O27         8.1200    3.8740    1.2290 os        1 FCK     -0.181300
     16 N31         9.4350    4.0150    1.1910 n2        1 FCK     -0.423200
     17 C30         9.8520    5.2440    1.3270 ce        1 FCK      0.401500
     18 C16        11.2890    5.6030    1.2980 cc        1 FCK      0.050000
     19 N11        12.2630    4.6210    1.1890 n         1 FCK     -0.465100
     20 C15        11.6310    6.9240    1.3810 cd        1 FCK     -0.292200
     21 C14        13.0410    7.3390    1.3560 c         1 FCK      0.713700
     22 O33        13.4260    8.5170    1.4240 o         1 FCK     -0.593500
     23 N13        13.9930    6.3110    1.2440 n         1 FCK     -0.582500
     24 C12        13.6360    4.9590    1.1610 c         1 FCK      0.807500
     25 O34        14.4890    4.0540    1.0620 o         1 FCK     -0.628500
     26 H1         -0.9100   -0.6290   -0.6090 ha        1 FCK      0.135000
     27 H2          1.5370   -0.8610   -1.0030 ha        1 FCK      0.117000
     28 H4          2.2560    0.5630    3.0530 ha        1 FCK      0.151000
     29 H6         -1.7540    0.3190    1.5730 ha        1 FCK      0.175000
     30 H7          5.9390    0.5290    1.8030 hx        1 FCK      0.099700
     31 H7A         5.9490    0.7180   -0.0170 hx        1 FCK      0.099700
     32 H17         3.8130   -0.5930   -0.2400 hx        1 FCK      0.090200
     33 H17A        4.0170   -0.8640    1.5690 hx        1 FCK      0.090200
     34 HN18        3.7500    1.5720    1.8240 hn        1 FCK      0.458800
     35 H22         5.8170    3.0610    2.0540 hc        1 FCK      0.085200
     36 H22A        5.8500    3.2440    0.2530 hc        1 FCK      0.085200
     37 H23         8.0530    1.9110    2.0070 h1        1 FCK      0.062700
     38 H23A        8.0830    2.0370    0.1740 h1        1 FCK      0.062700
     39 HN13       14.9670    6.5300    1.2250 hn        1 FCK      0.358500
     40 H30         9.1720    6.1110    1.4700 h4        1 FCK      0.034800
     41 H171       12.0320    3.6550    1.1330 hn        1 FCK      0.363500
     42 H15        10.8900    7.7290    1.4690 ha        1 FCK      0.182000
     43 H182        3.7590    1.7660    0.1800 hn        1 FCK      0.458800
@<TRIPOS>BOND
     1    1    2 ar  
     2    1    6 ar  
     3    1   26 1   
     4    2    3 ar  
     5    2   27 1   
     6    3    4 ar  
     7    3   11 1   
     8    4    5 ar  
     9    4   28 1   
    10    5    6 ar  
    11    5    9 1   
    12    6   29 1   
    13    7   12 1   
    14    7   13 1   
    15    7   30 1   
    16    7   31 1   
    17    8    9 1   
    18    9   10 1   
    19   11   12 1   
    20   11   32 1   
    21   11   33 1   
    22   12   34 1   
    23   12   43 1   
    24   13   14 1   
    25   13   35 1   
    26   13   36 1   
    27   14   15 1   
    28   14   37 1   
    29   14   38 1   
    30   15   16 1   
    31   16   17 2   
    32   17   18 1   
    33   17   40 1   
    34   18   19 1   
    35   18   20 2   
    36   19   24 1   
    37   19   41 1   
    38   20   21 1   
    39   20   42 1   
    40   21   22 2   
    41   21   23 1   
    42   23   24 1   
    43   23   39 1   
    44   24   25 2   
@<TRIPOS>SUBSTRUCTURE
     1 FCK         1 TEMP              0 ****  ****    0 ROOT
