@<TRIPOS>MOLECULE
FCK
   43    44     1     0     0
SMALL
bcc


@<TRIPOS>ATOM
      1 C1         -0.2020   -0.3430    0.1910 ca        1 FCK     -0.147000
      2 C2          1.1670   -0.4820   -0.0330 ca        1 FCK     -0.116000
      3 C3          2.0660   -0.1420    0.9840 ca        1 FCK     -0.229300
      4 C4          1.5890    0.3300    2.2130 ca        1 FCK     -0.112000
      5 C5          0.2240    0.5330    2.4100 ca        1 FCK     -0.121600
      6 C6         -0.6740    0.1760    1.4000 ca        1 FCK     -0.056000
      7 C7          5.5930    1.1800    0.9470 c3        1 FCK      0.103800
      8 O39         0.7010    1.7270    4.3990 o         1 FCK     -0.801800
      9 C38        -0.2220    1.2050    3.7140 c         1 FCK      0.914200
     10 O40        -1.4480    1.2050    3.9800 o         1 FCK     -0.801800
     11 C17         3.5340   -0.2170    0.7860 c3        1 FCK      0.198100
     12 N18         4.1100    1.1730    0.9400 ny        1 FCK     -0.774000
     13 C22         6.1690    2.5820    1.0960 c3        1 FCK     -0.124400
     14 C23         7.6870    2.4900    1.1140 c3        1 FCK      0.150400
     15 O27         8.1190    3.8760    1.2150 os        1 FCK     -0.181300
     16 N31         9.4340    4.0160    1.1840 n2        1 FCK     -0.423200
     17 C30         9.8500    5.2460    1.3120 ce        1 FCK      0.401500
     18 C16        11.2870    5.6050    1.2890 cc        1 FCK      0.050000
     19 N11        12.2620    4.6220    1.1990 ns        1 FCK     -0.465100
     20 C15        11.6290    6.9270    1.3580 cd        1 FCK     -0.292200
     21 C14        13.0390    7.3420    1.3380 c         1 FCK      0.713700
     22 O33        13.4230    8.5200    1.3950 o         1 FCK     -0.593500
     23 N13        13.9920    6.3120    1.2460 ns        1 FCK     -0.582500
     24 C12        13.6350    4.9590    1.1770 c         1 FCK      0.807500
     25 O34        14.4890    4.0530    1.0950 o         1 FCK     -0.628500
     26 H1         -0.9120   -0.6340   -0.5970 ha        1 FCK      0.135000
     27 H2          1.5350   -0.8650   -0.9950 ha        1 FCK      0.117000
     28 H4          2.2600    0.5640    3.0580 ha        1 FCK      0.151000
     29 H6         -1.7530    0.3160    1.5860 ha        1 FCK      0.175000
     30 H7          5.9390    0.5310    1.8030 hx        1 FCK      0.099700
     31 H7A         5.9490    0.7150   -0.0170 hx        1 FCK      0.099700
     32 H17         3.8110   -0.5960   -0.2360 hx        1 FCK      0.090200
     33 H17A        4.0190   -0.8640    1.5720 hx        1 FCK      0.090200
     34 HN18        3.7500    1.5720    1.8240 hn        1 FCK      0.458800
     35 H22         5.8170    3.0640    2.0470 hc        1 FCK      0.085200
     36 H22A        5.8490    3.2410    0.2450 hc        1 FCK      0.085200
     37 H23         8.0530    1.9170    2.0050 h1        1 FCK      0.062700
     38 H23A        8.0830    2.0330    0.1710 h1        1 FCK      0.062700
     39 HN13       14.9660    6.5320    1.2320 hn        1 FCK      0.358500
     40 H30         9.1690    6.1140    1.4430 h4        1 FCK      0.034800
     41 H171       12.0310    3.6550    1.1530 hn        1 FCK      0.363500
     42 H15        10.8870    7.7330    1.4310 ha        1 FCK      0.182000
     43 H182        3.7580    1.7640    0.1790 hn        1 FCK      0.458800
@<TRIPOS>BOND
     1    1    2 ar  
     2    1    6 ar  
     3    1   26 1   
     4    2    3 ar  
     5    2   27 1   
     6    3    4 ar  
     7    3   11 1   
     8    4    5 ar  
     9    4   28 1   
    10    5    6 ar  
    11    5    9 1   
    12    6   29 1   
    13    7   12 1   
    14    7   13 1   
    15    7   30 1   
    16    7   31 1   
    17    8    9 1   
    18    9   10 1   
    19   11   12 1   
    20   11   32 1   
    21   11   33 1   
    22   12   34 1   
    23   12   43 1   
    24   13   14 1   
    25   13   35 1   
    26   13   36 1   
    27   14   15 1   
    28   14   37 1   
    29   14   38 1   
    30   15   16 1   
    31   16   17 2   
    32   17   18 1   
    33   17   40 1   
    34   18   19 1   
    35   18   20 2   
    36   19   24 1   
    37   19   41 1   
    38   20   21 1   
    39   20   42 1   
    40   21   22 2   
    41   21   23 1   
    42   23   24 1   
    43   23   39 1   
    44   24   25 2   
@<TRIPOS>SUBSTRUCTURE
     1 FCK         1 TEMP              0 ****  ****    0 ROOT
