@<TRIPOS>MOLECULE
FCK
   42    38     1     0     0
SMALL
bcc


@<TRIPOS>ATOM
      1 C1         -4.2620   -0.8280    3.7960 c1        1 FCK     -0.164000
      2 C2         -3.4770   -1.4680    2.8300 c2        1 FCK     -0.145000
      3 C3         -2.1500   -1.6870    3.0670 c1        1 FCK     -0.162000
      4 C4         -1.5890   -1.2800    4.2490 c1        1 FCK     -0.100000
      5 C5         -2.3720   -0.6390    5.2150 c1        1 FCK     -0.106000
      6 C6         -3.6950   -0.4200    4.9820 c1        1 FCK     -0.100000
      7 C7          0.1390   -2.0830    0.1770 c3        1 FCK     -0.090000
      8 O39        -1.3180    1.0820    6.5890 o         1 FCK     -0.565000
      9 C38        -1.7280   -0.1330    6.5100 c2        1 FCK      0.356000
     10 O40        -1.6720   -0.8690    7.5020 o         1 FCK     -0.565000
     11 C17        -1.2620   -2.4330    1.9920 c3        1 FCK     -0.037000
     12 N18        -0.8130   -1.4830    0.9950 n3        1 FCK     -0.290000
     13 C22         0.4360   -1.1670   -1.0260 c3        1 FCK     -0.175000
     14 C23         1.9360   -1.2560   -1.3680 c3        1 FCK      0.000000
     15 O27         2.3170   -0.1410   -2.1410 os        1 FCK     -0.244000
     16 N31         2.9630   -0.5430   -3.2300 n2        1 FCK      0.021000
     17 C30         3.0940    0.2690   -4.2400 c1        1 FCK     -0.153000
     18 C16         2.5070    1.6680   -4.1680 c1        1 FCK      0.136000
     19 N11         1.1240    1.8530   -4.3060 n         1 FCK     -0.302000
     20 C15         3.4210    2.8650   -4.1380 c1        1 FCK     -0.307000
     21 C14         2.8650    4.2090   -4.2800 c1        1 FCK      0.356000
     22 O33         3.6550    5.2420   -4.2890 o         1 FCK     -0.349000
     23 N13         1.4830    4.3860   -4.3540 n         1 FCK     -0.366000
     24 C12         0.5800    3.1990   -4.4480 c2        1 FCK      0.395000
     25 O34        -0.5740    3.3510   -4.6190 o         1 FCK     -0.365000
     26 H1         -5.1930   -0.6730    3.6310 DU        1 FCK      0.106000
     27 H2         -3.8740   -1.7550    1.9960 ha        1 FCK      0.104000
     28 H4         -0.6660   -1.4320    4.4130 ha        1 FCK      0.149000
     29 H6         -4.2450    0.0300    5.6600 ha        1 FCK      0.151000
     30 H7          0.9890   -2.2310    0.7060 h1        1 FCK      0.090000
     31 H7A        -0.2110   -2.9730   -0.1550 h1        1 FCK      0.090000
     32 H17        -1.7420   -3.0710    1.5990 h1        1 FCK      0.087000
     33 H17A       -0.4950   -2.8310    2.4300 h1        1 FCK      0.087000
     34 HN18       -0.4280   -0.7300    1.4270 hn        1 FCK      0.145000
     35 H22         0.1880   -0.1920   -0.7880 hc        1 FCK      0.094500
     36 H22A       -0.1070   -1.4690   -1.8170 hc        1 FCK      0.094500
     37 H23         2.4600   -1.2710   -0.5360 h1        1 FCK      0.107500
     38 H23A        2.1100   -2.1030   -1.8880 h1        1 FCK      0.107500
     39 HN13        1.1490    5.2000   -4.4410 hn        1 FCK      0.263000
     40 H30         3.5770   -0.0280   -5.0630 ha        1 FCK      0.180000
     41 H171        0.5400    1.0890   -4.3670 hn        1 FCK      0.288000
     42 H15         4.3410    2.7450   -4.1030 ha        1 FCK      0.175000
@<TRIPOS>BOND
     1    1    2 1   
     2    1    6 1   
     3    2    3 1   
     4    2   27 1   
     5    3   11 1   
     6    4    5 1   
     7    4   28 1   
     8    5    9 1   
     9    6   29 1   
    10    7   12 1   
    11    7   13 1   
    12    7   30 1   
    13    7   31 1   
    14    8    9 1   
    15    9   10 1   
    16   11   12 1   
    17   11   32 1   
    18   11   33 1   
    19   12   34 1   
    20   13   14 1   
    21   13   35 1   
    22   13   36 1   
    23   14   15 1   
    24   14   37 1   
    25   14   38 1   
    26   15   16 1   
    27   16   17 1   
    28   17   40 1   
    29   18   19 1   
    30   18   20 1   
    31   19   24 1   
    32   19   41 1   
    33   20   42 1   
    34   21   22 1   
    35   21   23 1   
    36   23   24 1   
    37   23   39 1   
    38   24   25 1   
@<TRIPOS>SUBSTRUCTURE
     1 FCK         1 TEMP              0 ****  ****    0 ROOT
