@<TRIPOS>MOLECULE
FCK
   42    43     1     0     0
SMALL
bcc


@<TRIPOS>ATOM
      1 C1         -6.1430    0.8820    1.8420 ca        1 FCK     -0.164000
      2 C2         -5.1690    1.7900    1.4310 ca        1 FCK     -0.146000
      3 C3         -4.5040    1.5990    0.2150 ca        1 FCK     -0.168300
      4 C4         -4.8250    0.4940   -0.5790 ca        1 FCK     -0.100000
      5 C5         -5.7840   -0.4310   -0.1610 ca        1 FCK     -0.126600
      6 C6         -6.4470   -0.2270    1.0530 ca        1 FCK     -0.100000
      7 C7         -1.5580    1.0720   -0.5720 c3        1 FCK      0.144800
      8 O39        -5.3310   -1.8740   -2.0090 o         1 FCK     -0.830300
      9 C38        -6.0810   -1.6560   -1.0140 c         1 FCK      0.907200
     10 O40        -7.0510   -2.3920   -0.6790 o         1 FCK     -0.830300
     11 C17        -3.4410    2.5620   -0.2250 c3        1 FCK      0.207100
     12 N18        -2.0770    2.2230    0.1460 n3        1 FCK     -0.811200
     13 C22        -0.2430    0.5460    0.0020 c3        1 FCK     -0.112400
     14 C23         0.1820   -0.6730   -0.7860 c3        1 FCK      0.143400
     15 O27         1.3210   -1.3390   -0.1580 os        1 FCK     -0.176300
     16 N31         2.4610   -0.7050   -0.2670 n2        1 FCK     -0.391200
     17 C30         3.4740   -1.2820    0.3220 ce        1 FCK      0.343500
     18 C16         4.8390   -0.7140    0.2890 cc        1 FCK      0.081000
     19 N11         5.0910    0.4860   -0.3620 n         1 FCK     -0.458100
     20 C15         5.8500   -1.3950    0.9140 cd        1 FCK     -0.326200
     21 C14         7.2200   -0.8780    0.9130 c         1 FCK      0.718700
     22 O33         8.1910   -1.4340    1.4560 o         1 FCK     -0.621500
     23 N13         7.4290    0.3400    0.2400 n         1 FCK     -0.587500
     24 C12         6.3910    1.0340   -0.3980 c         1 FCK      0.805500
     25 O34         6.5970    2.1150   -0.9910 o         1 FCK     -0.643500
     26 H1         -6.6690    1.0400    2.7940 ha        1 FCK      0.106000
     27 H2         -4.9260    2.6590    2.0580 ha        1 FCK      0.104000
     28 H4         -4.3290    0.3250   -1.5500 ha        1 FCK      0.149000
     29 H6         -7.2100   -0.9600    1.3620 ha        1 FCK      0.151000
     30 H7         -2.3000    0.2180   -0.6000 h1        1 FCK      0.048700
     31 H7A        -1.3850    1.3980   -1.6370 h1        1 FCK      0.048700
     32 H17        -3.4810    2.6670   -1.3470 h1        1 FCK      0.047700
     33 H17A       -3.6460    3.5760    0.2240 h1        1 FCK      0.047700
     34 HN18       -2.0340    2.0480    1.1350 hn        1 FCK      0.348800
     35 H22         0.5480    1.3380   -0.0520 hc        1 FCK      0.054700
     36 H22A       -0.3680    0.2650    1.0800 hc        1 FCK      0.054700
     37 H23        -0.5880   -1.4910   -0.7420 h1        1 FCK      0.077700
     38 H23A        0.4190   -0.4200   -1.8500 h1        1 FCK      0.077700
     39 HN13        8.3390    0.7440    0.2040 hn        1 FCK      0.349500
     40 H30         3.3940   -2.2340    0.8860 h4        1 FCK      0.027800
     41 H171        4.3670    0.9960   -0.8180 hn        1 FCK      0.369500
     42 H15         5.6860   -2.3450    1.4370 ha        1 FCK      0.178000
@<TRIPOS>BOND
     1    1    2 ar  
     2    1    6 ar  
     3    1   26 1   
     4    2    3 ar  
     5    2   27 1   
     6    3    4 ar  
     7    3   11 1   
     8    4    5 ar  
     9    4   28 1   
    10    5    6 ar  
    11    5    9 1   
    12    6   29 1   
    13    7   12 1   
    14    7   13 1   
    15    7   30 1   
    16    7   31 1   
    17    8    9 1   
    18    9   10 1   
    19   11   12 1   
    20   11   32 1   
    21   11   33 1   
    22   12   34 1   
    23   13   14 1   
    24   13   35 1   
    25   13   36 1   
    26   14   15 1   
    27   14   37 1   
    28   14   38 1   
    29   15   16 1   
    30   16   17 2   
    31   17   18 1   
    32   17   40 1   
    33   18   19 1   
    34   18   20 2   
    35   19   24 1   
    36   19   41 1   
    37   20   21 1   
    38   20   42 1   
    39   21   22 2   
    40   21   23 1   
    41   23   24 1   
    42   23   39 1   
    43   24   25 2   
@<TRIPOS>SUBSTRUCTURE
     1 FCK         1 TEMP              0 ****  ****    0 ROOT
