@<TRIPOS>MOLECULE
FCL
   22    20     1     0     0
SMALL
bcc


@<TRIPOS>ATOM
      1 N           0.4810   -2.7700   -0.3980 n3        1 FCL     -0.322000
      2 CA         -0.4940   -1.7340   -0.3550 c3        1 FCL     -0.127000
      3 C          -1.7730   -2.2190   -0.9950 c2        1 FCL      0.307000
      4 O          -2.8860   -1.8900   -0.5070 o         1 FCL     -0.574000
      5 OXT        -1.7270   -2.9580   -2.0140 o         1 FCL     -0.574000
      6 CB          0.0200   -0.5270   -1.1070 c3        1 FCL     -0.123000
      7 CG          0.2720    0.6030   -0.1340 c2        1 FCL     -0.019000
      8 CD1        -0.7840    1.3870    0.3070 c2        1 FCL     -0.130000
      9 CD2         1.5620    0.8750    0.2930 c1        1 FCL     -0.115000
     10 CE1        -0.5490    2.4420    1.1740 c1        1 FCL     -0.063000
     11 CE2         1.7970    1.9310    1.1610 c1        1 FCL     -0.134000
     12 CL1        -1.8790    3.4170    1.7430 cl        1 FCL     -0.060000
     13 CZ          0.7410    2.7140    1.6010 c2        1 FCL     -0.153000
     14 HN1         1.2660   -2.4370   -0.7290 hn        1 FCL      0.126500
     15 HN2         0.1840   -3.4470   -0.9400 hn        1 FCL      0.126500
     16 HA         -0.6680   -1.4890    0.5750 h1        1 FCL      0.087000
     17 HBC1        0.8540   -0.7570   -1.5620 hc        1 FCL      0.101500
     18 HBC2       -0.6450   -0.2470   -1.7670 hc        1 FCL      0.101500
     19 HD1        -1.6920    1.1970    0.0040 ha        1 FCL      0.153000
     20 HD2         2.3050    0.3230   -0.0170 ha        1 FCL      0.145000
     21 HE2         2.7060    2.1220    1.4620 ha        1 FCL      0.119000
     22 HZ          0.9080    3.4640    2.2040 ha        1 FCL      0.127000
@<TRIPOS>BOND
     1    1    2 1   
     2    1   14 1   
     3    1   15 1   
     4    2    3 1   
     5    2    6 1   
     6    2   16 1   
     7    3    4 1   
     8    3    5 1   
     9    6    7 1   
    10    6   17 1   
    11    6   18 1   
    12    7    8 1   
    13    7    9 1   
    14    8   10 1   
    15    8   19 1   
    16    9   20 1   
    17   10   13 1   
    18   11   13 1   
    19   11   21 1   
    20   13   22 1   
@<TRIPOS>SUBSTRUCTURE
     1 FCL         1 TEMP              0 ****  ****    0 ROOT
