@<TRIPOS>MOLECULE
FCL
   22    22     1     0     0
SMALL
bcc


@<TRIPOS>ATOM
      1 N           0.5190   -1.1480   -0.2950 n3        1 FCL     -0.886800
      2 CA          1.2060   -1.8750    0.7660 c3        1 FCL      0.019500
      3 C           0.4370   -3.1420    1.2730 c         1 FCL      0.886600
      4 O          -0.6860   -3.4020    0.7570 o         1 FCL     -0.841300
      5 OXT         0.9930   -3.8440    2.1640 o         1 FCL     -0.841300
      6 CB          1.5390   -0.9760    1.9700 c3        1 FCL     -0.023100
      7 CG          2.9890   -1.0060    2.3070 ca        1 FCL     -0.040300
      8 CD1         3.5890   -2.2250    2.6600 ca        1 FCL     -0.112000
      9 CD2         3.7560    0.1640    2.2960 ca        1 FCL     -0.143000
     10 CE1         4.9400   -2.2470    3.0010 ca        1 FCL      0.012400
     11 CE2         5.1080    0.1250    2.6380 ca        1 FCL     -0.142000
     12 CL1         5.6840   -3.7220    3.4380 cl        1 FCL     -0.131400
     13 CZ          5.7100   -1.0780    2.9940 ca        1 FCL     -0.153000
     14 HN1         0.2520   -1.8240   -0.9920 hn        1 FCL      0.331800
     15 HN2        -0.3400   -0.7830    0.0790 hn        1 FCL      0.331800
     16 HA          2.1710   -2.2550    0.3180 h1        1 FCL      0.048700
     17 HBC1        1.2190    0.0840    1.7880 hc        1 FCL      0.049200
     18 HBC2        0.9650   -1.3550    2.8610 hc        1 FCL      0.049200
     19 HD1         2.9590   -3.1430    2.6520 ha        1 FCL      0.222000
     20 HD2         3.2910    1.1190    2.0110 ha        1 FCL      0.125000
     21 HE2         5.7030    1.0490    2.6240 ha        1 FCL      0.114000
     22 HZ          6.7750   -1.1090    3.2630 ha        1 FCL      0.124000
@<TRIPOS>BOND
     1    1    2 1   
     2    1   14 1   
     3    1   15 1   
     4    2    3 1   
     5    2    6 1   
     6    2   16 1   
     7    3    4 1   
     8    3    5 1   
     9    6    7 1   
    10    6   17 1   
    11    6   18 1   
    12    7    8 ar  
    13    7    9 ar  
    14    8   10 ar  
    15    8   19 1   
    16    9   11 ar  
    17    9   20 1   
    18   10   12 1   
    19   10   13 ar  
    20   11   13 ar  
    21   11   21 1   
    22   13   22 1   
@<TRIPOS>SUBSTRUCTURE
     1 FCL         1 TEMP              0 ****  ****    0 ROOT
