@<TRIPOS>MOLECULE
FCM
   65    69     1     0     0
SMALL
bcc


@<TRIPOS>ATOM
      1 C1         -4.4780    2.2430    0.2530 ce        1 FCM     -0.376400
      2 C2         -3.6680    2.7340    1.2480 cf        1 FCM      0.267100
      3 C3         -2.4900    2.0170    1.7160 cf        1 FCM     -0.261000
      4 C4         -2.3650    0.7380    1.3190 c2        1 FCM      0.146900
      5 C5         -3.4370   -0.0410    0.5700 c3        1 FCM     -0.074500
      6 C6         -4.2510    0.9040   -0.3040 c         1 FCM      0.627300
      7 O7         -1.1840    0.0040    1.4370 os        1 FCM     -0.208200
      8 C8         -1.3120   -1.0780    0.5410 ca        1 FCM      0.182100
      9 C9         -2.5980   -1.1170   -0.0650 ca        1 FCM     -0.274300
     10 C10        -0.3020   -1.9870    0.2920 ca        1 FCM     -0.205600
     11 C11        -0.6010   -2.9920   -0.6740 ca        1 FCM      0.231100
     12 C12        -1.8430   -3.0590   -1.3050 ca        1 FCM     -0.274000
     13 C13        -2.8560   -2.1210   -0.9940 ca        1 FCM      0.260100
     14 O14        -4.7500    0.5110   -1.3650 o         1 FCM     -0.551100
     15 C15        -5.5590    3.0750   -0.3240 c         1 FCM      0.606300
     16 C16        -6.8640    2.3870   -0.5660 c3        1 FCM     -0.197100
     17 O17        -5.3890    4.2700   -0.5840 o         1 FCM     -0.519100
     18 O18        -3.9550    3.9560    1.7800 oh        1 FCM     -0.453100
     19 C19        -4.4150   -0.6790    1.5620 c3        1 FCM     -0.082100
     20 O20        -4.0430   -2.3020   -1.6390 oh        1 FCM     -0.489100
     21 C21         1.0050   -1.9740    1.0030 c         1 FCM      0.698700
     22 O22         1.4380   -2.9740    1.6060 o         1 FCM     -0.588100
     23 N23         1.6870   -0.7710    0.9980 n         1 FCM     -0.558900
     24 C24         3.0290   -0.6450    1.5050 c3        1 FCM      0.131300
     25 C25         4.0150   -0.1370    0.4850 ca        1 FCM     -0.118300
     26 C26         5.0010   -0.9590   -0.0330 ca        1 FCM     -0.021300
     27 C27         5.8860   -0.4670   -1.0280 ca        1 FCM     -0.173000
     28 C28         5.7770    0.8310   -1.4900 ca        1 FCM      0.141900
     29 C29         4.7850    1.7160   -0.9500 ca        1 FCM     -0.074000
     30 C30         3.9130    1.2240    0.0540 ca        1 FCM     -0.002000
     31 C31         4.6740    3.0580   -1.4000 ca        1 FCM     -0.102000
     32 C32         3.7350    3.9000   -0.8590 ca        1 FCM     -0.132000
     33 C33         2.8780    3.4300    0.1630 ca        1 FCM     -0.114000
     34 C34         2.9660    2.1330    0.6080 ca        1 FCM     -0.141000
     35 O35         0.4360   -3.8480   -0.9490 os        1 FCM     -0.300900
     36 C36         0.1500   -4.9420   -1.8170 c3        1 FCM      0.109700
     37 C37         5.2240   -2.3690    0.4060 c3        1 FCM     -0.043100
     38 F38         6.6140    1.2830   -2.4540 f         1 FCM     -0.138900
     39 C39         4.2880   -3.3410   -0.2710 c3        1 FCM     -0.097100
     40 H2         -1.7230    2.5480    2.2940 ha        1 FCM      0.168000
     41 H4         -2.0710   -3.8330   -2.0510 ha        1 FCM      0.168000
     42 H5         -7.1500    1.7760    0.3240 hc        1 FCM      0.068367
     43 H6         -7.6660    3.1360   -0.7720 hc        1 FCM      0.068367
     44 H7         -6.7630    1.7090   -1.4510 hc        1 FCM      0.068367
     45 H8         -3.2480    4.2040    2.3970 ho        1 FCM      0.435000
     46 H9         -4.9760    0.1100    2.1170 hc        1 FCM      0.059367
     47 H10        -5.1380   -1.3200    1.0020 hc        1 FCM      0.059367
     48 H11        -3.8580   -1.3140    2.2920 hc        1 FCM      0.059367
     49 H12        -4.6120   -1.5290   -1.4790 ho        1 FCM      0.457000
     50 H13         1.3490   -0.0350    0.4230 hn        1 FCM      0.315500
     51 H14         3.0120    0.0740    2.3770 h1        1 FCM      0.070200
     52 H15         3.3510   -1.6490    1.9090 h1        1 FCM      0.070200
     53 H16         6.6600   -1.1320   -1.4410 ha        1 FCM      0.151000
     54 H17         5.3610    3.4040   -2.1890 ha        1 FCM      0.146000
     55 H18         3.6430    4.9400   -1.2060 ha        1 FCM      0.138000
     56 H19         2.1420    4.1200    0.6000 ha        1 FCM      0.132000
     57 H20         2.3040    1.8040    1.4230 ha        1 FCM      0.137000
     58 H21         1.1110   -5.5180   -1.8210 h1        1 FCM      0.054033
     59 H22        -0.6830   -5.5640   -1.4090 h1        1 FCM      0.054033
     60 H23        -0.0950   -4.5720   -2.8420 h1        1 FCM      0.054033
     61 H24         6.2850   -2.6620    0.1730 hc        1 FCM      0.050700
     62 H25         5.1150   -2.4500    1.5210 hc        1 FCM      0.050700
     63 H26         4.5610   -4.3870    0.0120 hc        1 FCM      0.044367
     64 H27         3.2290   -3.1590    0.0420 hc        1 FCM      0.044367
     65 H28         4.3540   -3.2450   -1.3810 hc        1 FCM      0.044367
@<TRIPOS>BOND
     1    1    2 2   
     2    1    6 1   
     3    1   15 1   
     4    2    3 1   
     5    2   18 1   
     6    3    4 2   
     7    3   40 1   
     8    4    5 1   
     9    4    7 1   
    10    5    6 1   
    11    5    9 1   
    12    5   19 1   
    13    6   14 2   
    14    7    8 1   
    15    8    9 ar  
    16    8   10 ar  
    17    9   13 ar  
    18   10   11 ar  
    19   10   21 1   
    20   11   12 ar  
    21   11   35 1   
    22   12   13 ar  
    23   12   41 1   
    24   13   20 1   
    25   15   16 1   
    26   15   17 2   
    27   16   42 1   
    28   16   43 1   
    29   16   44 1   
    30   18   45 1   
    31   19   46 1   
    32   19   47 1   
    33   19   48 1   
    34   20   49 1   
    35   21   22 2   
    36   21   23 1   
    37   23   24 1   
    38   23   50 1   
    39   24   25 1   
    40   24   51 1   
    41   24   52 1   
    42   25   26 ar  
    43   25   30 ar  
    44   26   27 ar  
    45   26   37 1   
    46   27   28 ar  
    47   27   53 1   
    48   28   29 ar  
    49   28   38 1   
    50   29   30 ar  
    51   29   31 ar  
    52   30   34 ar  
    53   31   32 ar  
    54   31   54 1   
    55   32   33 ar  
    56   32   55 1   
    57   33   34 ar  
    58   33   56 1   
    59   34   57 1   
    60   35   36 1   
    61   36   58 1   
    62   36   59 1   
    63   36   60 1   
    64   37   39 1   
    65   37   61 1   
    66   37   62 1   
    67   39   63 1   
    68   39   64 1   
    69   39   65 1   
@<TRIPOS>SUBSTRUCTURE
     1 FCM         1 TEMP              0 ****  ****    0 ROOT
