@<TRIPOS>MOLECULE
FCM
   66    70     1     0     0
SMALL
bcc


@<TRIPOS>ATOM
      1 C1         -0.1480   -1.1230   -0.0980 ce        1 FCM     -0.339400
      2 C2          1.1790   -1.4580   -0.0770 cf        1 FCM      0.225100
      3 C3          1.9050   -1.6290    1.1830 cf        1 FCM     -0.195000
      4 C4          1.3140   -1.1280    2.2770 c2        1 FCM      0.093900
      5 C5          0.0440   -0.2910    2.2720 c3        1 FCM     -0.059500
      6 C6         -0.8630   -0.7980    1.1500 c         1 FCM      0.611300
      7 O7          1.7030   -1.4540    3.5960 os        1 FCM     -0.274200
      8 C8          0.6100   -1.1250    4.4120 ca        1 FCM      0.204100
      9 C9         -0.4070   -0.4670    3.6960 ca        1 FCM     -0.200300
     10 C10         0.5470   -1.4170    5.7790 ca        1 FCM     -0.293600
     11 C11        -0.6610   -1.0110    6.4380 ca        1 FCM      0.283100
     12 C12        -1.6830   -0.3470    5.7570 ca        1 FCM     -0.337000
     13 C13        -1.5570   -0.0500    4.3830 ca        1 FCM      0.304100
     14 O14        -2.0830   -0.8700    1.2880 o         1 FCM     -0.485100
     15 C15        -0.9320   -1.1530   -1.3610 c         1 FCM      0.602300
     16 C16        -1.7660    0.0530   -1.6370 c3        1 FCM     -0.197100
     17 O17        -0.8820   -2.1250   -2.1180 o         1 FCM     -0.497100
     18 O18         1.8210   -1.6840   -1.2580 oh        1 FCM     -0.445100
     19 C19         0.3420    1.1810    1.9960 c3        1 FCM     -0.083100
     20 O20        -2.4890    0.6540    3.6950 oh        1 FCM     -0.437100
     21 C21         1.5950   -2.0470    6.5580 c         1 FCM      0.592700
     22 O22         1.7760   -2.0100    7.7680 o         1 FCM     -0.424100
     23 N23         2.5950   -2.8670    5.7660 ny        1 FCM     -0.675800
     24 C24         3.3780   -3.8330    6.6060 c3        1 FCM      0.179100
     25 C25         4.4000   -4.5380    5.7790 ca        1 FCM     -0.198300
     26 C26         4.2370   -5.8700    5.4260 ca        1 FCM      0.023700
     27 C27         5.2080   -6.5070    4.6180 ca        1 FCM     -0.195000
     28 C28         6.3240   -5.8150    4.1770 ca        1 FCM      0.199900
     29 C29         6.5310   -4.4450    4.5520 ca        1 FCM     -0.085000
     30 C30         5.5660   -3.8130    5.3760 ca        1 FCM      0.007000
     31 C31         7.6840   -3.7330    4.1260 ca        1 FCM     -0.082000
     32 C32         7.8840   -2.4310    4.5150 ca        1 FCM     -0.127000
     33 C33         6.9410   -1.7990    5.3570 ca        1 FCM     -0.073000
     34 C34         5.8140   -2.4690    5.7740 ca        1 FCM     -0.187000
     35 O35        -0.7160   -1.3400    7.7600 os        1 FCM     -0.302900
     36 C36        -1.8770   -0.9360    8.4950 c3        1 FCM      0.106700
     37 C37         3.0850   -6.7100    5.8720 c3        1 FCM     -0.065100
     38 F38         7.2330   -6.4280    3.3890 f         1 FCM     -0.111900
     39 C39         1.8500   -6.5000    5.0310 c3        1 FCM     -0.087100
     40 H2          2.8390   -2.2070    1.1930 ha        1 FCM      0.167000
     41 H4         -2.5990   -0.0430    6.2870 ha        1 FCM      0.172000
     42 H5         -1.1390    0.9760   -1.5790 hc        1 FCM      0.073700
     43 H6         -2.5830    0.1200   -0.8760 hc        1 FCM      0.073700
     44 H7         -2.2220   -0.0150   -2.6550 hc        1 FCM      0.073700
     45 H8          2.7070   -2.0370   -1.0750 ho        1 FCM      0.436000
     46 H9         -0.6020    1.7680    2.1080 hc        1 FCM      0.065700
     47 H10         0.7340    1.3080    0.9580 hc        1 FCM      0.065700
     48 H11         1.0990    1.5650    2.7200 hc        1 FCM      0.065700
     49 H12        -3.2700    0.7910    4.2590 ho        1 FCM      0.451000
     50 H13         3.2470   -2.2240    5.2940 hn        1 FCM      0.461300
     51 H14         2.6340   -4.5430    7.0680 hx        1 FCM      0.114200
     52 H15         3.8610   -3.2530    7.4470 hx        1 FCM      0.114200
     53 H16         5.0750   -7.5650    4.3380 ha        1 FCM      0.171000
     54 H17         8.4160   -4.2540    3.4850 ha        1 FCM      0.163000
     55 H18         8.7770   -1.8760    4.1900 ha        1 FCM      0.159000
     56 H19         7.1260   -0.7630    5.6850 ha        1 FCM      0.151000
     57 H20         5.1290   -1.9610    6.4680 ha        1 FCM      0.119000
     58 H21        -2.7880   -1.4330    8.0820 h1        1 FCM      0.069367
     59 H22        -1.9780    0.1750    8.4820 h1        1 FCM      0.069367
     60 H23        -1.6510   -1.3060    9.5290 h1        1 FCM      0.069367
     61 H24         3.3780   -7.7960    5.8120 hc        1 FCM      0.070700
     62 H25         2.8560   -6.5130    6.9540 hc        1 FCM      0.070700
     63 H26         1.4680   -5.4550    5.1290 hc        1 FCM      0.039367
     64 H27         1.0430   -7.1990    5.3620 hc        1 FCM      0.039367
     65 H28         2.0650   -6.6970    3.9530 hc        1 FCM      0.039367
     66 H232        2.0950   -3.3810    5.0300 hn        1 FCM      0.461300
@<TRIPOS>BOND
     1    1    2 2   
     2    1    6 1   
     3    1   15 1   
     4    2    3 1   
     5    2   18 1   
     6    3    4 2   
     7    3   40 1   
     8    4    5 1   
     9    4    7 1   
    10    5    6 1   
    11    5    9 1   
    12    5   19 1   
    13    6   14 2   
    14    7    8 1   
    15    8    9 ar  
    16    8   10 ar  
    17    9   13 ar  
    18   10   11 ar  
    19   10   21 1   
    20   11   12 ar  
    21   11   35 1   
    22   12   13 ar  
    23   12   41 1   
    24   13   20 1   
    25   15   16 1   
    26   15   17 2   
    27   16   42 1   
    28   16   43 1   
    29   16   44 1   
    30   18   45 1   
    31   19   46 1   
    32   19   47 1   
    33   19   48 1   
    34   20   49 1   
    35   21   22 2   
    36   21   23 1   
    37   23   24 1   
    38   23   50 1   
    39   23   66 1   
    40   24   25 1   
    41   24   51 1   
    42   24   52 1   
    43   25   26 ar  
    44   25   30 ar  
    45   26   27 ar  
    46   26   37 1   
    47   27   28 ar  
    48   27   53 1   
    49   28   29 ar  
    50   28   38 1   
    51   29   30 ar  
    52   29   31 ar  
    53   30   34 ar  
    54   31   32 ar  
    55   31   54 1   
    56   32   33 ar  
    57   32   55 1   
    58   33   34 ar  
    59   33   56 1   
    60   34   57 1   
    61   35   36 1   
    62   36   58 1   
    63   36   59 1   
    64   36   60 1   
    65   37   39 1   
    66   37   61 1   
    67   37   62 1   
    68   39   63 1   
    69   39   64 1   
    70   39   65 1   
@<TRIPOS>SUBSTRUCTURE
     1 FCM         1 TEMP              0 ****  ****    0 ROOT
