@<TRIPOS>MOLECULE
FCM
   65    57     1     0     0
SMALL
bcc


@<TRIPOS>ATOM
      1 C1         -1.0040    2.4700   -5.7200 c1        1 FCM     -0.316000
      2 C2          0.5120    2.4750   -5.7000 c1        1 FCM      0.179000
      3 C3          1.2560    2.3880   -4.3720 c1        1 FCM     -0.241000
      4 C4          0.4640    2.1410   -3.0480 c1        1 FCM      0.085000
      5 C5         -1.0050    2.1730   -3.0530 c3        1 FCM     -0.022000
      6 C6         -1.7710    2.2110   -4.4490 c1        1 FCM      0.312000
      7 O7          0.8850    1.0910   -2.1340 o         1 FCM     -0.101000
      8 C8         -0.3500    0.3660   -1.6510 c2        1 FCM      0.157000
      9 C9         -1.4720    0.9250   -2.3060 c2        1 FCM     -0.201000
     10 C10        -0.5080   -0.7850   -0.8300 c1        1 FCM     -0.185000
     11 C11        -1.7840   -1.3660   -0.6700 c2        1 FCM      0.172000
     12 C12        -2.9090   -0.8030   -1.3280 c1        1 FCM     -0.322000
     13 C13        -2.7530    0.3380   -2.1420 c1        1 FCM      0.200000
     14 O14        -2.9700    2.0250   -4.4890 o         1 FCM     -0.252000
     15 C15        -1.7450    2.8070   -6.9970 c2        1 FCM      0.305000
     16 C16        -0.9740    3.1450   -8.2450 c3        1 FCM     -0.263000
     17 O17        -2.9590    2.8960   -6.9910 o         1 FCM     -0.282000
     18 O18         1.2480    2.5000   -6.9350 oh        1 FCM     -0.240000
     19 C19        -1.4580    3.4380   -2.2220 c3        1 FCM     -0.198000
     20 O20        -3.9600    0.8090   -2.6960 oh        1 FCM     -0.216000
     21 C21         0.7260   -1.4130   -0.1250 c1        1 FCM      0.364000
     22 O22         1.6260   -1.8950   -0.7890 o         1 FCM     -0.356000
     23 N23         0.8060   -1.4240    1.3030 n2        1 FCM     -0.346000
     24 C24         1.9620   -1.9940    1.9550 c3        1 FCM     -0.004000
     25 C25         1.9070   -1.6910    3.4630 c1        1 FCM     -0.125000
     26 C26         1.6260   -2.7700    4.3130 c1        1 FCM     -0.007000
     27 C27         1.6230   -2.5850    5.6980 c1        1 FCM     -0.173000
     28 C28         1.9020   -1.3210    6.2380 c1        1 FCM      0.105000
     29 C29         2.1860   -0.2310    5.3790 c1        1 FCM     -0.078000
     30 C30         2.1890   -0.4120    4.0090 c1        1 FCM      0.002000
     31 C31         2.4700    1.0540    5.9270 c1        1 FCM     -0.103000
     32 C32         2.7530    2.1360    5.0730 c1        1 FCM     -0.125500
     33 C33         2.7560    1.9520    3.6860 c1        1 FCM     -0.125500
     34 C34         2.4770    0.6880    3.1450 c1        1 FCM     -0.138000
     35 O35        -1.9270   -2.5910    0.0650 os        1 FCM     -0.212000
     36 C36        -2.9400   -2.5400    1.1010 c3        1 FCM     -0.077000
     37 C37         1.2740   -4.2670    4.1860 c2        1 FCM     -0.145000
     38 F38         1.8850   -1.1320    7.5750 f         1 FCM     -0.106000
     39 C39        -0.1820   -4.4970    4.6570 c3        1 FCM     -0.209000
     40 H2          2.2470    2.3910   -4.3610 ha        1 FCM      0.168000
     41 H4         -3.7960   -1.2080   -1.2170 ha        1 FCM      0.149000
     42 H5         -0.3480    3.8770   -8.0550 hc        1 FCM      0.107333
     43 H6         -1.5980    3.4230   -8.9500 hc        1 FCM      0.107333
     44 H7         -0.4730    2.3550   -8.5440 hc        1 FCM      0.107333
     45 H8          1.9310    3.0680   -6.8620 ho        1 FCM      0.233000
     46 H9         -2.4500    3.4550   -2.1560 hc        1 FCM      0.099667
     47 H10        -1.1440    4.2590   -2.6760 hc        1 FCM      0.099667
     48 H11        -1.0710    3.3940   -1.3230 hc        1 FCM      0.099667
     49 H12        -4.6030    0.7440   -2.0970 ho        1 FCM      0.228000
     50 H13         0.1520   -1.0400    1.7960 hn        1 FCM      0.226000
     51 H14         2.7800   -1.6020    1.5710 h1        1 FCM      0.111500
     52 H15         1.9700   -2.9720    1.8150 h1        1 FCM      0.111500
     53 H16         1.4240   -3.3470    6.2990 ha        1 FCM      0.155000
     54 H17         2.4680    1.1830    6.8930 ha        1 FCM      0.145000
     55 H18         2.9480    3.0240    5.4510 ha        1 FCM      0.135500
     56 H19         2.9540    2.7080    3.0890 ha        1 FCM      0.135500
     57 H20         2.4790    0.5600    2.1730 ha        1 FCM      0.137000
     58 H21        -2.9650   -3.4100    1.5840 h1        1 FCM      0.093667
     59 H22        -2.7260   -1.8230    1.7320 h1        1 FCM      0.093667
     60 H23        -3.8120   -2.3670    0.6960 h1        1 FCM      0.093667
     61 H24         1.8860   -4.7970    4.7440 ha        1 FCM      0.110500
     62 H25         1.3620   -4.5450    3.2470 ha        1 FCM      0.110500
     63 H26        -0.1910   -5.1670    5.3820 hc        1 FCM      0.076667
     64 H27        -0.5570   -3.6510    4.9880 hc        1 FCM      0.076667
     65 H28        -0.7240   -4.8220    3.9020 hc        1 FCM      0.076667
@<TRIPOS>BOND
     1    1    2 1   
     2    1   15 1   
     3    2   18 1   
     4    3    4 1   
     5    3   40 1   
     6    4    5 1   
     7    5    6 1   
     8    5    9 1   
     9    5   19 1   
    10    6   14 1   
    11    7    8 1   
    12    8    9 1   
    13    8   10 1   
    14    9   13 1   
    15   10   11 1   
    16   11   12 1   
    17   11   35 1   
    18   12   41 1   
    19   13   20 1   
    20   15   16 1   
    21   15   17 1   
    22   16   42 1   
    23   16   43 1   
    24   16   44 1   
    25   18   45 1   
    26   19   46 1   
    27   19   47 1   
    28   19   48 1   
    29   20   49 1   
    30   21   22 1   
    31   23   24 1   
    32   23   50 1   
    33   24   25 1   
    34   24   51 1   
    35   24   52 1   
    36   25   30 1   
    37   26   27 1   
    38   27   53 1   
    39   28   29 1   
    40   28   38 1   
    41   29   31 1   
    42   30   34 1   
    43   31   54 1   
    44   32   33 1   
    45   32   55 1   
    46   33   56 1   
    47   34   57 1   
    48   35   36 1   
    49   36   58 1   
    50   36   59 1   
    51   36   60 1   
    52   37   39 1   
    53   37   61 1   
    54   37   62 1   
    55   39   63 1   
    56   39   64 1   
    57   39   65 1   
@<TRIPOS>SUBSTRUCTURE
     1 FCM         1 TEMP              0 ****  ****    0 ROOT
