@<TRIPOS>MOLECULE
FCM
   66    70     1     0     0
SMALL
bcc


@<TRIPOS>ATOM
      1 C1         -0.1470   -1.1280   -0.0980 ce        1 FCM     -0.339400
      2 C2          1.1790   -1.4620   -0.0770 cf        1 FCM      0.225100
      3 C3          1.9050   -1.6330    1.1830 cf        1 FCM     -0.195000
      4 C4          1.3140   -1.1310    2.2770 c2        1 FCM      0.093900
      5 C5          0.0430   -0.2960    2.2710 c3        1 FCM     -0.059500
      6 C6         -0.8630   -0.8030    1.1490 c         1 FCM      0.611300
      7 O7          1.7020   -1.4580    3.5960 os        1 FCM     -0.274200
      8 C8          0.6090   -1.1290    4.4120 ca        1 FCM      0.204100
      9 C9         -0.4090   -0.4720    3.6960 ca        1 FCM     -0.200300
     10 C10         0.5450   -1.4210    5.7790 ca        1 FCM     -0.293600
     11 C11        -0.6630   -1.0150    6.4370 ca        1 FCM      0.283100
     12 C12        -1.6860   -0.3520    5.7550 ca        1 FCM     -0.337000
     13 C13        -1.5590   -0.0550    4.3820 ca        1 FCM      0.304100
     14 O14        -2.0830   -0.8760    1.2860 o         1 FCM     -0.485100
     15 C15        -0.9300   -1.1580   -1.3620 c         1 FCM      0.602300
     16 C16        -1.7650    0.0480   -1.6390 c3        1 FCM     -0.197100
     17 O17        -0.8800   -2.1300   -2.1190 o         1 FCM     -0.497100
     18 O18         1.8230   -1.6870   -1.2570 oh        1 FCM     -0.445100
     19 C19         0.3410    1.1760    1.9950 c3        1 FCM     -0.083100
     20 O20        -2.4910    0.6470    3.6930 oh        1 FCM     -0.437100
     21 C21         1.5930   -2.0490    6.5590 c         1 FCM      0.592700
     22 O22         1.7730   -2.0130    7.7690 o         1 FCM     -0.424100
     23 N23         2.5960   -2.8680    5.7680 n4        1 FCM     -0.675800
     24 C24         3.3820   -3.8290    6.6090 c3        1 FCM      0.179100
     25 C25         4.4060   -4.5320    5.7820 ca        1 FCM     -0.198300
     26 C26         4.2470   -5.8650    5.4330 ca        1 FCM      0.023700
     27 C27         5.2190   -6.5020    4.6250 ca        1 FCM     -0.195000
     28 C28         6.3330   -5.8080    4.1810 ca        1 FCM      0.199900
     29 C29         6.5360   -4.4360    4.5530 ca        1 FCM     -0.085000
     30 C30         5.5690   -3.8040    5.3760 ca        1 FCM      0.007000
     31 C31         7.6860   -3.7210    4.1240 ca        1 FCM     -0.082000
     32 C32         7.8820   -2.4170    4.5100 ca        1 FCM     -0.127000
     33 C33         6.9380   -1.7860    5.3510 ca        1 FCM     -0.073000
     34 C34         5.8140   -2.4590    5.7710 ca        1 FCM     -0.187000
     35 O35        -0.7180   -1.3440    7.7590 os        1 FCM     -0.302900
     36 C36        -1.8810   -0.9420    8.4930 c3        1 FCM      0.106700
     37 C37         3.0990   -6.7080    5.8820 c3        1 FCM     -0.065100
     38 F38         7.2430   -6.4190    3.3940 f         1 FCM     -0.111900
     39 C39         1.8620   -6.5040    5.0410 c3        1 FCM     -0.087100
     40 H2          2.8390   -2.2100    1.1940 ha        1 FCM      0.167000
     41 H4         -2.6020   -0.0490    6.2840 ha        1 FCM      0.172000
     42 H5         -2.5830    0.1150   -0.8780 hc        1 FCM      0.073700
     43 H6         -2.2210   -0.0200   -2.6570 hc        1 FCM      0.073700
     44 H7         -1.1390    0.9710   -1.5800 hc        1 FCM      0.073700
     45 H8          2.7080   -2.0410   -1.0740 ho        1 FCM      0.436000
     46 H9          0.7320    1.3040    0.9570 hc        1 FCM      0.065700
     47 H10         1.0970    1.5620    2.7190 hc        1 FCM      0.065700
     48 H11        -0.6040    1.7630    2.1070 hc        1 FCM      0.065700
     49 H12        -3.2730    0.7850    4.2560 ho        1 FCM      0.451000
     50 H13         3.2450   -2.2230    5.2940 hn        1 FCM      0.461300
     51 H14         3.8640   -3.2460    7.4480 hx        1 FCM      0.114200
     52 H15         2.6410   -4.5410    7.0730 hx        1 FCM      0.114200
     53 H16         5.0900   -7.5610    4.3480 ha        1 FCM      0.171000
     54 H17         8.4190   -4.2410    3.4840 ha        1 FCM      0.163000
     55 H18         8.7730   -1.8600    4.1830 ha        1 FCM      0.159000
     56 H19         7.1200   -0.7490    5.6760 ha        1 FCM      0.150000
     57 H20         5.1280   -1.9520    6.4650 ha        1 FCM      0.119000
     58 H21        -2.7910   -1.4390    8.0800 h1        1 FCM      0.069367
     59 H22        -1.6550   -1.3100    9.5280 h1        1 FCM      0.069367
     60 H23        -1.9830    0.1700    8.4800 h1        1 FCM      0.069367
     61 H24         2.8700   -6.5100    6.9640 hc        1 FCM      0.070700
     62 H25         3.3950   -7.7940    5.8250 hc        1 FCM      0.070700
     63 H26         1.4770   -5.4600    5.1380 hc        1 FCM      0.039367
     64 H27         2.0760   -6.7030    3.9630 hc        1 FCM      0.039367
     65 H28         1.0570   -7.2050    5.3750 hc        1 FCM      0.039367
     66 H232        2.0970   -3.3840    5.0320 hn        1 FCM      0.461300
@<TRIPOS>BOND
     1    1    2 2   
     2    1    6 1   
     3    1   15 1   
     4    2    3 1   
     5    2   18 1   
     6    3    4 2   
     7    3   40 1   
     8    4    5 1   
     9    4    7 1   
    10    5    6 1   
    11    5    9 1   
    12    5   19 1   
    13    6   14 2   
    14    7    8 1   
    15    8    9 ar  
    16    8   10 ar  
    17    9   13 ar  
    18   10   11 ar  
    19   10   21 1   
    20   11   12 ar  
    21   11   35 1   
    22   12   13 ar  
    23   12   41 1   
    24   13   20 1   
    25   15   16 1   
    26   15   17 2   
    27   16   42 1   
    28   16   43 1   
    29   16   44 1   
    30   18   45 1   
    31   19   46 1   
    32   19   47 1   
    33   19   48 1   
    34   20   49 1   
    35   21   22 2   
    36   21   23 1   
    37   23   24 1   
    38   23   50 1   
    39   23   66 1   
    40   24   25 1   
    41   24   51 1   
    42   24   52 1   
    43   25   26 ar  
    44   25   30 ar  
    45   26   27 ar  
    46   26   37 1   
    47   27   28 ar  
    48   27   53 1   
    49   28   29 ar  
    50   28   38 1   
    51   29   30 ar  
    52   29   31 ar  
    53   30   34 ar  
    54   31   32 ar  
    55   31   54 1   
    56   32   33 ar  
    57   32   55 1   
    58   33   34 ar  
    59   33   56 1   
    60   34   57 1   
    61   35   36 1   
    62   36   58 1   
    63   36   59 1   
    64   36   60 1   
    65   37   39 1   
    66   37   61 1   
    67   37   62 1   
    68   39   63 1   
    69   39   64 1   
    70   39   65 1   
@<TRIPOS>SUBSTRUCTURE
     1 FCM         1 TEMP              0 ****  ****    0 ROOT
