@<TRIPOS>MOLECULE
FCM
   66    70     1     0     0
SMALL
bcc


@<TRIPOS>ATOM
      1 C1         -0.1060   -1.1410   -0.1210 ce        1 FCM     -0.339400
      2 C2          1.2200   -1.4760   -0.0860 cf        1 FCM      0.225100
      3 C3          1.9340   -1.6420    1.1820 cf        1 FCM     -0.195000
      4 C4          1.3320   -1.1370    2.2680 c2        1 FCM      0.093900
      5 C5          0.0620   -0.3000    2.2470 c3        1 FCM     -0.059500
      6 C6         -0.8340   -0.8110    1.1180 c         1 FCM      0.611300
      7 O7          1.7070   -1.4580    3.5920 os        1 FCM     -0.274200
      8 C8          0.6060   -1.1260    4.3960 ca        1 FCM      0.204100
      9 C9         -0.4040   -0.4710    3.6670 ca        1 FCM     -0.200300
     10 C10         0.5290   -1.4130    5.7630 ca        1 FCM     -0.293600
     11 C11        -0.6850   -1.0040    6.4080 ca        1 FCM      0.283100
     12 C12        -1.7010   -0.3430    5.7140 ca        1 FCM     -0.337000
     13 C13        -1.5610   -0.0510    4.3410 ca        1 FCM      0.304100
     14 O14        -2.0550   -0.8830    1.2440 o         1 FCM     -0.485100
     15 C15        -0.8770   -1.1760   -1.3930 c         1 FCM      0.602300
     16 C16        -1.7090    0.0290   -1.6820 c3        1 FCM     -0.198100
     17 O17        -0.8190   -2.1500   -2.1460 o         1 FCM     -0.497100
     18 O18         1.8750   -1.7060   -1.2590 oh        1 FCM     -0.445100
     19 C19         0.3630    1.1710    1.9680 c3        1 FCM     -0.083100
     20 O20        -2.4850    0.6500    3.6400 oh        1 FCM     -0.437100
     21 C21         1.5690   -2.0390    6.5560 c         1 FCM      0.592700
     22 O22         1.7380   -1.9980    7.7670 o         1 FCM     -0.424100
     23 N23         2.5780   -2.8620    5.7760 n4        1 FCM     -0.675800
     24 C24         3.3540   -3.8230    6.6280 c3        1 FCM      0.179100
     25 C25         4.3840   -4.5310    5.8140 ca        1 FCM     -0.198300
     26 C26         4.2260   -5.8640    5.4670 ca        1 FCM      0.023700
     27 C27         5.2050   -6.5050    4.6700 ca        1 FCM     -0.195000
     28 C28         6.3250   -5.8140    4.2370 ca        1 FCM      0.199900
     29 C29         6.5270   -4.4410    4.6070 ca        1 FCM     -0.085000
     30 C30         5.5530   -3.8060    5.4180 ca        1 FCM      0.007000
     31 C31         7.6830   -3.7310    4.1880 ca        1 FCM     -0.082000
     32 C32         7.8780   -2.4260    4.5730 ca        1 FCM     -0.127000
     33 C33         6.9260   -1.7910    5.4030 ca        1 FCM     -0.073000
     34 C34         5.7960   -2.4600    5.8130 ca        1 FCM     -0.187000
     35 O35        -0.7530   -1.3280    7.7310 os        1 FCM     -0.302900
     36 C36        -1.9220   -0.9220    8.4520 c3        1 FCM      0.106700
     37 C37         3.0710   -6.7040    5.9060 c3        1 FCM     -0.065100
     38 F38         7.2420   -6.4290    3.4610 f         1 FCM     -0.111900
     39 C39         1.8430   -6.4990    5.0520 c3        1 FCM     -0.087100
     40 H2          2.8670   -2.2200    1.2040 ha        1 FCM      0.167000
     41 H4         -2.6210   -0.0380    6.2330 ha        1 FCM      0.172000
     42 H5         -2.1540   -0.0420   -2.7040 hc        1 FCM      0.073700
     43 H6         -2.5340    0.0990   -0.9290 hc        1 FCM      0.073700
     44 H7         -1.0830    0.9520   -1.6200 hc        1 FCM      0.073700
     45 H8          2.7590   -2.0580   -1.0660 ho        1 FCM      0.436000
     46 H9          1.1120    1.5580    2.6980 hc        1 FCM      0.065700
     47 H10         0.7640    1.2940    0.9330 hc        1 FCM      0.065700
     48 H11        -0.5830    1.7580    2.0680 hc        1 FCM      0.065700
     49 H12        -3.2720    0.7890    4.1960 ho        1 FCM      0.451000
     50 H13         2.0860   -3.3790    5.0380 hn        1 FCM      0.461300
     51 H14         2.6060   -4.5320    7.0860 hx        1 FCM      0.114200
     52 H15         3.8280   -3.2390    7.4710 hx        1 FCM      0.114200
     53 H16         5.0760   -7.5640    4.3940 ha        1 FCM      0.171000
     54 H17         8.4210   -4.2530    3.5570 ha        1 FCM      0.163000
     55 H18         8.7740   -1.8720    4.2540 ha        1 FCM      0.159000
     56 H19         7.1070   -0.7540    5.7270 ha        1 FCM      0.150000
     57 H20         5.1040   -1.9500    6.4980 ha        1 FCM      0.119000
     58 H21        -1.7070   -1.2880    9.4900 h1        1 FCM      0.069367
     59 H22        -2.0230    0.1890    8.4340 h1        1 FCM      0.069367
     60 H23        -2.8290   -1.4200    8.0320 h1        1 FCM      0.069367
     61 H24         3.3660   -7.7900    5.8540 hc        1 FCM      0.070700
     62 H25         2.8320   -6.5020    6.9850 hc        1 FCM      0.070700
     63 H26         1.4600   -5.4540    5.1410 hc        1 FCM      0.039367
     64 H27         1.0340   -7.1970    5.3790 hc        1 FCM      0.039367
     65 H28         2.0690   -6.7010    3.9760 hc        1 FCM      0.039367
     66 H232        3.2330   -2.2200    5.3080 hn        1 FCM      0.461300
@<TRIPOS>BOND
     1    1    2 2   
     2    1    6 1   
     3    1   15 1   
     4    2    3 1   
     5    2   18 1   
     6    3    4 2   
     7    3   40 1   
     8    4    5 1   
     9    4    7 1   
    10    5    6 1   
    11    5    9 1   
    12    5   19 1   
    13    6   14 2   
    14    7    8 1   
    15    8    9 ar  
    16    8   10 ar  
    17    9   13 ar  
    18   10   11 ar  
    19   10   21 1   
    20   11   12 ar  
    21   11   35 1   
    22   12   13 ar  
    23   12   41 1   
    24   13   20 1   
    25   15   16 1   
    26   15   17 2   
    27   16   42 1   
    28   16   43 1   
    29   16   44 1   
    30   18   45 1   
    31   19   46 1   
    32   19   47 1   
    33   19   48 1   
    34   20   49 1   
    35   21   22 2   
    36   21   23 1   
    37   23   24 1   
    38   23   50 1   
    39   23   66 1   
    40   24   25 1   
    41   24   51 1   
    42   24   52 1   
    43   25   26 ar  
    44   25   30 ar  
    45   26   27 ar  
    46   26   37 1   
    47   27   28 ar  
    48   27   53 1   
    49   28   29 ar  
    50   28   38 1   
    51   29   30 ar  
    52   29   31 ar  
    53   30   34 ar  
    54   31   32 ar  
    55   31   54 1   
    56   32   33 ar  
    57   32   55 1   
    58   33   34 ar  
    59   33   56 1   
    60   34   57 1   
    61   35   36 1   
    62   36   58 1   
    63   36   59 1   
    64   36   60 1   
    65   37   39 1   
    66   37   61 1   
    67   37   62 1   
    68   39   63 1   
    69   39   64 1   
    70   39   65 1   
@<TRIPOS>SUBSTRUCTURE
     1 FCM         1 TEMP              0 ****  ****    0 ROOT
