@<TRIPOS>MOLECULE
FCN
   13    12     1     0     0
SMALL
bcc


@<TRIPOS>ATOM
      1 C1          0.1110   -0.1740   -0.1720 cu        1 FCN     -0.469000
      2 C2          1.5950   -0.0340   -0.2590 cx        1 FCN     -0.089000
      3 C3          2.5030   -1.2130   -0.1570 c3        1 FCN     -0.175000
      4 O           0.9070    0.3470    0.9370 os        1 FCN     -0.346000
      5 P          -1.3320   -1.7460   -0.4680 p3        1 FCN      2.557000
      6 O1P        -0.5660   -3.0090   -0.2340 o         1 FCN     -1.230333
      7 O2P        -2.3930   -1.4020    0.5270 o         1 FCN     -1.230333
      8 O3P        -1.6350   -1.3980   -1.8930 o         1 FCN     -1.230333
      9 H1         -0.4610    0.6450   -0.6590 h4        1 FCN      0.025000
     10 H2          2.0650    0.8330   -0.7740 h1        1 FCN      0.023000
     11 H31         2.8540   -1.5070   -1.1760 hc        1 FCN      0.054667
     12 H32         1.9600   -2.0780    0.2980 hc        1 FCN      0.054667
     13 H33         3.4010   -0.9760    0.4680 hc        1 FCN      0.054667
@<TRIPOS>BOND
     1    1    2 1   
     2    1    4 1   
     3    1    9 1   
     4    2    3 1   
     5    2    4 1   
     6    2   10 1   
     7    3   11 1   
     8    3   12 1   
     9    3   13 1   
    10    5    6 1   
    11    5    7 1   
    12    5    8 1   
@<TRIPOS>SUBSTRUCTURE
     1 FCN         1 TEMP              0 ****  ****    0 ROOT
