@<TRIPOS>MOLECULE
FCN
   13    13     1     0     0
SMALL
bcc


@<TRIPOS>ATOM
      1 C1         -0.5800   -0.8880    0.3740 cx        1 FCN      0.049900
      2 C2          0.8920   -0.8050    0.4460 cx        1 FCN      0.022100
      3 C3          1.5070    0.4540   -0.1290 c3        1 FCN     -0.057100
      4 O           0.2780   -1.7180   -0.5330 os        1 FCN     -0.489600
      5 P          -1.6070    0.5480   -0.2970 p5        1 FCN      1.190700
      6 O1P        -1.2280    0.8080   -1.7380 o         1 FCN     -0.910833
      7 O2P        -3.0760    0.1970   -0.2180 o         1 FCN     -0.910833
      8 O3P        -1.3390    1.7880    0.5260 o         1 FCN     -0.910833
      9 H1         -1.0710   -1.3250    1.1020 h1        1 FCN     -0.014300
     10 H2          1.3040   -1.2350    1.2270 h1        1 FCN     -0.016300
     11 H31         2.4870    0.3900   -0.0840 hc        1 FCN      0.015367
     12 H32         1.2290    0.5560   -1.0650 hc        1 FCN      0.015367
     13 H33         1.2050    1.2310    0.3890 hc        1 FCN      0.015367
@<TRIPOS>BOND
     1    1    2 1   
     2    1    4 1   
     3    1    5 1   
     4    1    9 1   
     5    2    3 1   
     6    2    4 1   
     7    2   10 1   
     8    3   11 1   
     9    3   12 1   
    10    3   13 1   
    11    5    6 1   
    12    5    7 1   
    13    5    8 1   
@<TRIPOS>SUBSTRUCTURE
     1 FCN         1 TEMP              0 ****  ****    0 ROOT
