@<TRIPOS>MOLECULE
FCN
   13    12     1     0     0
SMALL
bcc


@<TRIPOS>ATOM
      1 C1          0.1210   -0.1680   -0.1510 cu        1 FCN     -0.469000
      2 C2          1.6070   -0.0340   -0.2100 cx        1 FCN     -0.089000
      3 C3          2.5070   -1.2210   -0.1360 c3        1 FCN     -0.175000
      4 O           0.9030    0.3090    0.9880 os        1 FCN     -0.346000
      5 P          -1.3250   -1.7200   -0.5230 p3        1 FCN      2.557000
      6 O1P        -0.5700   -2.9960   -0.3220 o         1 FCN     -1.230333
      7 O2P        -2.4000   -1.4060    0.4670 o         1 FCN     -1.230333
      8 O3P        -1.6040   -1.3220   -1.9390 o         1 FCN     -1.230333
      9 H1         -0.4390    0.6710   -0.6170 h4        1 FCN      0.025000
     10 H2          2.0890    0.8480   -0.6880 h1        1 FCN      0.023000
     11 H31         3.3970   -1.0110    0.5100 hc        1 FCN      0.054667
     12 H32         2.8720   -1.4820   -1.1600 hc        1 FCN      0.054667
     13 H33         1.9530   -2.0990    0.2810 hc        1 FCN      0.054667
@<TRIPOS>BOND
     1    1    2 1   
     2    1    4 1   
     3    1    9 1   
     4    2    3 1   
     5    2    4 1   
     6    2   10 1   
     7    3   11 1   
     8    3   12 1   
     9    3   13 1   
    10    5    6 1   
    11    5    7 1   
    12    5    8 1   
@<TRIPOS>SUBSTRUCTURE
     1 FCN         1 TEMP              0 ****  ****    0 ROOT
