@<TRIPOS>MOLECULE
FCN
   13    12     1     0     0
SMALL
bcc


@<TRIPOS>ATOM
      1 C1         -0.5320    0.6390    0.6380 cu        1 FCN     -0.469000
      2 C2          0.1190    0.6140    1.9820 cx        1 FCN     -0.089000
      3 C3          1.1470   -0.4080    2.3380 c3        1 FCN     -0.175000
      4 O          -1.2230    0.1410    1.8260 os        1 FCN     -0.346000
      5 P          -0.0760   -0.0940   -1.3350 p3        1 FCN      2.557000
      6 O1P         0.8460   -1.2480   -1.1050 o         1 FCN     -1.230333
      7 O2P        -1.4300   -0.4070   -1.8850 o         1 FCN     -1.230333
      8 O3P         0.5480    1.1780   -1.8210 o         1 FCN     -1.230333
      9 H1         -0.9380    1.6290    0.3390 h4        1 FCN      0.025000
     10 H2          0.1780    1.5280    2.6130 h1        1 FCN      0.023000
     11 H31         0.9940   -0.7840    3.3810 hc        1 FCN      0.054667
     12 H32         1.0940   -1.2700    1.6280 hc        1 FCN      0.054667
     13 H33         2.1660    0.0460    2.2750 hc        1 FCN      0.054667
@<TRIPOS>BOND
     1    1    2 1   
     2    1    4 1   
     3    1    9 1   
     4    2    3 1   
     5    2    4 1   
     6    2   10 1   
     7    3   11 1   
     8    3   12 1   
     9    3   13 1   
    10    5    6 1   
    11    5    7 1   
    12    5    8 1   
@<TRIPOS>SUBSTRUCTURE
     1 FCN         1 TEMP              0 ****  ****    0 ROOT
