@<TRIPOS>MOLECULE
FCP
   53    55     1     0     0
SMALL
bcc


@<TRIPOS>ATOM
      1 C22         1.0800    0.9070    1.2360 ca        1 FCP     -0.104500
      2 C1         -1.8480   -2.2050   -2.0440 ca        1 FCP      0.688900
      3 C5         -0.6900   -0.2460   -1.6570 ca        1 FCP      0.696200
      4 C4         -0.4790   -0.1240   -3.0650 ca        1 FCP     -0.459600
      5 C3         -1.0290   -1.1200   -3.9120 ca        1 FCP      0.687200
      6 C17        -0.1420    0.6650    0.5770 ca        1 FCP      0.098600
      7 C18        -1.2910    0.3860    1.3510 ca        1 FCP     -0.104500
      8 C19        -1.2130    0.3440    2.7350 ca        1 FCP     -0.167000
      9 C20         0.0150    0.5910    3.3760 ca        1 FCP      0.117100
     10 N2         -1.7170   -2.1960   -3.3880 nb        1 FCP     -0.770000
     11 N6         -1.3820   -1.3150   -1.1370 nb        1 FCP     -0.764000
     12 N7         -0.9560   -1.0120   -5.3170 nh        1 FCP     -0.702300
     13 N16        -0.2180    0.7820   -0.8310 nh        1 FCP     -0.719300
     14 C21         1.1590    0.8770    2.6260 ca        1 FCP     -0.167000
     15 O23        -0.0300    0.5240    4.7550 os        1 FCP     -0.329900
     16 C24         1.2060    0.7740    5.4290 c3        1 FCP      0.095400
     17 C11         2.2280    1.0350   -7.2510 ca        1 FCP     -0.081000
     18 C10         2.2620   -0.3510   -7.1520 ca        1 FCP     -0.175000
     19 C9          1.2280   -1.0300   -6.4890 ca        1 FCP      0.143900
     20 C8          0.1290   -0.3260   -5.9130 ca        1 FCP      0.035600
     21 C12         1.1730    1.7560   -6.7070 ca        1 FCP     -0.175000
     22 C13         0.1220    1.0900   -6.0490 ca        1 FCP      0.143900
     23 F15        -0.8940    1.8280   -5.5470 f         1 FCP     -0.124400
     24 C25         0.8910    0.7010    6.9320 c3        1 FCP      0.140100
     25 C26         0.5760   -0.7520    7.3170 c3        1 FCP      0.134800
     26 N27         0.5080   -1.0100    8.7470 n3        1 FCP     -0.739600
     27 C28        -0.2870   -0.0520    9.4820 c3        1 FCP      0.152100
     28 C29         0.1400   -2.3820    9.0250 c3        1 FCP      0.152100
     29 O30         1.9750    1.2660    7.6420 oh        1 FCP     -0.589800
     30 H22         1.9920    1.1300    0.6610 ha        1 FCP      0.144500
     31 HL         -2.4060   -3.0690   -1.6220 h5        1 FCP      0.054100
     32 HB          0.0640    0.7310   -3.4840 ha        1 FCP      0.153000
     33 HE         -2.2600    0.1970    0.8620 ha        1 FCP      0.144500
     34 HF         -2.1040    0.1230    3.3410 ha        1 FCP      0.145500
     35 HD         -1.2010   -1.8500   -5.8140 hn        1 FCP      0.438800
     36 HC          0.5110    1.3270   -1.2410 hn        1 FCP      0.426800
     37 HA          2.1250    1.0750    3.1130 ha        1 FCP      0.145500
     38 HA1         1.5850    1.7980    5.1750 h1        1 FCP      0.048700
     39 HB2         1.9640    0.0040    5.1340 h1        1 FCP      0.048700
     40 HH          3.0430    1.5650   -7.7680 ha        1 FCP      0.149000
     41 HI          3.0920   -0.9290   -7.5860 ha        1 FCP      0.158000
     42 HJ          1.1370    2.8530   -6.7910 ha        1 FCP      0.158000
     43 HG          0.0140    1.3720    7.1600 h1        1 FCP      0.086700
     44 HB1         1.3920   -1.4150    6.9100 h1        1 FCP      0.045700
     45 HC2        -0.3830   -1.0250    6.7850 h1        1 FCP      0.045700
     46 HC1        -0.3190   -0.3520   10.5620 h1        1 FCP      0.034867
     47 HD2         0.2080    0.9530    9.4040 h1        1 FCP      0.034867
     48 HE3        -1.3430    0.0330    9.1040 h1        1 FCP      0.034867
     49 HD1         0.8530   -3.0670    8.4950 h1        1 FCP      0.034867
     50 HE2         0.2240   -2.5590   10.1290 h1        1 FCP      0.034867
     51 HF3        -0.9060   -2.6360    8.6990 h1        1 FCP      0.034867
     52 HK          2.6190    0.5660    7.8060 ho        1 FCP      0.412000
     53 F14         1.2710   -2.3820   -6.4110 f         1 FCP     -0.124400
@<TRIPOS>BOND
     1    1    6 ar  
     2    1   14 ar  
     3    1   30 1   
     4    2   10 ar  
     5    2   11 ar  
     6    2   31 1   
     7    3    4 ar  
     8    3   11 ar  
     9    3   13 1   
    10    4    5 ar  
    11    4   32 1   
    12    5   10 ar  
    13    5   12 1   
    14    6    7 ar  
    15    6   13 1   
    16    7    8 ar  
    17    7   33 1   
    18    8    9 ar  
    19    8   34 1   
    20    9   14 ar  
    21    9   15 1   
    22   12   20 1   
    23   12   35 1   
    24   13   36 1   
    25   14   37 1   
    26   15   16 1   
    27   16   24 1   
    28   16   38 1   
    29   16   39 1   
    30   17   18 ar  
    31   17   21 ar  
    32   17   40 1   
    33   18   19 ar  
    34   18   41 1   
    35   19   20 ar  
    36   19   53 1   
    37   20   22 ar  
    38   21   22 ar  
    39   21   42 1   
    40   22   23 1   
    41   24   25 1   
    42   24   29 1   
    43   24   43 1   
    44   25   26 1   
    45   25   44 1   
    46   25   45 1   
    47   26   27 1   
    48   26   28 1   
    49   27   46 1   
    50   27   47 1   
    51   27   48 1   
    52   28   49 1   
    53   28   50 1   
    54   28   51 1   
    55   29   52 1   
@<TRIPOS>SUBSTRUCTURE
     1 FCP         1 TEMP              0 ****  ****    0 ROOT
