@<TRIPOS>MOLECULE
FCP
   53    54     1     0     0
SMALL
bcc


@<TRIPOS>ATOM
      1 C22         0.3260   -2.0020   -0.3090 c3        1 FCP     -0.186000
      2 C1          1.6190    2.9780   -2.8870 c1        1 FCP     -0.015000
      3 C5          2.1350    0.7230   -2.1830 c2        1 FCP      0.195000
      4 C4          3.3190    0.7960   -2.9480 c2        1 FCP     -0.360000
      5 C3          3.6010    2.0120   -3.6630 c2        1 FCP      0.232000
      6 C17         0.9400   -0.6340   -0.4670 c2        1 FCP      0.050000
      7 C18         0.6200    0.3530    0.4350 c2        1 FCP     -0.236000
      8 C19        -0.3300    0.1270    1.4740 c2        1 FCP     -0.036000
      9 C20        -0.9500   -1.0970    1.6000 c2        1 FCP     -0.044000
     10 N2          2.7280    3.0710   -3.6270 n2        1 FCP     -0.283000
     11 N6          1.3020    1.8360   -2.1650 n3        1 FCP     -0.224000
     12 N7          4.7780    2.1600   -4.3920 n3        1 FCP     -0.250000
     13 N16         1.8210   -0.4750   -1.5320 n3        1 FCP     -0.292000
     14 C21        -0.6190   -2.1970    0.7740 c1        1 FCP     -0.127000
     15 O23        -1.8880   -1.2190    2.6110 os        1 FCP     -0.223000
     16 C24        -2.4860   -2.5130    2.7080 c3        1 FCP     -0.066000
     17 C11         8.0320   -1.5140   -4.2240 c1        1 FCP     -0.125000
     18 C10         7.1620    0.8240   -6.6430 c2        1 FCP     -0.227000
     19 C9          5.9330    0.8150   -6.0960 c2        1 FCP      0.061000
     20 C8          5.6840    1.1230   -4.6590 c2        1 FCP     -0.006000
     21 C12         7.2910   -0.6010   -3.9980 c1        1 FCP     -0.180000
     22 C13         6.4110    0.4670   -3.6920 c2        1 FCP      0.171000
     23 F15         6.2970    0.7770   -2.3760 f         1 FCP     -0.081000
     24 C25        -3.9250   -0.1820    5.1860 cy        1 FCP     -0.005000
     25 C26        -4.9480    0.9920    5.0970 cy        1 FCP     -0.144000
     26 N27        -4.4920    1.5050    6.4110 n3        1 FCP     -0.231000
     27 C28        -3.4300    0.4750    6.5110 cy        1 FCP     -0.144000
     28 C29        -4.0560    2.8720    6.4420 c3        1 FCP     -0.135000
     29 O30        -4.4770   -1.4590    5.3130 oh        1 FCP     -0.313000
     30 H22        -0.2210   -2.2840   -1.2600 hc        1 FCP      0.167500
     31 HL          0.4510    1.8260   -1.6460 hn        1 FCP      0.259000
     32 HB          4.0120   -0.0520   -2.9880 ha        1 FCP      0.153000
     33 HE          1.0970    1.3450    0.4180 ha        1 FCP      0.150000
     34 HF         -0.5470    0.9510    2.1730 ha        1 FCP      0.151000
     35 HD          4.8270    2.9380   -5.0190 hn        1 FCP      0.261000
     36 HC          2.3230   -1.2820   -1.8320 hn        1 FCP      0.252000
     37 HA          1.1380   -2.7770   -0.1680 hc        1 FCP      0.167500
     38 HA1        -1.7070   -3.2840    2.9170 h1        1 FCP      0.091667
     39 HB2        -3.0220   -2.7620    1.7610 h1        1 FCP      0.091667
     40 HH          8.6890   -2.3200   -4.4340 ha        1 FCP      0.235000
     41 HI          7.3270    0.6050   -7.7050 ha        1 FCP      0.143000
     42 HJ          8.0520    1.0460   -6.0410 ha        1 FCP      0.143000
     43 HG         -3.1990   -2.4040    3.5670 h1        1 FCP      0.091667
     44 HB1        -3.1770   -0.2510    4.3590 h1        1 FCP      0.149000
     45 HC2        -6.0180    0.6810    5.1400 h1        1 FCP      0.099250
     46 HC1        -4.7840    1.6710    4.2280 h1        1 FCP      0.099250
     47 HD2        -2.3820    0.8540    6.4650 h1        1 FCP      0.099250
     48 HE3        -3.5680   -0.1530    7.4230 h1        1 FCP      0.099250
     49 HD1        -3.6480    3.0910    7.4640 h1        1 FCP      0.073333
     50 HE2        -3.2640    3.1200    5.6830 h1        1 FCP      0.073333
     51 HF3        -4.9440    3.5320    6.2550 h1        1 FCP      0.073333
     52 HK         -5.1300   -1.4270    6.0250 ho        1 FCP      0.208000
     53 F14         4.8240    0.5580   -6.8350 f         1 FCP     -0.101000
@<TRIPOS>BOND
     1    1    6 1   
     2    1   14 1   
     3    1   30 1   
     4    1   37 1   
     5    2   10 1   
     6    2   11 1   
     7    3    4 1   
     8    3   11 1   
     9    3   13 1   
    10    4    5 1   
    11    4   32 1   
    12    5   10 1   
    13    5   12 1   
    14    6    7 1   
    15    6   13 1   
    16    7    8 1   
    17    7   33 1   
    18    8    9 1   
    19    8   34 1   
    20    9   14 1   
    21    9   15 1   
    22   11   31 1   
    23   12   20 1   
    24   12   35 1   
    25   13   36 1   
    26   15   16 1   
    27   16   38 1   
    28   16   39 1   
    29   16   43 1   
    30   17   21 1   
    31   17   40 1   
    32   18   19 1   
    33   18   41 1   
    34   18   42 1   
    35   19   20 1   
    36   19   53 1   
    37   20   22 1   
    38   21   22 1   
    39   22   23 1   
    40   24   25 1   
    41   24   27 1   
    42   24   29 1   
    43   24   44 1   
    44   25   26 1   
    45   25   45 1   
    46   25   46 1   
    47   26   27 1   
    48   26   28 1   
    49   27   47 1   
    50   27   48 1   
    51   28   49 1   
    52   28   50 1   
    53   28   51 1   
    54   29   52 1   
@<TRIPOS>SUBSTRUCTURE
     1 FCP         1 TEMP              0 ****  ****    0 ROOT
