@<TRIPOS>MOLECULE
FCP
   54    55     1     0     0
SMALL
bcc


@<TRIPOS>ATOM
      1 C22        -0.3300    0.9670   -0.4290 c3        1 FCP     -0.154000
      2 C1          5.2230    2.5200   -0.6790 c2        1 FCP      0.041000
      3 C5          3.3210    1.4610   -1.4140 c2        1 FCP      0.103000
      4 C4          4.0490    0.8370   -2.4450 c2        1 FCP     -0.275000
      5 C3          5.4570    1.1230   -2.5170 c2        1 FCP      0.204000
      6 C17         1.1660    1.0290   -0.2560 c2        1 FCP      0.243000
      7 C18         1.7190    0.8340    1.0560 c2        1 FCP     -0.233000
      8 C19         0.9220    0.6140    2.1380 c2        1 FCP      0.068000
      9 C20        -0.5210    0.5590    2.0090 c2        1 FCP      0.062000
     10 N2          6.0370    1.9960   -1.6160 n2        1 FCP     -0.200000
     11 N6          3.8900    2.3130   -0.5080 n2        1 FCP     -0.222000
     12 N7          6.2770    0.5070   -3.4460 nu        1 FCP     -0.232000
     13 N16         1.9050    1.2310   -1.3560 nu        1 FCP     -0.167000
     14 C21        -1.1090    0.7160    0.7950 c2        1 FCP     -0.225000
     15 O23        -1.1510    0.3390    3.2010 os        1 FCP     -0.185000
     16 C24        -2.5830    0.1780    3.1460 c3        1 FCP     -0.038000
     17 C11         4.3010   -2.7790   -6.5160 c1        1 FCP     -0.077000
     18 C10         6.7700   -0.2820   -6.8450 c2        1 FCP     -0.201000
     19 C9          6.0710    0.3660   -5.8960 c2        1 FCP      0.046000
     20 C8          5.7910   -0.2170   -4.5550 c2        1 FCP     -0.041000
     21 C12         4.7070   -2.1550   -5.5770 c1        1 FCP     -0.212000
     22 C13         5.1750   -1.4410   -4.4490 c2        1 FCP      0.213000
     23 F15         4.9510   -2.0230   -3.2440 f         1 FCP     -0.083000
     24 C25        -3.0050   -0.1920    4.5760 c3        1 FCP      0.166000
     25 C26        -4.4400    0.0700    4.7200 c2        1 FCP     -0.815000
     26 N27        -5.0730   -0.2180    5.9600 nx        1 FCP      0.185000
     27 C28        -5.1170    0.9520    6.8860 c3        1 FCP     -0.192000
     28 C29        -6.4500   -0.7360    5.7510 c3        1 FCP     -0.192000
     29 O30        -2.6780   -1.5540    4.8480 oh        1 FCP     -0.361000
     30 H22        -0.6790    1.9520   -0.8700 hc        1 FCP      0.164000
     31 HB          3.5840    0.1510   -3.1650 ha        1 FCP      0.172000
     32 HE          2.8150    0.8580    1.1970 ha        1 FCP      0.194000
     33 HF          1.3500    0.4610    3.1480 ha        1 FCP      0.195000
     34 HD          7.2120    0.8570   -3.5450 hn        1 FCP      0.272000
     35 HC          1.4450    1.2990   -2.2470 hn        1 FCP      0.272000
     36 HA         -0.5880    0.1640   -1.1840 hc        1 FCP      0.164000
     37 HA1        -2.2010    0.6670    0.6600 ha        1 FCP      0.177000
     38 HB2        -3.0420    1.1470    2.8240 h1        1 FCP      0.091500
     39 HH          3.9470   -3.3290   -7.3550 ha        1 FCP      0.245000
     40 HI          6.9740    0.1680   -7.8250 ha        1 FCP      0.150500
     41 HJ          7.1600   -1.2930   -6.6770 ha        1 FCP      0.150500
     42 HG         -2.8390   -0.6430    2.4290 h1        1 FCP      0.091500
     43 HB1        -2.3510    0.3680    5.3110 h1        1 FCP      0.086000
     44 HC2        -5.0080    0.6560    4.0050 hx        1 FCP      0.149000
     45 HC1        -5.7130    1.7720    6.4120 hx        1 FCP      0.111667
     46 HD2        -5.5800    0.6590    7.8630 hx        1 FCP      0.111667
     47 HE3        -4.0680    1.3120    7.0500 hx        1 FCP      0.111667
     48 HD1        -7.0720    0.0540    5.2570 hx        1 FCP      0.111667
     49 HE2        -6.9010   -1.0130    6.7390 hx        1 FCP      0.111667
     50 HF3        -6.3990   -1.6330    5.0810 hx        1 FCP      0.111667
     51 HK         -3.3150   -2.1030    4.3750 ho        1 FCP      0.197000
     52 F14         5.5960    1.6250   -6.0840 f         1 FCP     -0.102000
     53 H271       -4.5200   -0.9530    6.4220 hn        1 FCP      0.216000
     54 HL          5.6990    3.2220    0.0450 h5        1 FCP      0.219000
@<TRIPOS>BOND
     1    1    6 1   
     2    1   14 1   
     3    1   30 1   
     4    1   36 1   
     5    2   10 1   
     6    2   11 1   
     7    2   54 1   
     8    3    4 1   
     9    3   11 1   
    10    3   13 1   
    11    4    5 1   
    12    4   31 1   
    13    5   10 1   
    14    5   12 1   
    15    6    7 1   
    16    6   13 1   
    17    7    8 1   
    18    7   32 1   
    19    8    9 1   
    20    8   33 1   
    21    9   14 1   
    22    9   15 1   
    23   12   20 1   
    24   12   34 1   
    25   13   35 1   
    26   14   37 1   
    27   15   16 1   
    28   16   24 1   
    29   16   38 1   
    30   16   42 1   
    31   17   21 1   
    32   17   39 1   
    33   18   19 1   
    34   18   40 1   
    35   18   41 1   
    36   19   20 1   
    37   19   52 1   
    38   20   22 1   
    39   21   22 1   
    40   22   23 1   
    41   24   25 1   
    42   24   29 1   
    43   24   43 1   
    44   25   26 1   
    45   25   44 1   
    46   26   27 1   
    47   26   28 1   
    48   26   53 1   
    49   27   45 1   
    50   27   46 1   
    51   27   47 1   
    52   28   48 1   
    53   28   49 1   
    54   28   50 1   
    55   29   51 1   
@<TRIPOS>SUBSTRUCTURE
     1 FCP         1 TEMP              0 ****  ****    0 ROOT
