@<TRIPOS>MOLECULE
FCP
   53    46     1     0     0
SMALL
bcc


@<TRIPOS>ATOM
      1 C22        -0.6220   -1.6980   -0.5110 c1        1 FCP     -0.148500
      2 C1          1.9920    1.8150   -2.4730 c1        1 FCP      0.411300
      3 C5          1.9800   -0.5020   -2.3900 c1        1 FCP      0.150800
      4 C4          2.7820   -0.5450   -3.4980 c1        1 FCP     -0.148500
      5 C3          3.1840    0.6080   -4.0880 c1        1 FCP      0.547600
      6 C17         0.7620   -1.6990   -0.5110 c1        1 FCP      0.150800
      7 C18         1.4590   -1.6900    0.7000 c1        1 FCP     -0.077250
      8 C19         0.7590   -1.6790    1.9130 c1        1 FCP     -0.077250
      9 C20        -0.6240   -1.6780    1.9120 c1        1 FCP      0.101600
     10 N2          2.7990    1.7760   -3.5890 n1        1 FCP     -0.559800
     11 N6          1.5950    0.6730   -1.8900 n1        1 FCP     -0.563800
     12 N7          4.2790    0.8880   -4.9740 n3        1 FCP     -0.539400
     13 N16         1.5020   -1.7350   -1.7920 n3        1 FCP     -0.555400
     14 C21        -1.3230   -1.6880    0.7020 c1        1 FCP     -0.131500
     15 O23        -1.2160   -1.9220    3.1600 os        1 FCP     -0.326400
     16 C24        -2.1410   -0.9080    3.5770 c3        1 FCP      0.088400
     17 C11         3.9420    3.4310   -8.3380 c1        1 FCP     -0.077250
     18 C10         4.0750    3.9800   -7.0540 c1        1 FCP     -0.110500
     19 C9          4.1460    3.1440   -5.9410 c1        1 FCP      0.080100
     20 C8          4.0860    1.7530   -6.1060 c1        1 FCP      0.028800
     21 C12         3.8820    2.0490   -8.5030 c1        1 FCP     -0.077250
     22 C13         3.9530    1.2060   -7.3890 c1        1 FCP      0.148100
     23 F14         4.3170    3.6670   -4.7230 f         1 FCP     -0.109100
     24 F15         4.0440   -0.1040   -7.5590 f         1 FCP     -0.083100
     25 C25        -2.6860   -1.2610    4.9460 c3        1 FCP      0.140100
     26 C26        -3.7750   -0.2670    5.3360 c3        1 FCP      0.174800
     27 N27        -4.5380   -0.8070    6.4820 n3        1 FCP     -0.740600
     28 C28        -4.3140    0.0170    7.6370 c3        1 FCP      0.155100
     29 C29        -5.9920   -0.8180    6.1530 c3        1 FCP      0.155100
     30 O30        -3.2190   -2.5330    4.9100 oh        1 FCP     -0.603800
     31 H22        -1.0880   -1.7040   -1.3190 ha        1 FCP      0.096500
     32 HL          1.7010    2.6940   -2.0960 ha        1 FCP      0.133500
     33 HB          3.0760   -1.4430   -3.8790 ha        1 FCP      0.096500
     34 HE          2.3790   -1.6900    0.7010 ha        1 FCP      0.088500
     35 HF          1.2390   -1.6730    2.7430 ha        1 FCP      0.088500
     36 HD          5.0980    0.5260   -4.8130 hn        1 FCP      0.429800
     37 HC          1.5870   -2.5080   -2.2360 hn        1 FCP      0.425800
     38 HA         -2.2600   -1.6870    0.7020 ha        1 FCP      0.083500
     39 HA1        -1.6880   -0.0560    3.6190 h1        1 FCP      0.052200
     40 HB2        -2.8910   -0.8530    2.9270 h1        1 FCP      0.052200
     41 HH          3.8930    4.0040   -9.0980 ha        1 FCP      0.088500
     42 HI          4.1180    4.9580   -6.9380 ha        1 FCP      0.097500
     43 HJ          3.7870    1.6600   -9.4190 ha        1 FCP      0.088500
     44 HG         -1.9320   -1.2290    5.6350 h1        1 FCP      0.067700
     45 HB1        -4.3810   -0.1260    4.5750 h1        1 FCP      0.042700
     46 HC2        -3.3620    0.5910    5.5900 h1        1 FCP      0.042700
     47 HC1        -4.7980   -0.3610    8.4110 h1        1 FCP      0.034367
     48 HD2        -4.6410    0.9260    7.4590 h1        1 FCP      0.034367
     49 HE3        -3.3430    0.0480    7.8380 h1        1 FCP      0.034367
     50 HD1        -6.5040   -1.1460    6.9340 h1        1 FCP      0.034367
     51 HE2        -6.2880    0.1050    5.9270 h1        1 FCP      0.034367
     52 HF3        -6.1510   -1.4040    5.3940 h1        1 FCP      0.034367
     53 HK         -2.6380   -3.1050    5.2460 ho        1 FCP      0.416000
@<TRIPOS>BOND
     1    1    6 3   
     2    1   31 1   
     3    2   11 3   
     4    2   32 1   
     5    3    4 3   
     6    3   13 1   
     7    4   33 1   
     8    5   10 3   
     9    5   12 1   
    10    6   13 1   
    11    7    8 3   
    12    7   34 1   
    13    8   35 1   
    14    9   14 3   
    15    9   15 1   
    16   12   20 1   
    17   12   36 1   
    18   13   37 1   
    19   14   38 1   
    20   15   16 1   
    21   16   25 1   
    22   16   39 1   
    23   16   40 1   
    24   17   21 3   
    25   17   41 1   
    26   18   19 3   
    27   18   42 1   
    28   19   23 1   
    29   20   22 3   
    30   21   43 1   
    31   22   24 1   
    32   25   26 1   
    33   25   30 1   
    34   25   44 1   
    35   26   27 1   
    36   26   45 1   
    37   26   46 1   
    38   27   28 1   
    39   27   29 1   
    40   28   47 1   
    41   28   48 1   
    42   28   49 1   
    43   29   50 1   
    44   29   51 1   
    45   29   52 1   
    46   30   53 1   
@<TRIPOS>SUBSTRUCTURE
     1 FCP         1 TEMP              0 ****  ****    0 ROOT
