@<TRIPOS>MOLECULE
FCR
   16    13     1     0     0
SMALL
bcc


@<TRIPOS>ATOM
      1 C1         -0.4730    0.0400   -0.8190 c1        1 FCR     -0.175100
      2 C2          0.9130    0.0400   -0.8190 c1        1 FCR     -0.047500
      3 C3          1.6060    0.0400    0.3810 c1        1 FCR     -0.047500
      4 C4          0.9130    0.0400    1.5810 c1        1 FCR      0.139600
      5 C5         -0.4730    0.0400    1.5820 c1        1 FCR     -0.164500
      6 C6         -1.1660    0.0400    0.3810 c1        1 FCR      0.017500
      7 C7         -1.2290    0.0720   -2.1290 c3        1 FCR      0.658000
      8 O4          1.6170    0.0570    2.8000 oh        1 FCR     -0.472600
      9 F1         -1.4790    1.3430   -2.4700 f         1 FCR     -0.238300
     10 F2         -0.4930   -0.5100   -3.0840 f         1 FCR     -0.238300
     11 F3         -2.3860   -0.5890   -1.9930 f         1 FCR     -0.238300
     12 H2          1.4010    0.0400   -1.6650 ha        1 FCR      0.100000
     13 H3          2.5820    0.0400    0.3810 ha        1 FCR      0.100000
     14 H5         -0.9610    0.0400    2.4270 ha        1 FCR      0.086500
     15 H6         -2.1420    0.0400    0.3810 ha        1 FCR      0.095500
     16 H4          1.7690   -0.7760    3.0650 ho        1 FCR      0.426000
@<TRIPOS>BOND
     1    1    6 3   
     2    1    7 1   
     3    2    3 3   
     4    2   12 1   
     5    3   13 1   
     6    4    5 3   
     7    4    8 1   
     8    5   14 1   
     9    6   15 1   
    10    7    9 1   
    11    7   10 1   
    12    7   11 1   
    13    8   16 1   
@<TRIPOS>SUBSTRUCTURE
     1 FCR         1 TEMP              0 ****  ****    0 ROOT
