@<TRIPOS>MOLECULE
FCR
   16    16     1     0     0
SMALL
bcc


@<TRIPOS>ATOM
      1 C1          0.0220    0.0020    0.0030 ca        1 FCR     -0.209300
      2 C2          1.4150   -0.1260   -0.0320 ca        1 FCR     -0.043500
      3 C3          2.1510   -0.0660    1.1450 ca        1 FCR     -0.192500
      4 C4          1.4760    0.1260    2.3640 ca        1 FCR      0.156100
      5 C5          0.0790    0.2530    2.4040 ca        1 FCR     -0.192500
      6 C6         -0.6440    0.1910    1.2160 ca        1 FCR     -0.043500
      7 C7         -0.7710   -0.0470   -1.2930 c3        1 FCR      0.692200
      8 O4          2.2570    0.1770    3.4910 oh        1 FCR     -0.489100
      9 F1         -2.0490   -0.5380   -1.1650 f         1 FCR     -0.238300
     10 F2         -0.9460    1.1770   -1.8960 f         1 FCR     -0.238300
     11 F3         -0.2120   -0.8240   -2.2790 f         1 FCR     -0.238300
     12 H2          1.9260   -0.2800   -0.9960 ha        1 FCR      0.153500
     13 H3          3.2460   -0.1650    1.1390 ha        1 FCR      0.152500
     14 H5         -0.4400    0.4010    3.3610 ha        1 FCR      0.152500
     15 H6         -1.7420    0.2850    1.2310 ha        1 FCR      0.153500
     16 H4          1.6770    0.3110    4.2560 ho        1 FCR      0.426000
@<TRIPOS>BOND
     1    1    2 ar  
     2    1    6 ar  
     3    1    7 1   
     4    2    3 ar  
     5    2   12 1   
     6    3    4 ar  
     7    3   13 1   
     8    4    5 ar  
     9    4    8 1   
    10    5    6 ar  
    11    5   14 1   
    12    6   15 1   
    13    7    9 1   
    14    7   10 1   
    15    7   11 1   
    16    8   16 1   
@<TRIPOS>SUBSTRUCTURE
     1 FCR         1 TEMP              0 ****  ****    0 ROOT
