@<TRIPOS>MOLECULE
FCR
   16    16     1     0     0
SMALL
bcc


@<TRIPOS>ATOM
      1 C1          0.0190    0.0000   -0.2650 ca        1 FCR     -0.209300
      2 C2          1.2450   -0.1100    0.3990 ca        1 FCR     -0.043500
      3 C3          1.2960   -0.0540    1.7860 ca        1 FCR     -0.192500
      4 C4          0.1000    0.1140    2.5070 ca        1 FCR      0.156100
      5 C5         -1.1330    0.2230    1.8450 ca        1 FCR     -0.192500
      6 C6         -1.1660    0.1660    0.4550 ca        1 FCR     -0.043500
      7 C7         -0.0220   -0.0440   -1.7850 c3        1 FCR      0.692200
      8 O4          0.2130    0.1620    3.8730 oh        1 FCR     -0.489100
      9 F1         -1.1850   -0.5520   -2.3120 f         1 FCR     -0.238300
     10 F2          0.1060    1.1850   -2.3890 f         1 FCR     -0.238300
     11 F3          0.9680   -0.8020   -2.3630 f         1 FCR     -0.238300
     12 H2          2.1720   -0.2450   -0.1830 ha        1 FCR      0.153500
     13 H3          2.2490   -0.1390    2.3260 ha        1 FCR      0.152500
     14 H5         -2.0630    0.3530    2.4170 ha        1 FCR      0.152500
     15 H6         -2.1270    0.2450   -0.0800 ha        1 FCR      0.153500
     16 H4         -0.6730    0.2800    4.2470 ho        1 FCR      0.426000
@<TRIPOS>BOND
     1    1    2 ar  
     2    1    6 ar  
     3    1    7 1   
     4    2    3 ar  
     5    2   12 1   
     6    3    4 ar  
     7    3   13 1   
     8    4    5 ar  
     9    4    8 1   
    10    5    6 ar  
    11    5   14 1   
    12    6   15 1   
    13    7    9 1   
    14    7   10 1   
    15    7   11 1   
    16    8   16 1   
@<TRIPOS>SUBSTRUCTURE
     1 FCR         1 TEMP              0 ****  ****    0 ROOT
