@<TRIPOS>MOLECULE
FCW
   33    35     1     0     0
SMALL
bcc


@<TRIPOS>ATOM
      1 C1          0.0420   -0.0020   -0.0390 ca        1 FCW     -0.090000
      2 C2          1.4420   -0.0020   -0.0550 ca        1 FCW     -0.165000
      3 C3          2.1100   -0.0010    1.1660 ca        1 FCW      0.056600
      4 C4          1.3730    0.0000    2.3990 ca        1 FCW     -0.148300
      5 C5         -0.0040    0.0010    2.3890 ca        1 FCW     -0.074000
      6 C6         -0.6830   -0.0000    1.1540 ca        1 FCW     -0.104300
      7 C7         -2.1790    0.0010    1.1430 c3        1 FCW     -0.016400
      8 C8         -2.7230    1.2520    0.4610 c3        1 FCW     -0.071400
      9 C9         -4.2370    1.2510    0.4510 c3        1 FCW     -0.077400
     10 C10        -4.7850    0.0000   -0.2050 c3        1 FCW     -0.077400
     11 C11        -4.2390   -1.2490    0.4540 c3        1 FCW     -0.077400
     12 C12        -2.7240   -1.2520    0.4640 c3        1 FCW     -0.071400
     13 C13         2.3470    0.0010    3.5350 c3        1 FCW     -0.101100
     14 C14         3.7100   -0.0010    2.8220 c         1 FCW      0.699500
     15 O15         4.8300   -0.0010    3.3420 o         1 FCW     -0.604500
     16 N16         3.4890   -0.0020    1.4310 ns        1 FCW     -0.482100
     17 H1         -0.4960   -0.0020   -1.0000 ha        1 FCW      0.136000
     18 H2          1.9870   -0.0030   -1.0080 ha        1 FCW      0.140000
     19 H5         -0.5710    0.0020    3.3320 ha        1 FCW      0.138000
     20 H7         -2.5510    0.0020    2.2090 hc        1 FCW      0.051700
     21 H8         -2.3390    1.3010   -0.5920 hc        1 FCW      0.043200
     22 H8A        -2.3500    2.1620    1.0000 hc        1 FCW      0.043200
     23 H9         -4.6070    2.1560   -0.0980 hc        1 FCW      0.040200
     24 H9A        -4.6190    1.3170    1.5040 hc        1 FCW      0.040200
     25 H10        -5.9040    0.0010   -0.1400 hc        1 FCW      0.039700
     26 H10A       -4.5110   -0.0010   -1.2930 hc        1 FCW      0.039700
     27 H11        -4.6090   -2.1550   -0.0940 hc        1 FCW      0.040200
     28 H11A       -4.6200   -1.3130    1.5070 hc        1 FCW      0.040200
     29 H12        -2.3400   -1.3040   -0.5890 hc        1 FCW      0.043200
     30 H12A       -2.3520   -2.1600    1.0040 hc        1 FCW      0.043200
     31 H13         2.2570   -0.9090    4.1780 hc        1 FCW      0.093700
     32 H13A        2.2580    0.9120    4.1760 hc        1 FCW      0.093700
     33 HN16        4.1910   -0.0030    0.7390 hn        1 FCW      0.340500
@<TRIPOS>BOND
     1    1    2 ar  
     2    1    6 ar  
     3    1   17 1   
     4    2    3 ar  
     5    2   18 1   
     6    3    4 ar  
     7    3   16 1   
     8    4    5 ar  
     9    4   13 1   
    10    5    6 ar  
    11    5   19 1   
    12    6    7 1   
    13    7    8 1   
    14    7   12 1   
    15    7   20 1   
    16    8    9 1   
    17    8   21 1   
    18    8   22 1   
    19    9   10 1   
    20    9   23 1   
    21    9   24 1   
    22   10   11 1   
    23   10   25 1   
    24   10   26 1   
    25   11   12 1   
    26   11   27 1   
    27   11   28 1   
    28   12   29 1   
    29   12   30 1   
    30   13   14 1   
    31   13   31 1   
    32   13   32 1   
    33   14   15 2   
    34   14   16 1   
    35   16   33 1   
@<TRIPOS>SUBSTRUCTURE
     1 FCW         1 TEMP              0 ****  ****    0 ROOT
