@<TRIPOS>MOLECULE
FCY
   13    12     1     0     0
SMALL
bcc


@<TRIPOS>ATOM
      1 N           1.7120    0.3200   -0.2580 n3        1 FCY     -0.882800
      2 CA          0.2830    0.3340    0.0280 c3        1 FCY      0.021500
      3 C          -0.0850   -0.0910    1.4980 c         1 FCY      0.890600
      4 O           0.8600   -0.2180    2.3250 o         1 FCY     -0.836800
      5 CB         -0.5380   -0.5240   -0.9190 c3        1 FCY      0.052700
      6 SG         -0.5850    0.1960   -2.5530 sh        1 FCY     -0.434900
      7 OXT        -1.3060   -0.2590    1.7680 o         1 FCY     -0.836800
      8 H           2.0200   -0.6350   -0.3140 hn        1 FCY      0.332300
      9 HN2         2.1750    0.7190    0.5430 hn        1 FCY      0.332300
     10 HA         -0.0540    1.4070   -0.0780 h1        1 FCY      0.060700
     11 HB1        -0.1220   -1.5560   -0.9960 h1        1 FCY      0.067200
     12 HB2        -1.5760   -0.5870   -0.5040 h1        1 FCY      0.067200
     13 HG         -1.7010   -0.3610   -2.9790 hs        1 FCY      0.165800
@<TRIPOS>BOND
     1    1    2 1   
     2    1    8 1   
     3    1    9 1   
     4    2    3 1   
     5    2    5 1   
     6    2   10 1   
     7    3    4 1   
     8    3    7 1   
     9    5    6 1   
    10    5   11 1   
    11    5   12 1   
    12    6   13 1   
@<TRIPOS>SUBSTRUCTURE
     1 FCY         1 TEMP              0 ****  ****    0 ROOT
