@<TRIPOS>MOLECULE
FD1
   65    68     1     0     0
SMALL
bcc


@<TRIPOS>ATOM
      1 C65        -0.2100   -0.5560    0.1200 ca        1 FD1     -0.076300
      2 C66         1.0620    0.0030    0.2780 ca        1 FD1     -0.090000
      3 C64        -0.7560   -1.3080    1.1700 ca        1 FD1     -0.076000
      4 C63        -0.0510   -1.4780    2.3610 ca        1 FD1     -0.113000
      5 C62         1.1940   -0.8770    2.5380 ca        1 FD1     -0.082000
      6 C61         1.7420   -0.1220    1.4940 ca        1 FD1     -0.239900
      7 C25         3.0380    0.5640    1.6890 ce        1 FD1      0.590800
      8 N43         2.9630    2.0180    1.3320 nz        1 FD1     -0.813600
      9 N54         4.1620    0.1240    2.1130 n2        1 FD1     -0.721100
     10 C34        -0.9740   -0.3650   -1.1430 c3        1 FD1     -0.059100
     11 C31        -0.9050    1.0780   -1.6740 c3        1 FD1      0.184500
     12 C35        -1.5060    1.1330   -3.1040 c         1 FD1      0.614100
     13 O36        -0.6810    1.3580   -4.0160 o         1 FD1     -0.593100
     14 N81        -2.8620    1.0920   -3.3800 n         1 FD1     -0.433800
     15 C71        -3.3130    1.0000   -4.7750 c3        1 FD1     -0.006300
     16 C72        -3.6910   -0.4330   -5.1850 c3        1 FD1     -0.095400
     17 C74        -4.2710   -0.8930   -2.7960 c3        1 FD1     -0.107400
     18 C75        -3.8520    0.5420   -2.4700 c3        1 FD1      0.078000
     19 C40        -4.7200   -1.0090   -4.2370 c3        1 FD1     -0.084400
     20 C91        -2.3610    1.5730   -5.8180 c         1 FD1      0.646100
     21 O92        -1.9590    2.8730   -5.7240 oh        1 FD1     -0.571100
     22 O93        -1.9880    1.0000   -6.8370 o         1 FD1     -0.467000
     23 N29        -1.3990    2.0990   -0.8010 n7        1 FD1     -0.906100
     24 S12        -0.5060    3.3140   -0.1950 sy        1 FD1      1.552200
     25 O32         0.8660    2.8930   -0.1310 o         1 FD1     -0.704800
     26 O33        -0.9960    3.6580    1.0810 o         1 FD1     -0.704800
     27 C2         -0.6770    4.5550   -1.2700 ca        1 FD1     -0.440500
     28 C3         -1.0650    5.8280   -0.7550 ca        1 FD1     -0.064000
     29 C4         -1.1780    6.9220   -1.5710 ca        1 FD1     -0.116000
     30 C9         -0.5640    5.5500   -3.5020 ca        1 FD1     -0.086000
     31 C10        -0.9260    6.8150   -2.9670 ca        1 FD1      0.022000
     32 C1         -0.4370    4.4440   -2.6290 ca        1 FD1      0.040000
     33 C5         -1.0340    7.9310   -3.8380 ca        1 FD1     -0.140000
     34 C6         -0.4550    6.5180   -5.7220 ca        1 FD1     -0.119000
     35 C7         -0.7990    7.7830   -5.1850 ca        1 FD1     -0.079000
     36 C8         -0.3410    5.4220   -4.9020 ca        1 FD1     -0.103000
     37 H661        1.5230    0.5550   -0.5580 ha        1 FD1      0.149000
     38 H641       -1.7510   -1.7700    1.0550 ha        1 FD1      0.156000
     39 H631       -0.4860   -2.0820    3.1750 ha        1 FD1      0.164000
     40 H621        1.7310   -0.9900    3.4930 ha        1 FD1      0.152000
     41 H431        2.8360    2.1070    0.3100 hn        1 FD1      0.480800
     42 H432        2.1200    2.4230    1.7630 hn        1 FD1      0.480800
     43 H541        4.2240   -0.8470    2.3410 hn        1 FD1      0.475400
     44 H341       -0.5380   -1.0300   -1.9400 hc        1 FD1      0.081200
     45 H342       -2.0380   -0.6840   -0.9910 hc        1 FD1      0.081200
     46 H311        0.1990    1.3060   -1.8530 h1        1 FD1      0.094700
     47 H711       -4.2490    1.6430   -4.8290 h1        1 FD1      0.087700
     48 H721       -2.7710   -1.0720   -5.2090 hc        1 FD1      0.079700
     49 H722       -4.0980   -0.4010   -6.2300 hc        1 FD1      0.079700
     50 H741       -3.4180   -1.5950   -2.6060 hc        1 FD1      0.055700
     51 H742       -5.1090   -1.1800   -2.1090 hc        1 FD1      0.055700
     52 H751       -4.7610    1.2090   -2.5430 h1        1 FD1      0.057700
     53 H752       -3.4900    0.5860   -1.4100 h1        1 FD1      0.057700
     54 H401       -5.6960   -0.4710   -4.3690 hc        1 FD1      0.060200
     55 H402       -4.8970   -2.0880   -4.4910 hc        1 FD1      0.060200
     56 H291       -2.1550    3.2240   -4.8450 ho        1 FD1      0.425000
     57 H31        -1.2770    5.9160    0.3260 ha        1 FD1      0.163000
     58 H41        -1.4690    7.9010   -1.1590 ha        1 FD1      0.154000
     59 H11        -0.1400    3.4720   -3.0710 ha        1 FD1      0.151000
     60 H51        -1.3100    8.9090   -3.4160 ha        1 FD1      0.149000
     61 H61        -0.2840    6.4240   -6.8060 ha        1 FD1      0.156000
     62 H71        -0.8800    8.6470   -5.8640 ha        1 FD1      0.151000
     63 H81        -0.0920    4.4290   -5.3170 ha        1 FD1      0.164000
     64 H433        3.7960    2.5370    1.6250 hn        1 FD1      0.480800
     65 H292       -2.3580    2.0090   -0.5540 hn        1 FD1      0.459800
@<TRIPOS>BOND
     1    1    2 ar  
     2    1    3 ar  
     3    1   10 1   
     4    2    6 ar  
     5    2   37 1   
     6    3    4 ar  
     7    3   38 1   
     8    4    5 ar  
     9    4   39 1   
    10    5    6 ar  
    11    5   40 1   
    12    6    7 1   
    13    7    8 1   
    14    7    9 2   
    15    8   41 1   
    16    8   42 1   
    17    8   64 1   
    18    9   43 1   
    19   10   11 1   
    20   10   44 1   
    21   10   45 1   
    22   11   12 1   
    23   11   23 1   
    24   11   46 1   
    25   12   13 2   
    26   12   14 1   
    27   14   15 1   
    28   14   18 1   
    29   15   16 1   
    30   15   20 1   
    31   15   47 1   
    32   16   19 1   
    33   16   48 1   
    34   16   49 1   
    35   17   18 1   
    36   17   19 1   
    37   17   50 1   
    38   17   51 1   
    39   18   52 1   
    40   18   53 1   
    41   19   54 1   
    42   19   55 1   
    43   20   21 1   
    44   20   22 2   
    45   21   56 1   
    46   23   24 1   
    47   23   65 1   
    48   24   25 2   
    49   24   26 2   
    50   24   27 1   
    51   27   28 ar  
    52   27   32 ar  
    53   28   29 ar  
    54   28   57 1   
    55   29   31 ar  
    56   29   58 1   
    57   30   31 ar  
    58   30   32 ar  
    59   30   36 ar  
    60   31   33 ar  
    61   32   59 1   
    62   33   35 ar  
    63   33   60 1   
    64   34   35 ar  
    65   34   36 ar  
    66   34   61 1   
    67   35   62 1   
    68   36   63 1   
@<TRIPOS>SUBSTRUCTURE
     1 FD1         1 TEMP              0 ****  ****    0 ROOT
