@<TRIPOS>MOLECULE
FD1
   65    68     1     0     0
SMALL
bcc


@<TRIPOS>ATOM
      1 C65        -0.8160    0.2080    1.0140 ca        1 FD1     -0.116300
      2 C66         0.2780   -0.1640    0.2240 ca        1 FD1     -0.101000
      3 C64        -0.6040    0.5130    2.3640 ca        1 FD1     -0.068000
      4 C63         0.6900    0.5160    2.8890 ca        1 FD1     -0.117000
      5 C62         1.7920    0.2970    2.0620 ca        1 FD1     -0.082000
      6 C61         1.5780   -0.0120    0.7150 ca        1 FD1     -0.227900
      7 C25         2.7020   -0.0730   -0.2500 ce        1 FD1      0.594800
      8 N43         2.5060    0.8960   -1.3700 n4        1 FD1     -0.835600
      9 N54         3.7650   -0.7880   -0.2460 n2        1 FD1     -0.723100
     10 C34        -2.1690    0.3260    0.4000 c3        1 FD1     -0.048100
     11 C31        -2.0960    0.9610   -0.9990 c3        1 FD1      0.051500
     12 C35        -3.2310    0.3870   -1.8910 c         1 FD1      0.619100
     13 O36        -4.3010    0.1070   -1.3150 o         1 FD1     -0.580100
     14 N81        -3.1040    0.3780   -3.2700 n         1 FD1     -0.412800
     15 C71        -1.8590    0.2530   -4.0320 c3        1 FD1     -0.014300
     16 C72        -1.5580   -1.2020   -4.4240 c3        1 FD1     -0.087400
     17 C74        -4.0220   -1.6350   -4.4540 c3        1 FD1     -0.103400
     18 C75        -4.2310   -0.1860   -4.0210 c3        1 FD1      0.062000
     19 C40        -2.7130   -1.8030   -5.1950 c3        1 FD1     -0.086400
     20 C91        -0.6070    0.8980   -3.4170 c         1 FD1      0.924600
     21 O92        -0.5810    2.1530   -3.2150 o         1 FD1     -0.868800
     22 O93         0.3790    0.1670   -3.0880 o         1 FD1     -0.868800
     23 N29        -2.1820    2.4480   -1.0410 n4        1 FD1     -0.692900
     24 S12        -0.7430    3.4660   -0.4080 sy        1 FD1      1.512200
     25 O32         0.4310    2.7730   -0.6780 o         1 FD1     -0.618800
     26 O33        -1.0900    3.6130    0.9290 o         1 FD1     -0.618800
     27 C2         -1.0000    4.7790   -1.2910 ca        1 FD1     -0.543500
     28 C3         -1.7610    5.8510   -0.7160 ca        1 FD1     -0.067000
     29 C4         -1.9720    7.0180   -1.3910 ca        1 FD1     -0.113000
     30 C9         -0.6880    6.1580   -3.2920 ca        1 FD1     -0.100000
     31 C10        -1.4440    7.2080   -2.7020 ca        1 FD1      0.042000
     32 C1         -0.4790    4.9620   -2.5710 ca        1 FD1      0.113000
     33 C5         -1.6510    8.4060   -3.4290 ca        1 FD1     -0.144000
     34 C6         -0.3780    7.5040   -5.2860 ca        1 FD1     -0.127000
     35 C7         -1.1270    8.5480   -4.6940 ca        1 FD1     -0.058000
     36 C8         -0.1600    6.3310   -4.6030 ca        1 FD1     -0.079000
     37 H661        0.1350   -0.5620   -0.7990 ha        1 FD1      0.171000
     38 H641       -1.4580    0.7670    3.0130 ha        1 FD1      0.160000
     39 H631        0.8450    0.7290    3.9600 ha        1 FD1      0.162000
     40 H621        2.8130    0.3800    2.4650 ha        1 FD1      0.151000
     41 H431        1.5820    0.7120   -1.8530 hn        1 FD1      0.484133
     42 H432        2.4570    1.8420   -0.9770 hn        1 FD1      0.484133
     43 H541        3.8710   -1.4420    0.5020 hn        1 FD1      0.463400
     44 H341       -2.6180   -0.7020    0.2810 hc        1 FD1      0.101700
     45 H342       -2.8650    0.8980    1.0700 hc        1 FD1      0.101700
     46 H311       -1.0890    0.6960   -1.4380 hx        1 FD1      0.139700
     47 H711       -2.0510    0.8390   -4.9870 h1        1 FD1      0.086700
     48 H721       -0.6270   -1.2040   -5.0490 hc        1 FD1      0.064700
     49 H722       -1.3390   -1.8050   -3.5060 hc        1 FD1      0.064700
     50 H741       -4.8780   -1.9300   -5.1150 hc        1 FD1      0.060700
     51 H742       -4.0410   -2.3060   -3.5560 hc        1 FD1      0.060700
     52 H751       -4.3590    0.4630   -4.9340 h1        1 FD1      0.075700
     53 H752       -5.1690   -0.1130   -3.4020 h1        1 FD1      0.075700
     54 H401       -2.5170   -2.8930   -5.3730 hc        1 FD1      0.052700
     55 H402       -2.7870   -1.3090   -6.2000 hc        1 FD1      0.052700
     56 H291       -3.0400    2.7280   -0.5660 hn        1 FD1      0.469300
     57 H31        -2.1590    5.7210    0.3070 ha        1 FD1      0.161000
     58 H41        -2.5520    7.8360   -0.9330 ha        1 FD1      0.163000
     59 H11         0.1090    4.1490   -3.0520 ha        1 FD1      0.199000
     60 H51        -2.2360    9.2170   -2.9660 ha        1 FD1      0.156000
     61 H61         0.0270    7.6440   -6.3020 ha        1 FD1      0.158000
     62 H71        -1.2870    9.4800   -5.2620 ha        1 FD1      0.158000
     63 H81         0.4160    5.5090   -5.0570 ha        1 FD1      0.154000
     64 H433        3.2540    0.8380   -2.0650 hn        1 FD1      0.484133
     65 H292       -2.2710    2.6860   -2.0480 hn        1 FD1      0.469300
@<TRIPOS>BOND
     1    1    2 ar  
     2    1    3 ar  
     3    1   10 1   
     4    2    6 ar  
     5    2   37 1   
     6    3    4 ar  
     7    3   38 1   
     8    4    5 ar  
     9    4   39 1   
    10    5    6 ar  
    11    5   40 1   
    12    6    7 1   
    13    7    8 1   
    14    7    9 2   
    15    8   41 1   
    16    8   42 1   
    17    8   64 1   
    18    9   43 1   
    19   10   11 1   
    20   10   44 1   
    21   10   45 1   
    22   11   12 1   
    23   11   23 1   
    24   11   46 1   
    25   12   13 2   
    26   12   14 1   
    27   14   15 1   
    28   14   18 1   
    29   15   16 1   
    30   15   20 1   
    31   15   47 1   
    32   16   19 1   
    33   16   48 1   
    34   16   49 1   
    35   17   18 1   
    36   17   19 1   
    37   17   50 1   
    38   17   51 1   
    39   18   52 1   
    40   18   53 1   
    41   19   54 1   
    42   19   55 1   
    43   20   21 1   
    44   20   22 1   
    45   23   24 1   
    46   23   56 1   
    47   23   65 1   
    48   24   25 2   
    49   24   26 2   
    50   24   27 1   
    51   27   28 ar  
    52   27   32 ar  
    53   28   29 ar  
    54   28   57 1   
    55   29   31 ar  
    56   29   58 1   
    57   30   31 ar  
    58   30   32 ar  
    59   30   36 ar  
    60   31   33 ar  
    61   32   59 1   
    62   33   35 ar  
    63   33   60 1   
    64   34   35 ar  
    65   34   36 ar  
    66   34   61 1   
    67   35   62 1   
    68   36   63 1   
@<TRIPOS>SUBSTRUCTURE
     1 FD1         1 TEMP              0 ****  ****    0 ROOT
