@<TRIPOS>MOLECULE
FD1
   63    66     1     0     0
SMALL
bcc


@<TRIPOS>ATOM
      1 C65        -1.0020    0.4220    3.7630 ca        1 FD1     -0.077300
      2 C66         0.0820   -0.4390    3.9670 ca        1 FD1     -0.093000
      3 C64        -1.2490    1.4380    4.6970 ca        1 FD1     -0.120000
      4 C63        -0.4320    1.5860    5.8160 ca        1 FD1     -0.140000
      5 C62         0.6490    0.7290    6.0150 ca        1 FD1     -0.113000
      6 C61         0.9090   -0.2780    5.0820 ca        1 FD1     -0.185900
      7 C25         2.0860   -1.1900    5.2690 ce        1 FD1      0.660800
      8 N43         3.0360   -1.1160    4.2440 nh        1 FD1     -0.904800
      9 N54         2.2560   -1.9410    6.3240 n2        1 FD1     -0.876100
     10 C34        -1.9310    0.2400    2.6190 c3        1 FD1     -0.061100
     11 C31        -1.2690   -0.0760    1.2560 c3        1 FD1      0.188500
     12 C35        -2.4400   -0.4840    0.3220 c         1 FD1      0.679100
     13 O36        -3.3060   -1.2520    0.7680 o         1 FD1     -0.581100
     14 N81        -2.5020    0.0980   -1.0000 n         1 FD1     -0.416800
     15 C71        -2.4040   -0.8940   -2.0780 c3        1 FD1     -0.061300
     16 C72        -3.7150   -1.6240   -2.3930 c3        1 FD1     -0.098400
     17 C74        -4.9850    0.3040   -1.4680 c3        1 FD1     -0.110400
     18 C75        -3.6480    0.9830   -1.1710 c3        1 FD1      0.057000
     19 C40        -4.8450   -0.6470   -2.6380 c3        1 FD1     -0.072400
     20 C91        -1.3070   -1.9720   -1.8370 c         1 FD1      0.919600
     21 O92        -0.8340   -2.1220   -0.6710 o         1 FD1     -0.835300
     22 O93        -0.9260   -2.6310   -2.8420 o         1 FD1     -0.835300
     23 N29        -0.4230    0.9800    0.7740 n3        1 FD1     -0.889100
     24 S12         1.1850    1.0220    0.8740 sy        1 FD1      1.529200
     25 O32         1.5750    2.2850    1.3980 o         1 FD1     -0.681300
     26 O33         1.6870   -0.0860    1.6040 o         1 FD1     -0.681300
     27 C2          1.7350    0.9500   -0.7120 ca        1 FD1     -0.412500
     28 C3          2.5340    2.0210   -1.2050 ca        1 FD1     -0.046000
     29 C4          3.0830    1.9860   -2.4580 ca        1 FD1     -0.164000
     30 C9          2.0370   -0.1890   -2.8510 ca        1 FD1     -0.084000
     31 C10         2.8520    0.8730   -3.3160 ca        1 FD1      0.010000
     32 C1          1.4980   -0.1320   -1.5350 ca        1 FD1      0.058000
     33 C5          3.4060    0.7990   -4.6200 ca        1 FD1     -0.163000
     34 C6          3.1430   -0.2850   -5.4240 ca        1 FD1     -0.103000
     35 C7          2.3120   -1.3330   -4.9680 ca        1 FD1     -0.167000
     36 C8          1.7620   -1.2900   -3.7070 ca        1 FD1     -0.066000
     37 H661        0.3030   -1.2320    3.2310 ha        1 FD1      0.167000
     38 H641       -2.0930    2.1270    4.5430 ha        1 FD1      0.125000
     39 H631       -0.6350    2.3880    6.5400 ha        1 FD1      0.122000
     40 H621        1.3040    0.8520    6.8900 ha        1 FD1      0.131000
     41 H431        3.6730   -1.8770    4.1800 hn        1 FD1      0.422800
     42 H432        2.6810   -0.7920    3.3660 hn        1 FD1      0.422800
     43 H541        1.5420   -1.8220    7.0100 hn        1 FD1      0.377400
     44 H341       -2.6080   -0.6280    2.8600 hc        1 FD1      0.065200
     45 H342       -2.5780    1.1510    2.5050 hc        1 FD1      0.065200
     46 H311       -0.6470   -1.0250    1.3440 h1        1 FD1      0.134700
     47 H711       -2.0950   -0.3050   -2.9910 h1        1 FD1      0.056700
     48 H721       -3.9750   -2.2960   -1.5330 hc        1 FD1      0.062700
     49 H722       -3.5430   -2.2650   -3.2960 hc        1 FD1      0.062700
     50 H741       -5.3210   -0.2660   -0.5620 hc        1 FD1      0.040700
     51 H742       -5.7520    1.0890   -1.6920 hc        1 FD1      0.040700
     52 H751       -3.7550    1.6170   -0.2470 h1        1 FD1      0.036200
     53 H752       -3.3900    1.6620   -2.0330 h1        1 FD1      0.036200
     54 H401       -5.8060   -1.2050   -2.7890 hc        1 FD1      0.025200
     55 H402       -4.6440   -0.0640   -3.5750 hc        1 FD1      0.025200
     56 H291       -0.9160    1.6890    0.2830 hn        1 FD1      0.449800
     57 H31         2.7110    2.8870   -0.5420 ha        1 FD1      0.152000
     58 H41         3.7080    2.8130   -2.8240 ha        1 FD1      0.123000
     59 H11         0.8730   -0.9900   -1.1910 ha        1 FD1      0.213000
     60 H51         4.0440    1.6230   -4.9720 ha        1 FD1      0.121000
     61 H61         3.5730   -0.3450   -6.4350 ha        1 FD1      0.116000
     62 H71         2.0990   -2.1810   -5.6360 ha        1 FD1      0.132000
     63 H81         1.0750   -2.0860   -3.3460 ha        1 FD1      0.212000
@<TRIPOS>BOND
     1    1    2 ar  
     2    1    3 ar  
     3    1   10 1   
     4    2    6 ar  
     5    2   37 1   
     6    3    4 ar  
     7    3   38 1   
     8    4    5 ar  
     9    4   39 1   
    10    5    6 ar  
    11    5   40 1   
    12    6    7 1   
    13    7    8 1   
    14    7    9 2   
    15    8   41 1   
    16    8   42 1   
    17    9   43 1   
    18   10   11 1   
    19   10   44 1   
    20   10   45 1   
    21   11   12 1   
    22   11   23 1   
    23   11   46 1   
    24   12   13 2   
    25   12   14 1   
    26   14   15 1   
    27   14   18 1   
    28   15   16 1   
    29   15   20 1   
    30   15   47 1   
    31   16   19 1   
    32   16   48 1   
    33   16   49 1   
    34   17   18 1   
    35   17   19 1   
    36   17   50 1   
    37   17   51 1   
    38   18   52 1   
    39   18   53 1   
    40   19   54 1   
    41   19   55 1   
    42   20   21 1   
    43   20   22 1   
    44   23   24 1   
    45   23   56 1   
    46   24   25 2   
    47   24   26 2   
    48   24   27 1   
    49   27   28 ar  
    50   27   32 ar  
    51   28   29 ar  
    52   28   57 1   
    53   29   31 ar  
    54   29   58 1   
    55   30   31 ar  
    56   30   32 ar  
    57   30   36 ar  
    58   31   33 ar  
    59   32   59 1   
    60   33   34 ar  
    61   33   60 1   
    62   34   35 ar  
    63   34   61 1   
    64   35   36 ar  
    65   35   62 1   
    66   36   63 1   
@<TRIPOS>SUBSTRUCTURE
     1 FD1         1 TEMP              0 ****  ****    0 ROOT
