@<TRIPOS>MOLECULE
FD1
   65    68     1     0     0
SMALL
bcc


@<TRIPOS>ATOM
      1 C65        -0.7280    0.2300    0.9280 ca        1 FD1     -0.113300
      2 C66         0.3570   -0.1040    0.1100 ca        1 FD1     -0.101000
      3 C64        -0.4960    0.5120    2.2810 ca        1 FD1     -0.065000
      4 C63         0.8060    0.5250    2.7830 ca        1 FD1     -0.116000
      5 C62         1.8950    0.3260    1.9340 ca        1 FD1     -0.080000
      6 C61         1.6640    0.0390    0.5850 ca        1 FD1     -0.225900
      7 C25         2.7890   -0.0260   -0.3760 ce        1 FD1      0.593800
      8 N43         2.5320    0.7730   -1.6160 n4        1 FD1     -0.816600
      9 N54         3.9160   -0.6330   -0.2870 n2        1 FD1     -0.727100
     10 C34        -2.0990    0.3230    0.3500 c3        1 FD1     -0.049100
     11 C31        -2.0860    0.9980   -1.0330 c3        1 FD1      0.050500
     12 C35        -3.2320    0.3990   -1.8940 c         1 FD1      0.622100
     13 O36        -4.3120    0.1960   -1.3010 o         1 FD1     -0.593100
     14 N81        -3.1030    0.2550   -3.2580 n         1 FD1     -0.405800
     15 C71        -1.8620    0.2240   -4.0330 c3        1 FD1     -0.020300
     16 C72        -1.3960   -1.2110   -4.3190 c3        1 FD1     -0.085400
     17 C74        -3.8000   -1.9190   -4.2850 c3        1 FD1     -0.103400
     18 C75        -4.1700   -0.4750   -3.9490 c3        1 FD1      0.064000
     19 C40        -2.4820   -1.9950   -5.0260 c3        1 FD1     -0.086400
     20 C91        -0.6940    1.0720   -3.5010 c         1 FD1      0.934600
     21 O92         0.3950    0.5110   -3.1730 o         1 FD1     -0.883800
     22 O93        -0.8500    2.3260   -3.3660 o         1 FD1     -0.883800
     23 N29        -2.2380    2.4800   -1.0280 n4        1 FD1     -0.696900
     24 S12        -0.7970    3.5120   -0.4290 sy        1 FD1      1.509200
     25 O32         0.3660    2.8270   -0.7620 o         1 FD1     -0.617300
     26 O33        -1.0940    3.6250    0.9250 o         1 FD1     -0.617300
     27 C2         -1.0970    4.8420   -1.2700 ca        1 FD1     -0.545500
     28 C3         -1.8410    5.8960   -0.6440 ca        1 FD1     -0.066000
     29 C4         -2.0860    7.0750   -1.2840 ca        1 FD1     -0.114000
     30 C9         -0.8720    6.2640   -3.2530 ca        1 FD1     -0.101000
     31 C10        -1.6120    7.2960   -2.6120 ca        1 FD1      0.042000
     32 C1         -0.6270    5.0550   -2.5660 ca        1 FD1      0.118000
     33 C5         -1.8560    8.5060   -3.3050 ca        1 FD1     -0.145000
     34 C6         -0.6520    7.6520   -5.2300 ca        1 FD1     -0.129000
     35 C7         -1.3840    8.6780   -4.5870 ca        1 FD1     -0.058000
     36 C8         -0.3990    6.4670   -4.5800 ca        1 FD1     -0.077000
     37 H661        0.1940   -0.4640   -0.9240 ha        1 FD1      0.167000
     38 H641       -1.3430    0.7420    2.9490 ha        1 FD1      0.161000
     39 H631        0.9780    0.7250    3.8530 ha        1 FD1      0.163000
     40 H621        2.9210    0.4110    2.3240 ha        1 FD1      0.150000
     41 H431        2.4150    0.1460   -2.4300 hn        1 FD1      0.487800
     42 H432        3.2960    1.4240   -1.7980 hn        1 FD1      0.487800
     43 H541        4.0730   -1.1770    0.5360 hn        1 FD1      0.464400
     44 H341       -2.7960    0.8520    1.0520 hc        1 FD1      0.101200
     45 H342       -2.5160   -0.7160    0.2140 hc        1 FD1      0.101200
     46 H311       -1.0820    0.7910   -1.5060 hx        1 FD1      0.139700
     47 H711       -2.1350    0.7040   -5.0270 h1        1 FD1      0.087700
     48 H721       -1.1050   -1.7150   -3.3620 hc        1 FD1      0.059200
     49 H722       -0.4770   -1.1540   -4.9580 hc        1 FD1      0.059200
     50 H741       -4.6190   -2.3510   -4.9160 hc        1 FD1      0.059200
     51 H742       -3.7430   -2.5250   -3.3440 hc        1 FD1      0.059200
     52 H751       -4.3830    0.0900   -4.9010 h1        1 FD1      0.077200
     53 H752       -5.1040   -0.4650   -3.3170 h1        1 FD1      0.077200
     54 H401       -2.1670   -3.0670   -5.1250 hc        1 FD1      0.052700
     55 H402       -2.6150   -1.5890   -6.0650 hc        1 FD1      0.052700
     56 H291       -2.3870    2.7410   -2.0240 hn        1 FD1      0.472300
     57 H31        -2.1990    5.7410    0.3910 ha        1 FD1      0.160000
     58 H41        -2.6540    7.8790   -0.7880 ha        1 FD1      0.162000
     59 H11        -0.0540    4.2550   -3.0860 ha        1 FD1      0.202000
     60 H51        -2.4270    9.3030   -2.8030 ha        1 FD1      0.156000
     61 H61        -0.2900    7.8140   -6.2580 ha        1 FD1      0.157000
     62 H71        -1.5730    9.6200   -5.1290 ha        1 FD1      0.157000
     63 H81         0.1630    5.6580   -5.0730 ha        1 FD1      0.155000
     64 H433        1.6340    1.2980   -1.5340 hn        1 FD1      0.487800
     65 H292       -3.0830    2.7110   -0.5060 hn        1 FD1      0.472300
@<TRIPOS>BOND
     1    1    2 ar  
     2    1    3 ar  
     3    1   10 1   
     4    2    6 ar  
     5    2   37 1   
     6    3    4 ar  
     7    3   38 1   
     8    4    5 ar  
     9    4   39 1   
    10    5    6 ar  
    11    5   40 1   
    12    6    7 1   
    13    7    8 1   
    14    7    9 2   
    15    8   41 1   
    16    8   42 1   
    17    8   64 1   
    18    9   43 1   
    19   10   11 1   
    20   10   44 1   
    21   10   45 1   
    22   11   12 1   
    23   11   23 1   
    24   11   46 1   
    25   12   13 2   
    26   12   14 1   
    27   14   15 1   
    28   14   18 1   
    29   15   16 1   
    30   15   20 1   
    31   15   47 1   
    32   16   19 1   
    33   16   48 1   
    34   16   49 1   
    35   17   18 1   
    36   17   19 1   
    37   17   50 1   
    38   17   51 1   
    39   18   52 1   
    40   18   53 1   
    41   19   54 1   
    42   19   55 1   
    43   20   21 1   
    44   20   22 1   
    45   23   24 1   
    46   23   56 1   
    47   23   65 1   
    48   24   25 2   
    49   24   26 2   
    50   24   27 1   
    51   27   28 ar  
    52   27   32 ar  
    53   28   29 ar  
    54   28   57 1   
    55   29   31 ar  
    56   29   58 1   
    57   30   31 ar  
    58   30   32 ar  
    59   30   36 ar  
    60   31   33 ar  
    61   32   59 1   
    62   33   35 ar  
    63   33   60 1   
    64   34   35 ar  
    65   34   36 ar  
    66   34   61 1   
    67   35   62 1   
    68   36   63 1   
@<TRIPOS>SUBSTRUCTURE
     1 FD1         1 TEMP              0 ****  ****    0 ROOT
