@<TRIPOS>MOLECULE
FD1
   63    57     1     0     0
SMALL
bcc


@<TRIPOS>ATOM
      1 C65         2.2150   -1.7010    1.0860 c1        1 FD1     -0.071000
      2 C66         3.5200   -2.1000    0.7130 c1        1 FD1     -0.096000
      3 C64         1.9440   -1.3730    2.3990 c1        1 FD1     -0.103000
      4 C63         2.9680   -1.4360    3.3660 c1        1 FD1     -0.132000
      5 C62         4.2570   -1.8310    2.9940 c1        1 FD1     -0.132000
      6 C61         4.5280   -2.1610    1.6670 c1        1 FD1     -0.124000
      7 C25         5.9220   -2.6370    1.2690 c2        1 FD1      0.123000
      8 N43         6.1970   -4.0330    1.1650 n3        1 FD1     -0.336000
      9 N54         6.8980   -1.7340    1.0170 n1        1 FD1     -0.321000
     10 C34         1.0680   -1.7350    0.0380 c3        1 FD1     -0.138000
     11 C31         0.9340   -0.3240   -0.6310 c3        1 FD1      0.061000
     12 C35         0.5170   -0.4900   -2.1020 c2        1 FD1      0.280000
     13 O36         1.1380    0.1360   -3.0090 o         1 FD1     -0.312000
     14 N81        -0.7090   -1.2470   -2.4360 n         1 FD1     -0.265000
     15 C71        -1.2670   -1.3140   -3.8120 c3        1 FD1     -0.074000
     16 C72        -1.4960   -2.7910   -4.1790 c3        1 FD1     -0.177000
     17 C74        -1.7150   -3.3900   -1.8240 c3        1 FD1     -0.190000
     18 C75        -1.4760   -1.9890   -1.4360 c3        1 FD1     -0.064000
     19 C40        -2.2760   -3.5250   -3.1530 c3        1 FD1     -0.152000
     20 C91        -0.4060   -0.5850   -4.8320 c2        1 FD1      0.331000
     21 O92        -0.8510    0.4520   -5.4040 o         1 FD1     -0.573000
     22 O93         0.6630   -1.0650   -5.1840 o         1 FD1     -0.573000
     23 N29        -0.0130    0.4130    0.0320 n3        1 FD1     -0.900000
     24 S12         0.4010    1.8980    0.6890 s4        1 FD1      2.071800
     25 O32         1.4080    1.7590    1.6910 o         1 FD1     -0.564900
     26 O33         1.0920    2.7350   -0.2970 o         1 FD1     -0.564900
     27 C2         -1.0400    2.7170    1.3390 c1        1 FD1     -0.834000
     28 C3         -1.6590    2.2420    2.4730 c2        1 FD1     -0.042000
     29 C4         -2.7780    2.9280    3.0110 c1        1 FD1     -0.161000
     30 C9         -2.6240    4.5560    1.2550 c1        1 FD1     -0.034000
     31 C10        -3.2470    4.0780    2.3960 c1        1 FD1     -0.034000
     32 C1         -1.5110    3.8710    0.7210 c1        1 FD1      0.055000
     33 C5         -4.3240    4.7760    2.9450 c1        1 FD1     -0.110000
     34 C6         -4.7790    5.9720    2.3350 c1        1 FD1     -0.132000
     35 C7         -4.1470    6.4560    1.1790 c1        1 FD1     -0.132000
     36 C8         -3.0870    5.7700    0.6380 c1        1 FD1     -0.110000
     37 H661        3.6900   -2.4550   -0.2230 ha        1 FD1      0.142000
     38 H641        1.0270   -1.0920    2.6620 ha        1 FD1      0.163000
     39 H631        2.7750   -1.2020    4.3040 ha        1 FD1      0.126000
     40 H621        4.9960   -1.8770    3.6910 ha        1 FD1      0.126000
     41 H431        5.6210   -4.6380    1.5260 hn        1 FD1      0.188500
     42 H432        6.9590   -4.3240    0.7300 hn        1 FD1      0.188500
     43 H541        6.7170   -0.8100    1.0870 DU        1 FD1      0.153000
     44 H341        1.2770   -2.4090   -0.6530 hc        1 FD1      0.107500
     45 H342        0.1910   -1.9800    0.4960 hc        1 FD1      0.107500
     46 H311        1.7750    0.1290   -0.5880 h1        1 FD1      0.129000
     47 H711       -2.1280   -0.7880   -3.8760 h1        1 FD1      0.094000
     48 H721       -1.9780   -2.8350   -5.0320 hc        1 FD1      0.104000
     49 H722       -0.6430   -3.2200   -4.2840 hc        1 FD1      0.104000
     50 H741       -0.8720   -3.8730   -1.7900 hc        1 FD1      0.081000
     51 H742       -2.3280   -3.7870   -1.1880 hc        1 FD1      0.081000
     52 H751       -0.9960   -1.9750   -0.6030 h1        1 FD1      0.078500
     53 H752       -2.3780   -1.5270   -1.3030 h1        1 FD1      0.078500
     54 H401       -3.1260   -3.2020   -3.1440 hc        1 FD1      0.063500
     55 H402       -2.2990   -4.4560   -3.3860 hc        1 FD1      0.063500
     56 H291       -0.8550    0.1510    0.0280 hn        1 FD1      0.304000
     57 H31        -1.4720    1.5290    3.1240 ha        1 FD1      0.143000
     58 H41        -3.1430    2.7490    3.9240 ha        1 FD1      0.122000
     59 H11        -1.0300    4.1030   -0.1110 ha        1 FD1      0.213000
     60 H51        -5.0570    4.7320    3.5710 ha        1 FD1      0.161000
     61 H61        -5.5790    6.4240    2.5460 ha        1 FD1      0.126000
     62 H71        -4.5660    7.1770    0.5980 ha        1 FD1      0.126000
     63 H81        -2.8400    6.1570   -0.2250 ha        1 FD1      0.161000
@<TRIPOS>BOND
     1    1    3 1   
     2    1   10 1   
     3    2    6 1   
     4    2   37 1   
     5    3   38 1   
     6    4    5 1   
     7    4   39 1   
     8    5   40 1   
     9    6    7 1   
    10    7    8 1   
    11    7    9 1   
    12    8   41 1   
    13    8   42 1   
    14   10   11 1   
    15   10   44 1   
    16   10   45 1   
    17   11   12 1   
    18   11   23 1   
    19   11   46 1   
    20   12   13 1   
    21   12   14 1   
    22   14   15 1   
    23   14   18 1   
    24   15   16 1   
    25   15   20 1   
    26   15   47 1   
    27   16   19 1   
    28   16   48 1   
    29   16   49 1   
    30   17   18 1   
    31   17   19 1   
    32   17   50 1   
    33   17   51 1   
    34   18   52 1   
    35   18   53 1   
    36   19   54 1   
    37   19   55 1   
    38   20   21 1   
    39   20   22 1   
    40   23   24 1   
    41   23   56 1   
    42   24   25 1   
    43   24   26 1   
    44   27   28 1   
    45   27   32 1   
    46   28   29 1   
    47   28   57 1   
    48   29   58 1   
    49   30   31 1   
    50   30   36 1   
    51   31   33 1   
    52   32   59 1   
    53   33   60 1   
    54   34   35 1   
    55   34   61 1   
    56   35   62 1   
    57   36   63 1   
@<TRIPOS>SUBSTRUCTURE
     1 FD1         1 TEMP              0 ****  ****    0 ROOT
