@<TRIPOS>MOLECULE
FD2
   67    61     1     0     0
SMALL
bcc


@<TRIPOS>ATOM
      1 C65         3.1660    1.7180    0.6550 c1        1 FD2     -0.091000
      2 C66         4.5600    1.6940    0.4850 c1        1 FD2     -0.074000
      3 C64         2.6230    1.5290    1.9100 c1        1 FD2     -0.119000
      4 C63         3.4570    1.3150    3.0050 c1        1 FD2     -0.120750
      5 C62         4.8430    1.2910    2.8340 c1        1 FD2     -0.120750
      6 C61         5.3890    1.4800    1.5750 c1        1 FD2     -0.119000
      7 C25         6.9040    1.6290    1.4180 c2        1 FD2      0.126000
      8 N43         7.7110    0.4960    1.3300 n3        1 FD2     -0.342000
      9 N54         7.4510    2.8400    1.3630 n1        1 FD2     -0.314000
     10 C34         2.2520    2.1640   -0.5260 c3        1 FD2     -0.129000
     11 C31         1.0090    1.2510   -0.5910 c3        1 FD2      0.041000
     12 C35         1.4450   -0.1690   -0.7150 c2        1 FD2      0.283000
     13 O36         2.5920   -0.4760   -0.4560 o         1 FD2     -0.363000
     14 N81         0.5280   -1.1700   -1.2670 n         1 FD2     -0.307000
     15 C71         0.9240   -2.5240   -1.5240 c3        1 FD2     -0.045500
     16 C72         0.5920   -2.9770   -2.9420 c3        1 FD2     -0.180000
     17 C74        -1.2210   -1.2810   -3.0130 c3        1 FD2     -0.180000
     18 C75        -0.8490   -0.8690   -1.5960 c3        1 FD2     -0.045500
     19 C40        -0.8760   -2.7340   -3.3170 c3        1 FD2     -0.098000
     20 C48        -1.1930   -3.1290   -4.7960 c2        1 FD2      0.301000
     21 O49        -1.3960   -2.2590   -5.6280 o         1 FD2     -0.345000
     22 O55        -1.4150   -4.4620   -5.1210 os        1 FD2     -0.279000
     23 C99        -2.1620   -4.6440   -6.2770 c3        1 FD2     -0.065000
     24 N29         0.2320    1.4130    0.6050 n3        1 FD2     -0.885000
     25 S12        -1.0260    2.5130    0.6390 s4        1 FD2      2.079800
     26 O32        -0.5860    3.8040    1.1530 o         1 FD2     -0.549900
     27 O33        -1.4470    2.8710   -0.6970 o         1 FD2     -0.549900
     28 C2         -2.4130    1.8530    1.6130 c1        1 FD2     -0.832000
     29 C3         -2.2520    2.2490    2.9320 c2        1 FD2     -0.048000
     30 C4         -3.2080    1.8920    3.8950 c1        1 FD2     -0.133000
     31 C9         -4.4990    0.7330    2.2120 c1        1 FD2     -0.030500
     32 C10        -4.3390    1.1260    3.5210 c1        1 FD2     -0.030500
     33 C1         -3.5300    1.0960    1.2400 c1        1 FD2      0.037000
     34 C5         -5.2830    0.7330    4.4980 c1        1 FD2     -0.116000
     35 C6         -6.3700   -0.0490    4.1360 c1        1 FD2     -0.120750
     36 C7         -6.5330   -0.4470    2.8110 c1        1 FD2     -0.120750
     37 C8         -5.6060   -0.0620    1.8480 c1        1 FD2     -0.116000
     38 H661        4.9490    1.8290   -0.4110 ha        1 FD2      0.169000
     39 H641        1.6300    1.5460    2.0330 ha        1 FD2      0.149000
     40 H631        3.0800    1.1840    3.8740 ha        1 FD2      0.138750
     41 H621        5.4320    1.1400    3.6060 ha        1 FD2      0.138750
     42 H431        8.5900    0.5780    1.0970 hn        1 FD2      0.201000
     43 H432        7.3500   -0.3290    1.4550 hn        1 FD2      0.201000
     44 H541        6.9210    3.5850    1.4190 DU        1 FD2      0.147000
     45 H341        1.9740    3.0730   -0.3920 hc        1 FD2      0.107500
     46 H342        2.7430    2.0990   -1.3510 hc        1 FD2      0.107500
     47 H311        0.4550    1.4990   -1.3810 h1        1 FD2      0.124000
     48 H711        1.8880   -2.6040   -1.3840 h1        1 FD2      0.108750
     49 H712        0.4660   -3.1100   -0.8930 h1        1 FD2      0.108750
     50 H721        1.1640   -2.4900   -3.5730 hc        1 FD2      0.107000
     51 H722        0.7790   -3.9290   -3.0190 hc        1 FD2      0.107000
     52 H741       -2.1830   -1.1540   -3.1350 hc        1 FD2      0.107000
     53 H742       -0.7490   -0.7120   -3.6360 hc        1 FD2      0.107000
     54 H751       -1.4470   -1.3510   -0.9530 h1        1 FD2      0.108750
     55 H752       -0.9950    0.1170   -1.4970 h1        1 FD2      0.108750
     56 H401       -1.4650   -3.3430   -2.8280 hc        1 FD2      0.121000
     57 H991       -2.4290   -5.5590   -6.3450 h1        1 FD2      0.091333
     58 H992       -1.6290   -4.4080   -7.0420 h1        1 FD2      0.091333
     59 H993       -2.9700   -4.0640   -6.2440 h1        1 FD2      0.091333
     60 H291        0.3530    0.8300    1.3160 hn        1 FD2      0.255000
     61 H31        -1.4480    2.7540    3.2000 ha        1 FD2      0.160000
     62 H41        -3.0940    2.1690    4.8150 ha        1 FD2      0.144000
     63 H11        -3.6510    0.8350    0.3150 ha        1 FD2      0.147000
     64 H51        -5.1660    1.0210    5.4600 ha        1 FD2      0.139000
     65 H61        -7.0260   -0.3220    4.8140 ha        1 FD2      0.138750
     66 H71        -7.2740   -0.9790    2.5660 ha        1 FD2      0.138750
     67 H81        -5.7240   -0.3470    0.9030 ha        1 FD2      0.139000
@<TRIPOS>BOND
     1    1    3 1   
     2    1   10 1   
     3    2    6 1   
     4    2   38 1   
     5    3   39 1   
     6    4    5 1   
     7    4   40 1   
     8    5   41 1   
     9    6    7 1   
    10    7    8 1   
    11    7    9 1   
    12    8   42 1   
    13    8   43 1   
    14   10   11 1   
    15   10   45 1   
    16   10   46 1   
    17   11   12 1   
    18   11   24 1   
    19   11   47 1   
    20   12   13 1   
    21   12   14 1   
    22   14   15 1   
    23   14   18 1   
    24   15   16 1   
    25   15   48 1   
    26   15   49 1   
    27   16   19 1   
    28   16   50 1   
    29   16   51 1   
    30   17   18 1   
    31   17   19 1   
    32   17   52 1   
    33   17   53 1   
    34   18   54 1   
    35   18   55 1   
    36   19   20 1   
    37   19   56 1   
    38   20   21 1   
    39   20   22 1   
    40   22   23 1   
    41   23   57 1   
    42   23   58 1   
    43   23   59 1   
    44   24   25 1   
    45   24   60 1   
    46   25   26 1   
    47   25   27 1   
    48   28   29 1   
    49   28   33 1   
    50   29   30 1   
    51   29   61 1   
    52   30   62 1   
    53   31   32 1   
    54   31   37 1   
    55   32   34 1   
    56   33   63 1   
    57   34   64 1   
    58   35   36 1   
    59   35   65 1   
    60   36   66 1   
    61   37   67 1   
@<TRIPOS>SUBSTRUCTURE
     1 FD2         1 TEMP              0 ****  ****    0 ROOT
