@<TRIPOS>MOLECULE
FD2
   69    71     1     0     0
SMALL
bcc


@<TRIPOS>ATOM
      1 C65        -0.1300   -0.0540    0.3080 ca        1 FD2     -0.086300
      2 C66         1.0100   -0.8360    0.5340 ca        1 FD2     -0.081000
      3 C64        -0.8460    0.4430    1.4050 ca        1 FD2     -0.090000
      4 C63        -0.4290    0.1720    2.7090 ca        1 FD2     -0.098000
      5 C62         0.6980   -0.6170    2.9350 ca        1 FD2     -0.095000
      6 C61         1.4140   -1.1220    1.8440 ca        1 FD2     -0.244900
      7 C25         2.5470   -2.0490    2.0560 ce        1 FD2      0.580800
      8 N43         3.6480   -1.4430    2.8870 nz        1 FD2     -0.822600
      9 N54         2.7350   -3.2490    1.6620 n2        1 FD2     -0.696100
     10 C34        -0.6350    0.1560   -1.0760 c3        1 FD2     -0.071100
     11 C31        -0.1560    1.4560   -1.7420 c3        1 FD2      0.076500
     12 C35        -0.8230    1.4770   -3.1470 c         1 FD2      0.624100
     13 O36        -1.9480    2.0090   -3.2400 o         1 FD2     -0.585100
     14 N81        -0.2360    0.8080   -4.2130 n         1 FD2     -0.408800
     15 C71         1.2010    0.6180   -4.3040 c3        1 FD2      0.064000
     16 C72         1.9280    1.8040   -4.9360 c3        1 FD2     -0.109400
     17 C74        -0.2160    2.2330   -6.2560 c3        1 FD2     -0.109400
     18 C75        -0.8220    1.0320   -5.5340 c3        1 FD2      0.064000
     19 C40         1.3080    2.1960   -6.2730 c3        1 FD2     -0.114700
     20 C48         1.8100    3.5740   -6.6370 c         1 FD2      0.649100
     21 O49         1.5870    4.6310   -6.0310 o         1 FD2     -0.605000
     22 O55         2.5790    3.5970   -7.7510 os        1 FD2     -0.409900
     23 C99         3.0920    4.8670   -8.1730 c3        1 FD2      0.121700
     24 N29        -0.4800    2.6880   -1.0130 n8        1 FD2     -1.003800
     25 S12         1.1020    4.4140   -1.2750 s4        1 FD2      1.682300
     26 O32         1.3020    4.4430    0.0740 o         1 FD2     -0.462900
     27 O33         1.9210    3.6640   -2.0700 o         1 FD2     -0.462900
     28 C2          0.1940    5.4690   -1.9280 ca        1 FD2     -0.646500
     29 C3         -0.6210    6.3200   -1.0940 ca        1 FD2     -0.060000
     30 C4         -1.4100    7.2970   -1.6170 ca        1 FD2     -0.102000
     31 C9         -0.6540    6.7060   -3.8760 ca        1 FD2     -0.105000
     32 C10        -1.4570    7.5270   -3.0260 ca        1 FD2      0.066000
     33 C1          0.1400    5.6970   -3.3180 ca        1 FD2      0.132000
     34 C5         -2.2590    8.5380   -3.5970 ca        1 FD2     -0.154000
     35 C6         -2.2600    8.7340   -4.9650 ca        1 FD2     -0.020000
     36 C7         -1.4610    7.9290   -5.8110 ca        1 FD2     -0.131000
     37 C8         -0.6720    6.9340   -5.2850 ca        1 FD2     -0.061000
     38 H661        1.5710   -1.2450   -0.3220 ha        1 FD2      0.151000
     39 H641       -1.7710    1.0240    1.2440 ha        1 FD2      0.160000
     40 H631       -1.0070    0.5620    3.5650 ha        1 FD2      0.176000
     41 H621        0.9830   -0.8630    3.9700 ha        1 FD2      0.147000
     42 H431        3.2420   -1.1060    3.7660 hn        1 FD2      0.474133
     43 H432        4.0480   -0.6530    2.3730 hn        1 FD2      0.474133
     44 H541        2.0260   -3.7020    1.1220 hn        1 FD2      0.494400
     45 H341       -1.7620    0.1440   -1.0670 hc        1 FD2      0.096700
     46 H342       -0.3040   -0.6960   -1.7330 hc        1 FD2      0.096700
     47 H311        0.9710    1.4430   -1.8270 h1        1 FD2      0.095700
     48 H711        1.3630   -0.2990   -4.9450 h1        1 FD2      0.078450
     49 H712        1.6410    0.3980   -3.2950 h1        1 FD2      0.078450
     50 H721        3.0020    1.5210   -5.0930 hc        1 FD2      0.071950
     51 H722        1.9090    2.6810   -4.2330 hc        1 FD2      0.071950
     52 H741       -0.5620    3.1800   -5.7610 hc        1 FD2      0.071950
     53 H742       -0.6000    2.2420   -7.3100 hc        1 FD2      0.071950
     54 H751       -0.6450    0.0940   -6.1330 h1        1 FD2      0.078450
     55 H752       -1.9340    1.1820   -5.4290 h1        1 FD2      0.078450
     56 H401        1.6470    1.4620   -7.0600 hc        1 FD2      0.102700
     57 H991        3.6800    4.6140   -9.0910 h1        1 FD2      0.063367
     58 H992        2.2470    5.5570   -8.4040 h1        1 FD2      0.063367
     59 H993        3.7400    5.2980   -7.3730 h1        1 FD2      0.063367
     60 H291       -0.5030    2.5000   -0.0220 hn        1 FD2      0.411800
     61 H31        -0.5760    6.1670   -0.0000 ha        1 FD2      0.159000
     62 H41        -2.0250    7.9380   -0.9600 ha        1 FD2      0.174000
     63 H11         0.7540    5.0690   -4.0050 ha        1 FD2      0.194000
     64 H51        -2.8790    9.1700   -2.9400 ha        1 FD2      0.167000
     65 H61        -2.8860    9.5260   -5.4120 ha        1 FD2      0.170000
     66 H71        -1.4780    8.1140   -6.8990 ha        1 FD2      0.169000
     67 H81        -0.0350    6.3020   -5.9310 ha        1 FD2      0.178000
     68 H433        4.3920   -2.1260    3.0940 hn        1 FD2      0.474133
     69 H292       -1.3920    3.0260   -1.2960 hn        1 FD2      0.411800
@<TRIPOS>BOND
     1    1    2 ar  
     2    1    3 ar  
     3    1   10 1   
     4    2    6 ar  
     5    2   38 1   
     6    3    4 ar  
     7    3   39 1   
     8    4    5 ar  
     9    4   40 1   
    10    5    6 ar  
    11    5   41 1   
    12    6    7 1   
    13    7    8 1   
    14    7    9 2   
    15    8   42 1   
    16    8   43 1   
    17    8   68 1   
    18    9   44 1   
    19   10   11 1   
    20   10   45 1   
    21   10   46 1   
    22   11   12 1   
    23   11   24 1   
    24   11   47 1   
    25   12   13 2   
    26   12   14 1   
    27   14   15 1   
    28   14   18 1   
    29   15   16 1   
    30   15   48 1   
    31   15   49 1   
    32   16   19 1   
    33   16   50 1   
    34   16   51 1   
    35   17   18 1   
    36   17   19 1   
    37   17   52 1   
    38   17   53 1   
    39   18   54 1   
    40   18   55 1   
    41   19   20 1   
    42   19   56 1   
    43   20   21 2   
    44   20   22 1   
    45   22   23 1   
    46   23   57 1   
    47   23   58 1   
    48   23   59 1   
    49   24   60 1   
    50   24   69 1   
    51   25   26 1   
    52   25   27 1   
    53   25   28 1   
    54   28   29 ar  
    55   28   33 ar  
    56   29   30 ar  
    57   29   61 1   
    58   30   32 ar  
    59   30   62 1   
    60   31   32 ar  
    61   31   33 ar  
    62   31   37 ar  
    63   32   34 ar  
    64   33   63 1   
    65   34   35 ar  
    66   34   64 1   
    67   35   36 ar  
    68   35   65 1   
    69   36   37 ar  
    70   36   66 1   
    71   37   67 1   
@<TRIPOS>SUBSTRUCTURE
     1 FD2         1 TEMP              0 ****  ****    0 ROOT
