@<TRIPOS>MOLECULE
FD2
   69    71     1     0     0
SMALL
bcc


@<TRIPOS>ATOM
      1 C65        -0.1610   -0.0480    0.3050 ca        1 FD2     -0.086300
      2 C66         0.9690   -0.8440    0.5300 ca        1 FD2     -0.081000
      3 C64        -0.8710    0.4580    1.4040 ca        1 FD2     -0.090000
      4 C63        -0.4570    0.1800    2.7070 ca        1 FD2     -0.098000
      5 C62         0.6610   -0.6220    2.9320 ca        1 FD2     -0.095000
      6 C61         1.3700   -1.1360    1.8400 ca        1 FD2     -0.244900
      7 C25         2.4930   -2.0770    2.0500 ce        1 FD2      0.580800
      8 N43         3.6010   -1.4850    2.8810 n4        1 FD2     -0.822600
      9 N54         2.6650   -3.2780    1.6550 n2        1 FD2     -0.696100
     10 C34        -0.6650    0.1690   -1.0780 c3        1 FD2     -0.071100
     11 C31        -0.1710    1.4640   -1.7440 c3        1 FD2      0.076500
     12 C35        -0.8370    1.4940   -3.1490 c         1 FD2      0.624100
     13 O36        -1.9560    2.0390   -3.2410 o         1 FD2     -0.585100
     14 N81        -0.2580    0.8180   -4.2150 n         1 FD2     -0.408800
     15 C71         1.1770    0.6100   -4.3060 c3        1 FD2      0.064000
     16 C72         1.9180    1.7890   -4.9370 c3        1 FD2     -0.109400
     17 C74        -0.2200    2.2440   -6.2570 c3        1 FD2     -0.109400
     18 C75        -0.8410    1.0500   -5.5360 c3        1 FD2      0.064000
     19 C40         1.3040    2.1880   -6.2740 c3        1 FD2     -0.114700
     20 C48         1.8220    3.5600   -6.6360 c         1 FD2      0.649100
     21 O49         1.6120    4.6200   -6.0310 o         1 FD2     -0.605000
     22 O55         2.5920    3.5750   -7.7500 os        1 FD2     -0.409900
     23 C99         3.1210    4.8390   -8.1720 c3        1 FD2      0.121700
     24 N29        -0.4800    2.6990   -1.0140 n3        1 FD2     -1.003800
     25 S12         1.1220    4.4070   -1.2750 s4        1 FD2      1.682300
     26 O32         1.3220    4.4330    0.0750 o         1 FD2     -0.462900
     27 O33         1.9320    3.6480   -2.0690 o         1 FD2     -0.462900
     28 C2          0.2260    5.4730   -1.9270 ca        1 FD2     -0.646500
     29 C3         -0.5790    6.3330   -1.0930 ca        1 FD2     -0.060000
     30 C4         -1.3570    7.3190   -1.6160 ca        1 FD2     -0.102000
     31 C9         -0.6070    6.7200   -3.8760 ca        1 FD2     -0.105000
     32 C10        -1.4000    7.5500   -3.0260 ca        1 FD2      0.066000
     33 C1          0.1760    5.7010   -3.3170 ca        1 FD2      0.132000
     34 C5         -2.1890    8.5710   -3.5970 ca        1 FD2     -0.154000
     35 C6         -2.1880    8.7670   -4.9650 ca        1 FD2     -0.020000
     36 C7         -1.3980    7.9530   -5.8110 ca        1 FD2     -0.131000
     37 C8         -0.6210    6.9490   -5.2850 ca        1 FD2     -0.061000
     38 H661        1.5240   -1.2580   -0.3270 ha        1 FD2      0.151000
     39 H641       -1.7890    1.0490    1.2430 ha        1 FD2      0.160000
     40 H631       -1.0290    0.5760    3.5630 ha        1 FD2      0.176000
     41 H621        0.9440   -0.8730    3.9660 ha        1 FD2      0.147000
     42 H431        4.3370   -2.1760    3.0870 hn        1 FD2      0.474133
     43 H432        3.2000   -1.1430    3.7610 hn        1 FD2      0.474133
     44 H541        1.9500   -3.7220    1.1150 hn        1 FD2      0.494400
     45 H341       -0.3450   -0.6860   -1.7360 hc        1 FD2      0.096700
     46 H342       -1.7920    0.1710   -1.0680 hc        1 FD2      0.096700
     47 H311        0.9560    1.4380   -1.8290 h1        1 FD2      0.095700
     48 H711        1.3280   -0.3070   -4.9470 h1        1 FD2      0.078450
     49 H712        1.6130    0.3850   -3.2960 h1        1 FD2      0.078450
     50 H721        1.9090    2.6650   -4.2340 hc        1 FD2      0.071950
     51 H722        2.9880    1.4930   -5.0930 hc        1 FD2      0.071950
     52 H741       -0.5550    3.1950   -5.7610 hc        1 FD2      0.071950
     53 H742       -0.6040    2.2580   -7.3110 hc        1 FD2      0.071950
     54 H751       -1.9510    1.2130   -5.4310 h1        1 FD2      0.078450
     55 H752       -0.6750    0.1100   -6.1350 h1        1 FD2      0.078450
     56 H401        1.6330    1.4510   -7.0610 hc        1 FD2      0.102700
     57 H991        2.2830    5.5390   -8.4020 h1        1 FD2      0.063367
     58 H992        3.7730    5.2610   -7.3710 h1        1 FD2      0.063367
     59 H993        3.7060    4.5790   -9.0890 h1        1 FD2      0.063367
     60 H291       -1.3880    3.0480   -1.2960 hn        1 FD2      0.411800
     61 H31        -0.5360    6.1790    0.0000 ha        1 FD2      0.159000
     62 H41        -1.9640    7.9670   -0.9600 ha        1 FD2      0.174000
     63 H11         0.7830    5.0670   -4.0050 ha        1 FD2      0.194000
     64 H51        -2.8030    9.2090   -2.9390 ha        1 FD2      0.168000
     65 H61        -2.8040    9.5670   -5.4110 ha        1 FD2      0.170000
     66 H71        -1.4130    8.1390   -6.8980 ha        1 FD2      0.169000
     67 H81         0.0090    6.3100   -5.9300 ha        1 FD2      0.178000
     68 H433        4.0110   -0.6980    2.3670 hn        1 FD2      0.474133
     69 H292       -0.5050    2.5110   -0.0230 hn        1 FD2      0.411800
@<TRIPOS>BOND
     1    1    2 ar  
     2    1    3 ar  
     3    1   10 1   
     4    2    6 ar  
     5    2   38 1   
     6    3    4 ar  
     7    3   39 1   
     8    4    5 ar  
     9    4   40 1   
    10    5    6 ar  
    11    5   41 1   
    12    6    7 1   
    13    7    8 1   
    14    7    9 2   
    15    8   42 1   
    16    8   43 1   
    17    8   68 1   
    18    9   44 1   
    19   10   11 1   
    20   10   45 1   
    21   10   46 1   
    22   11   12 1   
    23   11   24 1   
    24   11   47 1   
    25   12   13 2   
    26   12   14 1   
    27   14   15 1   
    28   14   18 1   
    29   15   16 1   
    30   15   48 1   
    31   15   49 1   
    32   16   19 1   
    33   16   50 1   
    34   16   51 1   
    35   17   18 1   
    36   17   19 1   
    37   17   52 1   
    38   17   53 1   
    39   18   54 1   
    40   18   55 1   
    41   19   20 1   
    42   19   56 1   
    43   20   21 2   
    44   20   22 1   
    45   22   23 1   
    46   23   57 1   
    47   23   58 1   
    48   23   59 1   
    49   24   60 1   
    50   24   69 1   
    51   25   26 1   
    52   25   27 1   
    53   25   28 1   
    54   28   29 ar  
    55   28   33 ar  
    56   29   30 ar  
    57   29   61 1   
    58   30   32 ar  
    59   30   62 1   
    60   31   32 ar  
    61   31   33 ar  
    62   31   37 ar  
    63   32   34 ar  
    64   33   63 1   
    65   34   35 ar  
    66   34   64 1   
    67   35   36 ar  
    68   35   65 1   
    69   36   37 ar  
    70   36   66 1   
    71   37   67 1   
@<TRIPOS>SUBSTRUCTURE
     1 FD2         1 TEMP              0 ****  ****    0 ROOT
