@<TRIPOS>MOLECULE
FD2
   67    70     1     0     0
SMALL
bcc


@<TRIPOS>ATOM
      1 C65         0.9040    1.3340   -3.5870 ca        1 FD2     -0.100300
      2 C66         1.8010    0.2600   -3.6510 ca        1 FD2     -0.086000
      3 C64         0.1430    1.6630   -4.7130 ca        1 FD2     -0.105000
      4 C63         0.2750    0.9260   -5.8890 ca        1 FD2     -0.131000
      5 C62         1.1570   -0.1520   -5.9500 ca        1 FD2     -0.103000
      6 C61         1.9150   -0.4870   -4.8240 ca        1 FD2     -0.134900
      7 C25         2.8530   -1.6550   -4.8660 ce        1 FD2      0.652800
      8 N43         2.2680   -2.8450   -5.3550 nh        1 FD2     -0.950800
      9 N54         4.0920   -1.4670   -4.5220 n2        1 FD2     -0.833100
     10 C34         0.7880    2.1310   -2.3370 c3        1 FD2     -0.045100
     11 C31         0.2470    1.2980   -1.1570 c3        1 FD2      0.184500
     12 C35         0.4100    2.1870    0.1060 c         1 FD2      0.626100
     13 O36        -0.5060    2.9630    0.4400 o         1 FD2     -0.591100
     14 N81         1.6150    2.1880    0.8110 n         1 FD2     -0.447800
     15 C71         2.6640    1.2180    0.5860 c3        1 FD2      0.075000
     16 C72         2.6390    0.0490    1.5730 c3        1 FD2     -0.105900
     17 C74         1.5830    1.6200    3.2400 c3        1 FD2     -0.105900
     18 C75         1.6200    2.7100    2.1670 c3        1 FD2      0.075000
     19 C40         2.6640    0.5730    3.0040 c3        1 FD2     -0.108700
     20 C48         2.4590   -0.5770    3.9540 c         1 FD2      0.636100
     21 O49         1.4730   -1.3070    4.0810 o         1 FD2     -0.553000
     22 O55         3.5380   -0.8020    4.7610 os        1 FD2     -0.434900
     23 C99         3.4360   -1.8820    5.6920 c3        1 FD2      0.123700
     24 N29        -1.1140    0.8720   -1.3130 n3        1 FD2     -0.900100
     25 S12        -1.6090   -0.6740   -1.3040 sy        1 FD2      1.520200
     26 O32        -2.5060   -0.8890   -2.3680 o         1 FD2     -0.657300
     27 O33        -0.4800   -1.5270   -1.2400 o         1 FD2     -0.657300
     28 C2         -2.4570   -0.7870    0.1460 ca        1 FD2     -0.393500
     29 C3         -3.8650   -0.5890    0.1490 ca        1 FD2     -0.048000
     30 C4         -4.5950   -0.6960    1.3030 ca        1 FD2     -0.134000
     31 C9         -2.5530   -1.2130    2.5490 ca        1 FD2     -0.075000
     32 C10        -3.9570   -1.0080    2.5350 ca        1 FD2      0.013000
     33 C1         -1.8290   -1.0990    1.3340 ca        1 FD2      0.036000
     34 C5         -4.6840   -1.1250    3.7500 ca        1 FD2     -0.139000
     35 C6         -4.0340   -1.4310    4.9210 ca        1 FD2     -0.100000
     36 C7         -2.6320   -1.6310    4.9350 ca        1 FD2     -0.140000
     37 C8         -1.9030   -1.5240    3.7760 ca        1 FD2     -0.097000
     38 H661        2.4170    0.0050   -2.7750 ha        1 FD2      0.142000
     39 H641       -0.5620    2.5070   -4.6720 ha        1 FD2      0.135000
     40 H631       -0.3230    1.1940   -6.7730 ha        1 FD2      0.137000
     41 H621        1.2590   -0.7300   -6.8810 ha        1 FD2      0.146000
     42 H431        2.7150   -3.6950   -5.0970 hn        1 FD2      0.399800
     43 H432        1.2760   -2.8790   -5.3010 hn        1 FD2      0.399800
     44 H541        4.6880   -2.2660   -4.5570 hn        1 FD2      0.381400
     45 H341        0.1270    3.0240   -2.4980 hc        1 FD2      0.068200
     46 H342        1.8060    2.5120   -2.0480 hc        1 FD2      0.068200
     47 H311        0.8730    0.3580   -1.0600 h1        1 FD2      0.092700
     48 H711        3.6440    1.7670    0.7070 h1        1 FD2      0.068450
     49 H712        2.6360    0.8260   -0.4670 h1        1 FD2      0.068450
     50 H721        3.5350   -0.5970    1.3880 hc        1 FD2      0.066700
     51 H722        1.7230   -0.5780    1.4140 hc        1 FD2      0.066700
     52 H741        0.5770    1.1220    3.2470 hc        1 FD2      0.066700
     53 H742        1.7340    2.1010    4.2400 hc        1 FD2      0.066700
     54 H751        2.5630    3.3160    2.2880 h1        1 FD2      0.068450
     55 H752        0.7370    3.3970    2.3080 h1        1 FD2      0.068450
     56 H401        3.6730    1.0340    3.2070 hc        1 FD2      0.085700
     57 H991        4.4210   -1.8710    6.2180 h1        1 FD2      0.053033
     58 H992        2.5910   -1.6960    6.3980 h1        1 FD2      0.053033
     59 H993        3.2730   -2.8410    5.1450 h1        1 FD2      0.053033
     60 H291       -1.7540    1.6310   -1.3670 hn        1 FD2      0.460800
     61 H31        -4.3630   -0.3640   -0.8110 ha        1 FD2      0.154000
     62 H41        -5.6850   -0.5450    1.2960 ha        1 FD2      0.140000
     63 H11        -0.7380   -1.2800    1.3550 ha        1 FD2      0.149000
     64 H51        -5.7730   -0.9660    3.7320 ha        1 FD2      0.137000
     65 H61        -4.5950   -1.5230    5.8640 ha        1 FD2      0.134000
     66 H71        -2.1360   -1.8720    5.8870 ha        1 FD2      0.138000
     67 H81        -0.8090   -1.6710    3.7790 ha        1 FD2      0.165000
@<TRIPOS>BOND
     1    1    2 ar  
     2    1    3 ar  
     3    1   10 1   
     4    2    6 ar  
     5    2   38 1   
     6    3    4 ar  
     7    3   39 1   
     8    4    5 ar  
     9    4   40 1   
    10    5    6 ar  
    11    5   41 1   
    12    6    7 1   
    13    7    8 1   
    14    7    9 2   
    15    8   42 1   
    16    8   43 1   
    17    9   44 1   
    18   10   11 1   
    19   10   45 1   
    20   10   46 1   
    21   11   12 1   
    22   11   24 1   
    23   11   47 1   
    24   12   13 2   
    25   12   14 1   
    26   14   15 1   
    27   14   18 1   
    28   15   16 1   
    29   15   48 1   
    30   15   49 1   
    31   16   19 1   
    32   16   50 1   
    33   16   51 1   
    34   17   18 1   
    35   17   19 1   
    36   17   52 1   
    37   17   53 1   
    38   18   54 1   
    39   18   55 1   
    40   19   20 1   
    41   19   56 1   
    42   20   21 2   
    43   20   22 1   
    44   22   23 1   
    45   23   57 1   
    46   23   58 1   
    47   23   59 1   
    48   24   25 1   
    49   24   60 1   
    50   25   26 2   
    51   25   27 2   
    52   25   28 1   
    53   28   29 ar  
    54   28   33 ar  
    55   29   30 ar  
    56   29   61 1   
    57   30   32 ar  
    58   30   62 1   
    59   31   32 ar  
    60   31   33 ar  
    61   31   37 ar  
    62   32   34 ar  
    63   33   63 1   
    64   34   35 ar  
    65   34   64 1   
    66   35   36 ar  
    67   35   65 1   
    68   36   37 ar  
    69   36   66 1   
    70   37   67 1   
@<TRIPOS>SUBSTRUCTURE
     1 FD2         1 TEMP              0 ****  ****    0 ROOT
