@<TRIPOS>MOLECULE
FD2
   69    71     1     0     0
SMALL
bcc


@<TRIPOS>ATOM
      1 C65        -0.2000   -0.0100    0.3360 ca        1 FD2     -0.086300
      2 C66         0.9200   -0.8170    0.5720 ca        1 FD2     -0.081000
      3 C64        -0.9050    0.5170    1.4270 ca        1 FD2     -0.090000
      4 C63        -0.4970    0.2490    2.7340 ca        1 FD2     -0.098000
      5 C62         0.6100   -0.5640    2.9710 ca        1 FD2     -0.095000
      6 C61         1.3160   -1.0990    1.8860 ca        1 FD2     -0.244900
      7 C25         2.4260   -2.0510    2.1100 ce        1 FD2      0.580800
      8 N43         3.5400   -1.4630    2.9350 n4        1 FD2     -0.822600
      9 N54         2.5840   -3.2590    1.7290 n2        1 FD2     -0.696100
     10 C34        -0.6980    0.1980   -1.0510 c3        1 FD2     -0.071100
     11 C31        -0.1860    1.4790   -1.7300 c3        1 FD2      0.076500
     12 C35        -0.8500    1.5020   -3.1360 c         1 FD2      0.624100
     13 O36        -1.9630    2.0590   -3.2360 o         1 FD2     -0.585100
     14 N81        -0.2790    0.8070   -4.1940 n         1 FD2     -0.408800
     15 C71         1.1530    0.5820   -4.2820 c3        1 FD2      0.064000
     16 C72         1.9080    1.7440   -4.9260 c3        1 FD2     -0.109400
     17 C74        -0.2240    2.2100   -6.2520 c3        1 FD2     -0.109400
     18 C75        -0.8580    1.0310   -5.5180 c3        1 FD2      0.064000
     19 C40         1.2990    2.1360   -6.2680 c3        1 FD2     -0.114700
     20 C48         1.8330    3.4980   -6.6450 c         1 FD2      0.649100
     21 O49         1.6360    4.5670   -6.0510 o         1 FD2     -0.605000
     22 O55         2.6030    3.4920   -7.7590 os        1 FD2     -0.409900
     23 C99         3.1460    4.7450   -8.1950 c3        1 FD2      0.121700
     24 N29        -0.4810    2.7260   -1.0140 n3        1 FD2     -1.003800
     25 S12         1.1430    4.4100   -1.2930 s4        1 FD2      1.682300
     26 O32         1.3430    4.4480    0.0570 o         1 FD2     -0.462900
     27 O33         1.9440    3.6320   -2.0790 o         1 FD2     -0.462900
     28 C2          0.2620    5.4810   -1.9570 ca        1 FD2     -0.646500
     29 C3         -0.5330    6.3600   -1.1320 ca        1 FD2     -0.060000
     30 C4         -1.2980    7.3500   -1.6660 ca        1 FD2     -0.102000
     31 C9         -0.5550    6.7180   -3.9180 ca        1 FD2     -0.105000
     32 C10        -1.3380    7.5670   -3.0780 ca        1 FD2      0.066000
     33 C1          0.2140    5.6950   -3.3490 ca        1 FD2      0.132000
     34 C5         -2.1140    8.5920   -3.6590 ca        1 FD2     -0.154000
     35 C6         -2.1100    8.7740   -5.0290 ca        1 FD2     -0.020000
     36 C7         -1.3300    7.9410   -5.8670 ca        1 FD2     -0.131000
     37 C8         -0.5660    6.9320   -5.3300 ca        1 FD2     -0.061000
     38 H661        1.4720   -1.2480   -0.2790 ha        1 FD2      0.151000
     39 H641       -1.8150    1.1180    1.2580 ha        1 FD2      0.160000
     40 H631       -1.0660    0.6620    3.5850 ha        1 FD2      0.176000
     41 H621        0.8880   -0.8060    4.0080 ha        1 FD2      0.147000
     42 H431        3.9610   -0.6890    2.4120 hn        1 FD2      0.474133
     43 H432        3.1410   -1.1050    3.8100 hn        1 FD2      0.474133
     44 H541        1.8640   -3.7000    1.1930 hn        1 FD2      0.494400
     45 H341       -0.3870   -0.6680   -1.6980 hc        1 FD2      0.096700
     46 H342       -1.8240    0.2140   -1.0430 hc        1 FD2      0.096700
     47 H311        0.9400    1.4370   -1.8130 h1        1 FD2      0.095700
     48 H711        1.5870    0.3630   -3.2700 h1        1 FD2      0.078450
     49 H712        1.2940   -0.3450   -4.9130 h1        1 FD2      0.078450
     50 H721        2.9750    1.4350   -5.0790 hc        1 FD2      0.071950
     51 H722        1.9100    2.6290   -4.2330 hc        1 FD2      0.071950
     52 H741       -0.6080    2.2160   -7.3060 hc        1 FD2      0.071950
     53 H742       -0.5480    3.1700   -5.7680 hc        1 FD2      0.071950
     54 H751       -0.7040    0.0820   -6.1070 h1        1 FD2      0.078450
     55 H752       -1.9670    1.2080   -5.4160 h1        1 FD2      0.078450
     56 H401        1.6210    1.3870   -7.0470 hc        1 FD2      0.102700
     57 H991        3.7270    4.4690   -9.1100 h1        1 FD2      0.063367
     58 H992        2.3160    5.4530   -8.4320 h1        1 FD2      0.063367
     59 H993        3.8040    5.1680   -7.3990 h1        1 FD2      0.063367
     60 H291       -0.5090    2.5490   -0.0220 hn        1 FD2      0.411800
     61 H31        -0.4920    6.2170   -0.0370 ha        1 FD2      0.159000
     62 H41        -1.8970    8.0130   -1.0160 ha        1 FD2      0.174000
     63 H11         0.8130    5.0460   -4.0290 ha        1 FD2      0.194000
     64 H51        -2.7190    9.2450   -3.0090 ha        1 FD2      0.167000
     65 H61        -2.7160    9.5770   -5.4840 ha        1 FD2      0.170000
     66 H71        -1.3430    8.1150   -6.9560 ha        1 FD2      0.169000
     67 H81         0.0550    6.2780   -5.9680 ha        1 FD2      0.178000
     68 H433        4.2660   -2.1620    3.1520 hn        1 FD2      0.474133
     69 H292       -1.3840    3.0830   -1.3020 hn        1 FD2      0.411800
@<TRIPOS>BOND
     1    1    2 ar  
     2    1    3 ar  
     3    1   10 1   
     4    2    6 ar  
     5    2   38 1   
     6    3    4 ar  
     7    3   39 1   
     8    4    5 ar  
     9    4   40 1   
    10    5    6 ar  
    11    5   41 1   
    12    6    7 1   
    13    7    8 1   
    14    7    9 2   
    15    8   42 1   
    16    8   43 1   
    17    8   68 1   
    18    9   44 1   
    19   10   11 1   
    20   10   45 1   
    21   10   46 1   
    22   11   12 1   
    23   11   24 1   
    24   11   47 1   
    25   12   13 2   
    26   12   14 1   
    27   14   15 1   
    28   14   18 1   
    29   15   16 1   
    30   15   48 1   
    31   15   49 1   
    32   16   19 1   
    33   16   50 1   
    34   16   51 1   
    35   17   18 1   
    36   17   19 1   
    37   17   52 1   
    38   17   53 1   
    39   18   54 1   
    40   18   55 1   
    41   19   20 1   
    42   19   56 1   
    43   20   21 2   
    44   20   22 1   
    45   22   23 1   
    46   23   57 1   
    47   23   58 1   
    48   23   59 1   
    49   24   60 1   
    50   24   69 1   
    51   25   26 1   
    52   25   27 1   
    53   25   28 1   
    54   28   29 ar  
    55   28   33 ar  
    56   29   30 ar  
    57   29   61 1   
    58   30   32 ar  
    59   30   62 1   
    60   31   32 ar  
    61   31   33 ar  
    62   31   37 ar  
    63   32   34 ar  
    64   33   63 1   
    65   34   35 ar  
    66   34   64 1   
    67   35   36 ar  
    68   35   65 1   
    69   36   37 ar  
    70   36   66 1   
    71   37   67 1   
@<TRIPOS>SUBSTRUCTURE
     1 FD2         1 TEMP              0 ****  ****    0 ROOT
