@<TRIPOS>MOLECULE
FD3
   60    63     1     0     0
SMALL
bcc


@<TRIPOS>ATOM
      1 C65        -0.6660    1.1190    2.9220 ca        1 FD3     -0.097300
      2 C66        -0.7520   -0.1680    3.4660 ca        1 FD3     -0.106000
      3 C64         0.0910    2.0940    3.5820 ca        1 FD3     -0.103000
      4 C63         0.7620    1.7830    4.7630 ca        1 FD3     -0.129000
      5 C62         0.6890    0.4960    5.2960 ca        1 FD3     -0.090000
      6 C61        -0.0710   -0.4790    4.6450 ca        1 FD3     -0.192900
      7 C25        -0.1720   -1.8670    5.2010 ce        1 FD3      0.643800
      8 N43         1.0730   -2.4830    5.4390 nh        1 FD3     -0.891800
      9 N54        -1.2960   -2.4500    5.5020 n2        1 FD3     -0.840100
     10 C34        -1.3880    1.4440    1.6650 c3        1 FD3     -0.048100
     11 C31        -0.7950    0.7120    0.4420 c3        1 FD3      0.190500
     12 C35        -1.7950    0.9590   -0.7210 c         1 FD3      0.628100
     13 O36        -1.6830    1.9850   -1.4220 o         1 FD3     -0.602100
     14 N81        -2.7600    0.0030   -1.0120 n         1 FD3     -0.453800
     15 C71        -3.2410   -0.9600   -0.0460 c3        1 FD3      0.078000
     16 C72        -4.6840   -0.6820    0.4360 c3        1 FD3      0.137300
     17 C74        -5.1390    0.5170   -1.6220 c3        1 FD3      0.137300
     18 C75        -3.6950    0.2450   -2.0960 c3        1 FD3      0.078000
     19 N40        -5.6070   -0.4590   -0.6580 n3        1 FD3     -0.820200
     20 N29         0.5230    1.1490    0.0840 n3        1 FD3     -0.900100
     21 S12         1.8510    0.2170    0.0700 sy        1 FD3      1.521200
     22 O32         2.9250    0.9350    0.6330 o         1 FD3     -0.654800
     23 O33         1.5560   -1.0460    0.6340 o         1 FD3     -0.654800
     24 C2          2.1520    0.0150   -1.5770 ca        1 FD3     -0.386500
     25 C3          2.8910    1.0050   -2.2790 ca        1 FD3     -0.045000
     26 C4          3.1710    0.8690   -3.6140 ca        1 FD3     -0.132000
     27 C9          1.9970   -1.2780   -3.6400 ca        1 FD3     -0.073000
     28 C10         2.7270   -0.2760   -4.3300 ca        1 FD3      0.013000
     29 C1          1.7230   -1.1040   -2.2600 ca        1 FD3      0.031000
     30 C5          2.9970   -0.4480   -5.7160 ca        1 FD3     -0.133000
     31 C6          2.5590   -1.5700   -6.3750 ca        1 FD3     -0.102000
     32 C7          1.8330   -2.5720   -5.6860 ca        1 FD3     -0.135000
     33 C8          1.5570   -2.4310   -4.3480 ca        1 FD3     -0.098000
     34 H661       -1.3470   -0.9400    2.9540 ha        1 FD3      0.134000
     35 H641        0.1620    3.1100    3.1630 ha        1 FD3      0.137000
     36 H631        1.3580    2.5540    5.2740 ha        1 FD3      0.140000
     37 H621        1.2270    0.2470    6.2240 ha        1 FD3      0.151000
     38 H431        1.0360   -3.4600    5.6350 hn        1 FD3      0.402300
     39 H432        1.7660   -2.2390    4.7650 hn        1 FD3      0.402300
     40 H541       -2.0980   -1.8700    5.3820 hn        1 FD3      0.390400
     41 H341       -2.4630    1.1300    1.7620 hc        1 FD3      0.064200
     42 H342       -1.3760    2.5510    1.4780 hc        1 FD3      0.064200
     43 H311       -0.7240   -0.3940    0.6790 h1        1 FD3      0.093700
     44 H711       -3.2120   -1.9740   -0.5410 h1        1 FD3      0.067450
     45 H712       -2.5840   -0.9950    0.8640 h1        1 FD3      0.067450
     46 H721       -5.0390   -1.5880    1.0020 h1        1 FD3      0.038950
     47 H722       -4.6550    0.1860    1.1590 h1        1 FD3      0.038950
     48 H741       -5.8150    0.4570   -2.5200 h1        1 FD3      0.038950
     49 H742       -5.1900    1.5730   -1.2220 h1        1 FD3      0.038950
     50 H751       -3.3530    1.1240   -2.7100 h1        1 FD3      0.067450
     51 H752       -3.6910   -0.6750   -2.7480 h1        1 FD3      0.067450
     52 H401       -6.5070   -0.1950   -0.3030 hn        1 FD3      0.369800
     53 H291        0.5430    2.0940   -0.2270 hn        1 FD3      0.460800
     54 H31         3.2560    1.8830   -1.7180 ha        1 FD3      0.150000
     55 H41         3.7450    1.6390   -4.1510 ha        1 FD3      0.141000
     56 H11         1.1640   -1.8950   -1.7270 ha        1 FD3      0.152000
     57 H51         3.5630    0.3340   -6.2440 ha        1 FD3      0.139000
     58 H61         2.7670   -1.7060   -7.4470 ha        1 FD3      0.137000
     59 H71         1.4950   -3.4620   -6.2380 ha        1 FD3      0.138000
     60 H81         0.9940   -3.2040   -3.8020 ha        1 FD3      0.138000
@<TRIPOS>BOND
     1    1    2 ar  
     2    1    3 ar  
     3    1   10 1   
     4    2    6 ar  
     5    2   34 1   
     6    3    4 ar  
     7    3   35 1   
     8    4    5 ar  
     9    4   36 1   
    10    5    6 ar  
    11    5   37 1   
    12    6    7 1   
    13    7    8 1   
    14    7    9 2   
    15    8   38 1   
    16    8   39 1   
    17    9   40 1   
    18   10   11 1   
    19   10   41 1   
    20   10   42 1   
    21   11   12 1   
    22   11   20 1   
    23   11   43 1   
    24   12   13 2   
    25   12   14 1   
    26   14   15 1   
    27   14   18 1   
    28   15   16 1   
    29   15   44 1   
    30   15   45 1   
    31   16   19 1   
    32   16   46 1   
    33   16   47 1   
    34   17   18 1   
    35   17   19 1   
    36   17   48 1   
    37   17   49 1   
    38   18   50 1   
    39   18   51 1   
    40   19   52 1   
    41   20   21 1   
    42   20   53 1   
    43   21   22 2   
    44   21   23 2   
    45   21   24 1   
    46   24   25 ar  
    47   24   29 ar  
    48   25   26 ar  
    49   25   54 1   
    50   26   28 ar  
    51   26   55 1   
    52   27   28 ar  
    53   27   29 ar  
    54   27   33 ar  
    55   28   30 ar  
    56   29   56 1   
    57   30   31 ar  
    58   30   57 1   
    59   31   32 ar  
    60   31   58 1   
    61   32   33 ar  
    62   32   59 1   
    63   33   60 1   
@<TRIPOS>SUBSTRUCTURE
     1 FD3         1 TEMP              0 ****  ****    0 ROOT
