@<TRIPOS>MOLECULE
FD3
   62    65     1     0     0
SMALL
bcc


@<TRIPOS>ATOM
      1 C65        -0.3340   -0.1350   -0.2230 ca        1 FD3     -0.119300
      2 C66         0.8980    0.2830    0.2880 ca        1 FD3     -0.114000
      3 C64        -1.2890   -0.6780    0.6520 ca        1 FD3     -0.069000
      4 C63        -1.0170   -0.7930    2.0140 ca        1 FD3     -0.100000
      5 C62         0.2070   -0.3610    2.5270 ca        1 FD3     -0.070000
      6 C61         1.1610    0.1820    1.6590 ca        1 FD3     -0.233900
      7 C25         2.4700    0.6070    2.2030 ce        1 FD3      0.577800
      8 N43         2.7500    2.0620    1.9520 nz        1 FD3     -0.814600
      9 N54         3.3640   -0.0460    2.8400 n2        1 FD3     -0.692100
     10 C34        -0.6480   -0.0830   -1.6780 c3        1 FD3     -0.065100
     11 C31        -0.0660    1.1240   -2.4230 c3        1 FD3      0.057500
     12 C35        -0.6690    1.1310   -3.8630 c         1 FD3      0.640100
     13 O36        -1.6120    1.9310   -4.0730 o         1 FD3     -0.626100
     14 N81        -0.1890    0.2860   -4.8130 n         1 FD3     -0.415800
     15 C71         1.0110   -0.5170   -4.6740 c3        1 FD3      0.078500
     16 C72         0.9040   -1.8920   -5.3780 c3        1 FD3      0.156300
     17 C74        -0.8360   -1.0660   -6.8210 c3        1 FD3      0.156300
     18 C75        -0.7750    0.3230   -6.1520 c3        1 FD3      0.078500
     19 N40         0.4250   -1.7680   -6.7350 n7        1 FD3     -0.826200
     20 N29        -0.3670    2.4220   -1.7440 ny        1 FD3     -0.710900
     21 S12         1.1000    3.6070   -1.5970 sy        1 FD3      1.519200
     22 O32         1.5180    3.2990   -0.2890 o         1 FD3     -0.636800
     23 O33         1.9490    3.1960   -2.6070 o         1 FD3     -0.636800
     24 C2          0.3340    4.9630   -1.7940 ca        1 FD3     -0.594500
     25 C3         -0.2740    5.6220   -0.6700 ca        1 FD3     -0.073000
     26 C4         -0.8990    6.8260   -0.7970 ca        1 FD3     -0.091000
     27 C9         -0.3770    6.8510   -3.1960 ca        1 FD3     -0.097000
     28 C10        -0.9750    7.4830   -2.0630 ca        1 FD3      0.057000
     29 C1          0.2580    5.6110   -3.0380 ca        1 FD3      0.119000
     30 C5         -1.6150    8.7320   -2.2220 ca        1 FD3     -0.147000
     31 C6         -1.6600    9.3350   -3.4640 ca        1 FD3     -0.023000
     32 C7         -1.0680    8.7150   -4.5900 ca        1 FD3     -0.113000
     33 C8         -0.4390    7.4990   -4.4650 ca        1 FD3     -0.072000
     34 H661        1.6750    0.6710   -0.3890 ha        1 FD3      0.127000
     35 H641       -2.2600   -1.0300    0.2590 ha        1 FD3      0.173000
     36 H631       -1.7700   -1.2330    2.6920 ha        1 FD3      0.183000
     37 H621        0.4140   -0.4540    3.6070 ha        1 FD3      0.168000
     38 H431        2.9290    2.1980    0.9480 hn        1 FD3      0.475800
     39 H432        3.5590    2.3970    2.4910 hn        1 FD3      0.475800
     40 H541        3.2220   -1.0190    3.0190 hn        1 FD3      0.494400
     41 H341       -1.7640   -0.0990   -1.8270 hc        1 FD3      0.107700
     42 H342       -0.2430   -1.0150   -2.1680 hc        1 FD3      0.107700
     43 H311        1.0620    1.0440   -2.4860 hx        1 FD3      0.113700
     44 H711        1.2370   -0.7130   -3.5910 h1        1 FD3      0.068950
     45 H712        1.8740    0.0570   -5.1230 h1        1 FD3      0.068950
     46 H721        0.2550   -2.5630   -4.7430 h1        1 FD3      0.055200
     47 H722        1.9400   -2.3350   -5.4100 h1        1 FD3      0.055200
     48 H741       -1.6890   -1.6480   -6.3630 h1        1 FD3      0.055200
     49 H742       -1.0710   -0.9030   -7.9110 h1        1 FD3      0.055200
     50 H751       -0.1500    1.0160   -6.7850 h1        1 FD3      0.068950
     51 H752       -1.8220    0.7360   -6.0890 h1        1 FD3      0.068950
     52 H401        0.3810   -2.6610   -7.1890 hn        1 FD3      0.401800
     53 H291       -1.1400    2.8730   -2.2630 hn        1 FD3      0.467800
     54 H31        -0.2040    5.1340    0.3160 ha        1 FD3      0.141000
     55 H41        -1.3570    7.3200    0.0780 ha        1 FD3      0.174000
     56 H11         0.7220    5.1360   -3.9260 ha        1 FD3      0.169000
     57 H51        -2.0760    9.2170   -1.3460 ha        1 FD3      0.169000
     58 H61        -2.1590   10.3130   -3.5900 ha        1 FD3      0.176000
     59 H71        -1.1180    9.2220   -5.5700 ha        1 FD3      0.176000
     60 H81         0.0250    7.0120   -5.3380 ha        1 FD3      0.161000
     61 H433        1.9170    2.6070    2.1990 hn        1 FD3      0.475800
     62 H292       -0.7270    2.2140   -0.8110 hn        1 FD3      0.467800
@<TRIPOS>BOND
     1    1    2 ar  
     2    1    3 ar  
     3    1   10 1   
     4    2    6 ar  
     5    2   34 1   
     6    3    4 ar  
     7    3   35 1   
     8    4    5 ar  
     9    4   36 1   
    10    5    6 ar  
    11    5   37 1   
    12    6    7 1   
    13    7    8 1   
    14    7    9 2   
    15    8   38 1   
    16    8   39 1   
    17    8   61 1   
    18    9   40 1   
    19   10   11 1   
    20   10   41 1   
    21   10   42 1   
    22   11   12 1   
    23   11   20 1   
    24   11   43 1   
    25   12   13 2   
    26   12   14 1   
    27   14   15 1   
    28   14   18 1   
    29   15   16 1   
    30   15   44 1   
    31   15   45 1   
    32   16   19 1   
    33   16   46 1   
    34   16   47 1   
    35   17   18 1   
    36   17   19 1   
    37   17   48 1   
    38   17   49 1   
    39   18   50 1   
    40   18   51 1   
    41   19   52 1   
    42   20   21 1   
    43   20   53 1   
    44   20   62 1   
    45   21   22 2   
    46   21   23 2   
    47   21   24 1   
    48   24   25 ar  
    49   24   29 ar  
    50   25   26 ar  
    51   25   54 1   
    52   26   28 ar  
    53   26   55 1   
    54   27   28 ar  
    55   27   29 ar  
    56   27   33 ar  
    57   28   30 ar  
    58   29   56 1   
    59   30   31 ar  
    60   30   57 1   
    61   31   32 ar  
    62   31   58 1   
    63   32   33 ar  
    64   32   59 1   
    65   33   60 1   
@<TRIPOS>SUBSTRUCTURE
     1 FD3         1 TEMP              0 ****  ****    0 ROOT
