@<TRIPOS>MOLECULE
FD3
   60    54     1     0     0
SMALL
bcc


@<TRIPOS>ATOM
      1 C65         2.2530   -1.5950    0.7340 c1        1 FD3     -0.095000
      2 C66         1.3270   -2.0190    1.6730 c1        1 FD3     -0.110000
      3 C64         3.4240   -0.9770    1.1460 c1        1 FD3     -0.110000
      4 C63         3.6670   -0.7830    2.4960 c1        1 FD3     -0.115000
      5 C62         2.7410   -1.2080    3.4340 c1        1 FD3     -0.115000
      6 C61         1.5710   -1.8260    3.0230 c1        1 FD3     -0.096000
      7 C25         0.5770   -2.3220    4.0490 c2        1 FD3      0.126000
      8 N43        -0.5250   -1.5070    4.4220 n3        1 FD3     -0.339000
      9 N54         0.7310   -3.5000    4.5920 n1        1 FD3     -0.322000
     10 C34         2.0050   -1.8380   -0.7360 c3        1 FD3     -0.134000
     11 C31         1.8890   -0.5130   -1.4530 c3        1 FD3      0.031000
     12 C35         1.5180   -0.7540   -2.9010 c2        1 FD3      0.279000
     13 O36         2.2760   -0.4120   -3.7870 o         1 FD3     -0.354000
     14 N81         0.3170   -1.4400   -3.2210 n         1 FD3     -0.318000
     15 C71        -0.0590   -1.7580   -4.5440 c3        1 FD3     -0.033500
     16 C72        -0.4060   -3.2210   -4.7020 c3        1 FD3     -0.098500
     17 C74        -0.9590   -3.3300   -2.3930 c3        1 FD3     -0.098500
     18 C75        -0.6080   -1.8660   -2.2470 c3        1 FD3     -0.033500
     19 N40        -1.3550   -3.6610   -3.7270 n3        1 FD3     -0.298000
     20 N29         0.8850    0.2750   -0.8320 n3        1 FD3     -0.881000
     21 S12         1.2660    1.7420   -0.2010 s4        1 FD3      2.084800
     22 O32         2.0430    1.6070    1.0000 o         1 FD3     -0.548900
     23 O33         2.1840    2.4510   -1.0490 o         1 FD3     -0.548900
     24 C2         -0.2070    2.6880    0.0870 c1        1 FD3     -0.836000
     25 C3         -0.5960    3.5800   -0.9080 c2        1 FD3     -0.041000
     26 C4         -1.6550    4.4510   -0.6860 c1        1 FD3     -0.132000
     27 C9         -1.9500    3.5520    1.5300 c1        1 FD3     -0.031000
     28 C10        -2.3350    4.4330    0.5460 c1        1 FD3     -0.031000
     29 C1         -0.8770    2.6690    1.3040 c1        1 FD3      0.027000
     30 C5         -3.4490    5.2690    0.7470 c1        1 FD3     -0.116500
     31 C6         -4.1600    5.2040    1.9390 c1        1 FD3     -0.115000
     32 C7         -3.7710    4.3130    2.9340 c1        1 FD3     -0.115000
     33 C8         -2.6720    3.4880    2.7370 c1        1 FD3     -0.116500
     34 H661        0.5030   -2.4540    1.3830 ha        1 FD3      0.144000
     35 H641        4.0770   -0.6780    0.4840 ha        1 FD3      0.137000
     36 H631        4.4910   -0.3480    2.7850 ha        1 FD3      0.140500
     37 H621        2.9130   -1.0710    4.3850 ha        1 FD3      0.140500
     38 H431       -0.7090   -0.7440    3.9520 hn        1 FD3      0.213000
     39 H432       -1.0460   -1.7420    5.1350 hn        1 FD3      0.213000
     40 H541        1.4410   -4.0240    4.3520 DU        1 FD3      0.142000
     41 H341        1.1760   -2.3420   -0.8470 hc        1 FD3      0.100500
     42 H342        2.7490   -2.3480   -1.1120 hc        1 FD3      0.100500
     43 H311        2.7450   -0.0430   -1.4100 h1        1 FD3      0.162000
     44 H711       -0.8380   -1.2180   -4.7910 h1        1 FD3      0.103000
     45 H712        0.6820   -1.5400   -5.1460 h1        1 FD3      0.103000
     46 H721       -0.7800   -3.3640   -5.5960 h1        1 FD3      0.078750
     47 H722        0.4120   -3.7530   -4.6110 h1        1 FD3      0.078750
     48 H741       -0.1770   -3.8690   -2.1510 h1        1 FD3      0.078750
     49 H742       -1.6930   -3.5430   -1.7820 h1        1 FD3      0.078750
     50 H751       -1.4260   -1.3330   -2.3320 h1        1 FD3      0.103000
     51 H752       -0.2250   -1.7180   -1.3600 h1        1 FD3      0.103000
     52 H401       -1.4670   -4.5660   -3.7960 hn        1 FD3      0.165000
     53 H291        0.0360   -0.0480   -0.7540 hn        1 FD3      0.238000
     54 H31        -0.1190    3.5990   -1.7590 ha        1 FD3      0.156000
     55 H41        -1.9270    5.0760   -1.3840 ha        1 FD3      0.144000
     56 H11        -0.5810    2.0700    2.0150 ha        1 FD3      0.155000
     57 H51        -3.7220    5.8940    0.0490 ha        1 FD3      0.140000
     58 H61        -4.9330    5.7840    2.0780 ha        1 FD3      0.140500
     59 H71        -4.2710    4.2680    3.7710 ha        1 FD3      0.140500
     60 H81        -2.3990    2.8630    3.4350 ha        1 FD3      0.140000
@<TRIPOS>BOND
     1    1    3 1   
     2    1   10 1   
     3    2    6 1   
     4    2   34 1   
     5    3   35 1   
     6    4    5 1   
     7    4   36 1   
     8    5   37 1   
     9    6    7 1   
    10    7    8 1   
    11    7    9 1   
    12    8   38 1   
    13    8   39 1   
    14   10   11 1   
    15   10   41 1   
    16   10   42 1   
    17   11   12 1   
    18   11   20 1   
    19   11   43 1   
    20   12   13 1   
    21   12   14 1   
    22   14   15 1   
    23   14   18 1   
    24   15   16 1   
    25   15   44 1   
    26   15   45 1   
    27   16   19 1   
    28   16   46 1   
    29   16   47 1   
    30   17   18 1   
    31   17   19 1   
    32   17   48 1   
    33   17   49 1   
    34   18   50 1   
    35   18   51 1   
    36   19   52 1   
    37   20   21 1   
    38   20   53 1   
    39   21   22 1   
    40   21   23 1   
    41   24   25 1   
    42   24   29 1   
    43   25   26 1   
    44   25   54 1   
    45   26   55 1   
    46   27   28 1   
    47   27   33 1   
    48   28   30 1   
    49   29   56 1   
    50   30   57 1   
    51   31   32 1   
    52   31   58 1   
    53   32   59 1   
    54   33   60 1   
@<TRIPOS>SUBSTRUCTURE
     1 FD3         1 TEMP              0 ****  ****    0 ROOT
