@<TRIPOS>MOLECULE
FD3
   62    65     1     0     0
SMALL
bcc


@<TRIPOS>ATOM
      1 C65        -0.3740   -0.1270   -0.2220 ca        1 FD3     -0.119300
      2 C66         0.8570    0.2800    0.2990 ca        1 FD3     -0.114000
      3 C64        -1.3420   -0.6590    0.6450 ca        1 FD3     -0.069000
      4 C63        -1.0830   -0.7740    2.0100 ca        1 FD3     -0.100000
      5 C62         0.1400   -0.3510    2.5340 ca        1 FD3     -0.070000
      6 C61         1.1060    0.1810    1.6730 ca        1 FD3     -0.233900
      7 C25         2.4150    0.5940    2.2290 ce        1 FD3      0.577800
      8 N43         2.7100    2.0470    1.9780 n4        1 FD3     -0.814600
      9 N54         3.2970   -0.0650    2.8740 n2        1 FD3     -0.692100
     10 C34        -0.6730   -0.0750   -1.6800 c3        1 FD3     -0.065100
     11 C31        -0.0730    1.1250   -2.4220 c3        1 FD3      0.057500
     12 C35        -0.6620    1.1340   -3.8680 c         1 FD3      0.640100
     13 O36        -1.5960    1.9420   -4.0890 o         1 FD3     -0.626100
     14 N81        -0.1800    0.2820   -4.8120 n         1 FD3     -0.415800
     15 C71         1.0110   -0.5300   -4.6590 c3        1 FD3      0.078500
     16 C72         0.8990   -1.9060   -5.3610 c3        1 FD3      0.156300
     17 C74        -0.8200   -1.0670   -6.8230 c3        1 FD3      0.156300
     18 C75        -0.7530    0.3220   -6.1560 c3        1 FD3      0.078500
     19 N40         0.4340   -1.7810   -6.7230 n3        1 FD3     -0.826200
     20 N29        -0.3690    2.4270   -1.7480 n4        1 FD3     -0.710900
     21 S12         1.1070    3.5990   -1.5900 sy        1 FD3      1.519200
     22 O32         1.5090    3.2900   -0.2770 o         1 FD3     -0.636800
     23 O33         1.9620    3.1790   -2.5910 o         1 FD3     -0.636800
     24 C2          0.3540    4.9610   -1.7970 ca        1 FD3     -0.594500
     25 C3         -0.2580    5.6280   -0.6810 ca        1 FD3     -0.073000
     26 C4         -0.8720    6.8370   -0.8160 ca        1 FD3     -0.091000
     27 C9         -0.3260    6.8530   -3.2100 ca        1 FD3     -0.097000
     28 C10        -0.9290    7.4920   -2.0830 ca        1 FD3      0.057000
     29 C1          0.2960    5.6070   -3.0430 ca        1 FD3      0.118000
     30 C5         -1.5570    8.7460   -2.2520 ca        1 FD3     -0.147000
     31 C6         -1.5840    9.3480   -3.4940 ca        1 FD3     -0.023000
     32 C7         -0.9870    8.7200   -4.6140 ca        1 FD3     -0.113000
     33 C8         -0.3700    7.4990   -4.4810 ca        1 FD3     -0.072000
     34 H661        1.6440    0.6590   -0.3710 ha        1 FD3      0.127000
     35 H641       -2.3120   -1.0030    0.2430 ha        1 FD3      0.173000
     36 H631       -1.8470   -1.2060    2.6810 ha        1 FD3      0.183000
     37 H621        0.3360   -0.4440    3.6150 ha        1 FD3      0.168000
     38 H431        3.5170    2.3750    2.5230 hn        1 FD3      0.475800
     39 H432        2.8980    2.1790    0.9750 hn        1 FD3      0.475800
     40 H541        3.1440   -1.0370    3.0540 hn        1 FD3      0.494400
     41 H341       -1.7880   -0.0810   -1.8400 hc        1 FD3      0.107700
     42 H342       -0.2730   -1.0120   -2.1640 hc        1 FD3      0.107700
     43 H311        1.0540    1.0340   -2.4740 hx        1 FD3      0.113700
     44 H711        1.8830    0.0350   -5.1010 h1        1 FD3      0.068950
     45 H712        1.2240   -0.7260   -3.5740 h1        1 FD3      0.068950
     46 H721        1.9300   -2.3580   -5.3820 h1        1 FD3      0.055200
     47 H722        0.2370   -2.5700   -4.7310 h1        1 FD3      0.055200
     48 H741       -1.0430   -0.9050   -7.9160 h1        1 FD3      0.055200
     49 H742       -1.6830   -1.6400   -6.3720 h1        1 FD3      0.055200
     50 H751       -1.7960    0.7450   -6.1040 h1        1 FD3      0.068950
     51 H752       -0.1150    1.0080   -6.7840 h1        1 FD3      0.068950
     52 H401        0.3860   -2.6740   -7.1760 hn        1 FD3      0.401800
     53 H291       -1.1330    2.8840   -2.2770 hn        1 FD3      0.467800
     54 H31        -0.2020    5.1410    0.3080 ha        1 FD3      0.141000
     55 H41        -1.3330    7.3370    0.0540 ha        1 FD3      0.174000
     56 H11         0.7650    5.1260   -3.9260 ha        1 FD3      0.169000
     57 H51        -2.0210    9.2380   -1.3810 ha        1 FD3      0.169000
     58 H61        -2.0730   10.3290   -3.6270 ha        1 FD3      0.176000
     59 H71        -1.0240    9.2250   -5.5950 ha        1 FD3      0.176000
     60 H81         0.0970    7.0050   -5.3480 ha        1 FD3      0.161000
     61 H433        1.8800    2.5990    2.2160 hn        1 FD3      0.475800
     62 H292       -0.7410    2.2240   -0.8190 hn        1 FD3      0.467800
@<TRIPOS>BOND
     1    1    2 ar  
     2    1    3 ar  
     3    1   10 1   
     4    2    6 ar  
     5    2   34 1   
     6    3    4 ar  
     7    3   35 1   
     8    4    5 ar  
     9    4   36 1   
    10    5    6 ar  
    11    5   37 1   
    12    6    7 1   
    13    7    8 1   
    14    7    9 2   
    15    8   38 1   
    16    8   39 1   
    17    8   61 1   
    18    9   40 1   
    19   10   11 1   
    20   10   41 1   
    21   10   42 1   
    22   11   12 1   
    23   11   20 1   
    24   11   43 1   
    25   12   13 2   
    26   12   14 1   
    27   14   15 1   
    28   14   18 1   
    29   15   16 1   
    30   15   44 1   
    31   15   45 1   
    32   16   19 1   
    33   16   46 1   
    34   16   47 1   
    35   17   18 1   
    36   17   19 1   
    37   17   48 1   
    38   17   49 1   
    39   18   50 1   
    40   18   51 1   
    41   19   52 1   
    42   20   21 1   
    43   20   53 1   
    44   20   62 1   
    45   21   22 2   
    46   21   23 2   
    47   21   24 1   
    48   24   25 ar  
    49   24   29 ar  
    50   25   26 ar  
    51   25   54 1   
    52   26   28 ar  
    53   26   55 1   
    54   27   28 ar  
    55   27   29 ar  
    56   27   33 ar  
    57   28   30 ar  
    58   29   56 1   
    59   30   31 ar  
    60   30   57 1   
    61   31   32 ar  
    62   31   58 1   
    63   32   33 ar  
    64   32   59 1   
    65   33   60 1   
@<TRIPOS>SUBSTRUCTURE
     1 FD3         1 TEMP              0 ****  ****    0 ROOT
