@<TRIPOS>MOLECULE
FD3
   62    65     1     0     0
SMALL
bcc


@<TRIPOS>ATOM
      1 C65        -0.4330   -0.1150   -0.2240 ca        1 FD3     -0.119300
      2 C66         0.7900    0.2840    0.3220 ca        1 FD3     -0.114000
      3 C64        -1.4240   -0.6360    0.6250 ca        1 FD3     -0.069000
      4 C63        -1.1950   -0.7470    1.9960 ca        1 FD3     -0.100000
      5 C62         0.0200   -0.3330    2.5430 ca        1 FD3     -0.070000
      6 C61         1.0090    0.1880    1.7020 ca        1 FD3     -0.233900
      7 C25         2.3080    0.5930    2.2830 ce        1 FD3      0.577800
      8 N43         2.6210    2.0420    2.0320 n4        1 FD3     -0.814600
      9 N54         3.1710   -0.0700    2.9510 n2        1 FD3     -0.692100
     10 C34        -0.7010   -0.0670   -1.6870 c3        1 FD3     -0.065100
     11 C31        -0.0760    1.1250   -2.4210 c3        1 FD3      0.057500
     12 C35        -0.6340    1.1330   -3.8800 c         1 FD3      0.640100
     13 O36        -1.5560    1.9480   -4.1230 o         1 FD3     -0.626100
     14 N81        -0.1400    0.2740   -4.8100 n         1 FD3     -0.415800
     15 C71         1.0410   -0.5480   -4.6290 c3        1 FD3      0.078500
     16 C72         0.9320   -1.9260   -5.3270 c3        1 FD3      0.156300
     17 C74        -0.7500   -1.0790   -6.8270 c3        1 FD3      0.156300
     18 C75        -0.6840    0.3120   -6.1660 c3        1 FD3      0.078500
     19 N40         0.4960   -1.8030   -6.6990 n3        1 FD3     -0.826200
     20 N29        -0.3760    2.4320   -1.7590 n4        1 FD3     -0.710900
     21 S12         1.1070    3.5930   -1.5750 sy        1 FD3      1.519200
     22 O32         1.4790    3.2860   -0.2530 o         1 FD3     -0.636800
     23 O33         1.9790    3.1620   -2.5560 o         1 FD3     -0.636800
     24 C2          0.3700    4.9600   -1.8020 ca        1 FD3     -0.594500
     25 C3         -0.2610    5.6360   -0.7010 ca        1 FD3     -0.073000
     26 C4         -0.8610    6.8490   -0.8530 ca        1 FD3     -0.091000
     27 C9         -0.2650    6.8520   -3.2350 ca        1 FD3     -0.097000
     28 C10        -0.8870    7.5010   -2.1240 ca        1 FD3      0.057000
     29 C1          0.3430    5.6020   -3.0510 ca        1 FD3      0.119000
     30 C5         -1.5000    8.7590   -2.3100 ca        1 FD3     -0.147000
     31 C6         -1.4960    9.3560   -3.5550 ca        1 FD3     -0.023000
     32 C7         -0.8810    8.7190   -4.6600 ca        1 FD3     -0.113000
     33 C8         -0.2780    7.4940   -4.5090 ca        1 FD3     -0.072000
     34 H661        1.5940    0.6540   -0.3330 ha        1 FD3      0.127000
     35 H641       -2.3880   -0.9740    0.2040 ha        1 FD3      0.173000
     36 H631       -1.9760   -1.1700    2.6520 ha        1 FD3      0.183000
     37 H621        0.1920   -0.4230    3.6290 ha        1 FD3      0.168000
     38 H431        3.4190    2.3670    2.5940 hn        1 FD3      0.475800
     39 H432        2.8330    2.1680    1.0330 hn        1 FD3      0.475800
     40 H541        3.0060   -1.0400    3.1320 hn        1 FD3      0.494400
     41 H341       -0.2980   -1.0090   -2.1590 hc        1 FD3      0.107700
     42 H342       -1.8130   -0.0650   -1.8710 hc        1 FD3      0.107700
     43 H311        1.0510    1.0250   -2.4490 hx        1 FD3      0.113700
     44 H711        1.9270    0.0080   -5.0550 h1        1 FD3      0.068950
     45 H712        1.2300   -0.7410   -3.5380 h1        1 FD3      0.068950
     46 H721        0.2520   -2.5820   -4.7080 h1        1 FD3      0.055200
     47 H722        1.9600   -2.3870   -5.3250 h1        1 FD3      0.055200
     48 H741       -1.6260   -1.6430   -6.3930 h1        1 FD3      0.055200
     49 H742       -0.9480   -0.9200   -7.9260 h1        1 FD3      0.055200
     50 H751       -1.7250    0.7440   -6.1370 h1        1 FD3      0.068950
     51 H752       -0.0280    0.9900   -6.7830 h1        1 FD3      0.068950
     52 H401        0.4500   -2.6980   -7.1490 hn        1 FD3      0.401800
     53 H291       -0.7680    2.2360   -0.8370 hn        1 FD3      0.467800
     54 H31        -0.2290    5.1530    0.2900 ha        1 FD3      0.141000
     55 H41        -1.3360    7.3570    0.0050 ha        1 FD3      0.174000
     56 H11         0.8260    5.1140   -3.9220 ha        1 FD3      0.169000
     57 H51        -1.9790    9.2570   -1.4510 ha        1 FD3      0.169000
     58 H61        -1.9750   10.3410   -3.7020 ha        1 FD3      0.176000
     59 H71        -0.8930    9.2210   -5.6430 ha        1 FD3      0.176000
     60 H81         0.2040    6.9930   -5.3650 ha        1 FD3      0.161000
     61 H433        1.7910    2.6030    2.2510 hn        1 FD3      0.475800
     62 H292       -1.1240    2.8930   -2.3050 hn        1 FD3      0.467800
@<TRIPOS>BOND
     1    1    2 ar  
     2    1    3 ar  
     3    1   10 1   
     4    2    6 ar  
     5    2   34 1   
     6    3    4 ar  
     7    3   35 1   
     8    4    5 ar  
     9    4   36 1   
    10    5    6 ar  
    11    5   37 1   
    12    6    7 1   
    13    7    8 1   
    14    7    9 2   
    15    8   38 1   
    16    8   39 1   
    17    8   61 1   
    18    9   40 1   
    19   10   11 1   
    20   10   41 1   
    21   10   42 1   
    22   11   12 1   
    23   11   20 1   
    24   11   43 1   
    25   12   13 2   
    26   12   14 1   
    27   14   15 1   
    28   14   18 1   
    29   15   16 1   
    30   15   44 1   
    31   15   45 1   
    32   16   19 1   
    33   16   46 1   
    34   16   47 1   
    35   17   18 1   
    36   17   19 1   
    37   17   48 1   
    38   17   49 1   
    39   18   50 1   
    40   18   51 1   
    41   19   52 1   
    42   20   21 1   
    43   20   53 1   
    44   20   62 1   
    45   21   22 2   
    46   21   23 2   
    47   21   24 1   
    48   24   25 ar  
    49   24   29 ar  
    50   25   26 ar  
    51   25   54 1   
    52   26   28 ar  
    53   26   55 1   
    54   27   28 ar  
    55   27   29 ar  
    56   27   33 ar  
    57   28   30 ar  
    58   29   56 1   
    59   30   31 ar  
    60   30   57 1   
    61   31   32 ar  
    62   31   58 1   
    63   32   33 ar  
    64   32   59 1   
    65   33   60 1   
@<TRIPOS>SUBSTRUCTURE
     1 FD3         1 TEMP              0 ****  ****    0 ROOT
