@<TRIPOS>MOLECULE
FD4
   65    68     1     0     0
SMALL
bcc


@<TRIPOS>ATOM
      1 C65         0.8410    1.3230   -2.9970 ca        1 FD4     -0.102300
      2 C66         1.5040    0.1210   -3.2760 ca        1 FD4     -0.087000
      3 C64         0.1670    1.9920   -4.0240 ca        1 FD4     -0.102000
      4 C63         0.1560    1.4660   -5.3150 ca        1 FD4     -0.130000
      5 C62         0.8070    0.2650   -5.5930 ca        1 FD4     -0.102000
      6 C61         1.4750   -0.4110   -4.5670 ca        1 FD4     -0.134900
      7 C25         2.1630   -1.7140   -4.8410 ce        1 FD4      0.654800
      8 N43         1.3690   -2.6470   -5.5440 nh        1 FD4     -0.951800
      9 N54         3.4040   -1.8460   -4.4800 n2        1 FD4     -0.836100
     10 C34         0.8850    1.8940   -1.6250 c3        1 FD4     -0.047100
     11 C31         0.2050    0.9810   -0.5830 c3        1 FD4      0.189500
     12 C35         0.5770    1.5610    0.8080 c         1 FD4      0.638100
     13 O36        -0.2030    2.3400    1.3930 o         1 FD4     -0.605100
     14 N81         1.7780    1.2140    1.4030 n         1 FD4     -0.472800
     15 C71         2.1160    1.7590    2.7030 c3        1 FD4      0.066500
     16 C72         2.8390    0.7420    3.6150 c3        1 FD4      0.074000
     17 C74         3.5620   -0.5090    1.6690 c3        1 FD4      0.074000
     18 C75         2.8430    0.5050    0.7410 c3        1 FD4      0.066500
     19 N40         3.9140    0.0310    2.9570 n         1 FD4     -0.470800
     20 N29        -1.2180    0.8810   -0.7390 n3        1 FD4     -0.900100
     21 S12        -2.0290   -0.4860   -1.0620 sy        1 FD4      1.522200
     22 O32        -2.8840   -0.2840   -2.1620 o         1 FD4     -0.657800
     23 O33        -1.1190   -1.5670   -1.1570 o         1 FD4     -0.657800
     24 C2         -2.9750   -0.6870    0.3170 ca        1 FD4     -0.385500
     25 C3         -4.2360   -0.0370    0.4010 ca        1 FD4     -0.047000
     26 C4         -5.0420   -0.1890    1.4990 ca        1 FD4     -0.131000
     27 C9         -3.3820   -1.6740    2.5120 ca        1 FD4     -0.073000
     28 C10        -4.6330   -1.0090    2.5860 ca        1 FD4      0.013000
     29 C1         -2.5720   -1.4920    1.3620 ca        1 FD4      0.032000
     30 C5         -5.4430   -1.1850    3.7410 ca        1 FD4     -0.133000
     31 C6         -5.0200   -1.9900    4.7700 ca        1 FD4     -0.102000
     32 C7         -3.7720   -2.6560    4.6950 ca        1 FD4     -0.134000
     33 C8         -2.9690   -2.5030    3.5920 ca        1 FD4     -0.099000
     34 C48         5.2320    0.2140    3.3700 c         1 FD4      0.657100
     35 O49         5.4740    0.8790    4.3970 o         1 FD4     -0.602100
     36 C55         6.3500   -0.4530    2.6090 c3        1 FD4     -0.170100
     37 H661        2.0500   -0.4050   -2.4780 ha        1 FD4      0.141000
     38 H641       -0.3580    2.9360   -3.8130 ha        1 FD4      0.136000
     39 H631       -0.3710    2.0010   -6.1190 ha        1 FD4      0.138000
     40 H621        0.7990   -0.1430   -6.6150 ha        1 FD4      0.146000
     41 H431        1.6340   -3.6020   -5.4650 hn        1 FD4      0.400800
     42 H432        0.3890   -2.4930   -5.4900 hn        1 FD4      0.400800
     43 H541        3.8310   -2.7270   -4.6750 hn        1 FD4      0.381400
     44 H341        0.4030    2.9080   -1.6040 hc        1 FD4      0.065200
     45 H342        1.9590    2.0240   -1.3200 hc        1 FD4      0.065200
     46 H311        0.6210   -0.0690   -0.6900 h1        1 FD4      0.093700
     47 H711        1.1740    2.0890    3.2260 h1        1 FD4      0.061450
     48 H712        2.7740    2.6630    2.5610 h1        1 FD4      0.061450
     49 H721        2.0940   -0.0240    3.9760 h1        1 FD4      0.067450
     50 H722        3.2390    1.3010    4.5070 h1        1 FD4      0.067450
     51 H741        4.4710   -0.8790    1.1190 h1        1 FD4      0.067450
     52 H742        2.8750   -1.3880    1.8410 h1        1 FD4      0.067450
     53 H751        2.4630   -0.0720   -0.1450 h1        1 FD4      0.061450
     54 H752        3.6020    1.2540    0.3650 h1        1 FD4      0.061450
     55 H291       -1.6860    1.7390   -0.5500 hn        1 FD4      0.460800
     56 H31        -4.5640    0.5820   -0.4530 ha        1 FD4      0.151000
     57 H41        -6.0180    0.3180    1.5570 ha        1 FD4      0.142000
     58 H11        -1.6040   -2.0230    1.3080 ha        1 FD4      0.151000
     59 H51        -6.4110   -0.6650    3.7920 ha        1 FD4      0.139000
     60 H61        -5.6440   -2.1280    5.6660 ha        1 FD4      0.137000
     61 H71        -3.4570   -3.2960    5.5330 ha        1 FD4      0.138000
     62 H81        -1.9980   -3.0170    3.5230 ha        1 FD4      0.137000
     63 H551        7.3010   -0.3050    3.1800 hc        1 FD4      0.067700
     64 H552        6.1630   -1.5480    2.4980 hc        1 FD4      0.067700
     65 H553        6.4630    0.0090    1.5990 hc        1 FD4      0.067700
@<TRIPOS>BOND
     1    1    2 ar  
     2    1    3 ar  
     3    1   10 1   
     4    2    6 ar  
     5    2   37 1   
     6    3    4 ar  
     7    3   38 1   
     8    4    5 ar  
     9    4   39 1   
    10    5    6 ar  
    11    5   40 1   
    12    6    7 1   
    13    7    8 1   
    14    7    9 2   
    15    8   41 1   
    16    8   42 1   
    17    9   43 1   
    18   10   11 1   
    19   10   44 1   
    20   10   45 1   
    21   11   12 1   
    22   11   20 1   
    23   11   46 1   
    24   12   13 2   
    25   12   14 1   
    26   14   15 1   
    27   14   18 1   
    28   15   16 1   
    29   15   47 1   
    30   15   48 1   
    31   16   19 1   
    32   16   49 1   
    33   16   50 1   
    34   17   18 1   
    35   17   19 1   
    36   17   51 1   
    37   17   52 1   
    38   18   53 1   
    39   18   54 1   
    40   19   34 1   
    41   20   21 1   
    42   20   55 1   
    43   21   22 2   
    44   21   23 2   
    45   21   24 1   
    46   24   25 ar  
    47   24   29 ar  
    48   25   26 ar  
    49   25   56 1   
    50   26   28 ar  
    51   26   57 1   
    52   27   28 ar  
    53   27   29 ar  
    54   27   33 ar  
    55   28   30 ar  
    56   29   58 1   
    57   30   31 ar  
    58   30   59 1   
    59   31   32 ar  
    60   31   60 1   
    61   32   33 ar  
    62   32   61 1   
    63   33   62 1   
    64   34   35 2   
    65   34   36 1   
    66   36   63 1   
    67   36   64 1   
    68   36   65 1   
@<TRIPOS>SUBSTRUCTURE
     1 FD4         1 TEMP              0 ****  ****    0 ROOT
