@<TRIPOS>MOLECULE
FD4
   65    59     1     0     0
SMALL
bcc


@<TRIPOS>ATOM
      1 C65         1.7160   -1.5680    0.5090 c1        1 FD4     -0.088000
      2 C66         2.4580   -1.3450    1.6860 c1        1 FD4     -0.105000
      3 C64         0.4060   -2.0640    0.5930 c1        1 FD4     -0.121000
      4 C63        -0.1640   -2.3370    1.8490 c1        1 FD4     -0.114250
      5 C62         0.5720   -2.1150    3.0120 c1        1 FD4     -0.114250
      6 C61         1.8900   -1.6170    2.9310 c1        1 FD4     -0.108000
      7 C25         2.7680   -1.5020    4.2390 c2        1 FD4      0.112000
      8 N43         3.2570   -2.6630    4.8580 n3        1 FD4     -0.330000
      9 N54         3.0500   -0.2770    4.7680 n1        1 FD4     -0.298000
     10 C34         2.4340   -1.5050   -0.8770 c3        1 FD4     -0.128000
     11 C31         2.4070   -0.1160   -1.3870 c3        1 FD4      0.037000
     12 C35         1.7020   -0.0860   -2.7810 c2        1 FD4      0.274000
     13 O36         2.2010    0.4940   -3.6800 o         1 FD4     -0.378000
     14 N81         0.3680   -0.7160   -2.9540 n         1 FD4     -0.292000
     15 C71        -0.3750   -0.6580   -4.1790 c3        1 FD4     -0.059500
     16 C72        -0.8320   -2.0330   -4.6360 c3        1 FD4     -0.039000
     17 C74        -0.7540   -2.8070   -2.3820 c3        1 FD4     -0.039000
     18 C75        -0.2940   -1.4240   -1.9240 c3        1 FD4     -0.059500
     19 N40        -1.4970   -2.7460   -3.5980 n         1 FD4     -0.324000
     20 N29         1.6990    0.7090   -0.4750 n3        1 FD4     -0.885000
     21 S12         0.5540    1.7510   -1.0280 s4        1 FD4      2.071800
     22 O32         1.1380    2.7880   -1.8280 o         1 FD4     -0.542400
     23 O33        -0.3380    1.0980   -2.0150 o         1 FD4     -0.542400
     24 C2         -0.3710    2.4280    0.3340 c1        1 FD4     -0.849000
     25 C3         -1.1020    1.7480    1.3260 c2        1 FD4     -0.048000
     26 C4         -1.7160    2.4640    2.3550 c1        1 FD4     -0.136000
     27 C9         -0.8820    4.5580    1.4240 c1        1 FD4     -0.031500
     28 C10        -1.6030    3.8850    2.4020 c1        1 FD4     -0.031500
     29 C1         -0.2580    3.8300    0.3780 c1        1 FD4      0.035000
     30 C5         -2.1670    4.6040    3.4840 c1        1 FD4     -0.114500
     31 C6         -1.9960    5.9940    3.5680 c1        1 FD4     -0.114250
     32 C7         -1.2670    6.6740    2.5790 c1        1 FD4     -0.114250
     33 C8         -0.7110    5.9680    1.5120 c1        1 FD4     -0.114500
     34 C48        -2.7980   -3.3460   -3.7600 c2        1 FD4      0.302000
     35 O49        -3.3790   -3.2540   -4.8270 o         1 FD4     -0.359000
     36 C55        -3.5300   -3.9180   -2.5400 c3        1 FD4     -0.239000
     37 H661        3.3650   -1.0030    1.6310 ha        1 FD4      0.144000
     38 H641       -0.1010   -2.2160   -0.2060 ha        1 FD4      0.132000
     39 H631       -1.1040   -2.6930    1.9100 ha        1 FD4      0.143000
     40 H621        0.1730   -2.3050    3.8890 ha        1 FD4      0.143000
     41 H431        3.7200   -2.5990    5.6490 hn        1 FD4      0.194000
     42 H432        3.1800   -3.4870    4.4300 hn        1 FD4      0.194000
     43 H541        2.7330    0.4760    4.3680 DU        1 FD4      0.153000
     44 H341        3.3760   -1.7990   -0.7740 hc        1 FD4      0.109000
     45 H342        1.9570   -2.1160   -1.5350 hc        1 FD4      0.109000
     46 H311        3.3570    0.2260   -1.4830 h1        1 FD4      0.119000
     47 H711        0.2120   -0.2480   -4.9020 h1        1 FD4      0.104250
     48 H712       -1.1480   -0.0980   -4.0500 h1        1 FD4      0.104250
     49 H721       -0.0770   -2.5330   -4.9200 h1        1 FD4      0.105000
     50 H722       -1.4550   -1.9260   -5.4030 h1        1 FD4      0.105000
     51 H741        0.0530   -3.3890   -2.5190 h1        1 FD4      0.105000
     52 H742       -1.3070   -3.1960   -1.6990 h1        1 FD4      0.105000
     53 H751       -1.0900   -0.8980   -1.6310 h1        1 FD4      0.104250
     54 H752        0.3200   -1.5270   -1.1610 h1        1 FD4      0.104250
     55 H291        1.9380    0.7280    0.3840 hn        1 FD4      0.246000
     56 H31        -1.2100    0.7540    1.2740 ha        1 FD4      0.159000
     57 H41        -2.2180    1.9970    3.0350 ha        1 FD4      0.143000
     58 H11         0.2290    4.3310   -0.3790 ha        1 FD4      0.165000
     59 H51        -2.6930    4.1130    4.1970 ha        1 FD4      0.144000
     60 H61        -2.3990    6.5070    4.3410 ha        1 FD4      0.143000
     61 H71        -1.1500    7.6280    2.6390 ha        1 FD4      0.143000
     62 H81        -0.2000    6.4460    0.8200 ha        1 FD4      0.144000
     63 H551       -3.7670   -3.1810   -1.9220 hc        1 FD4      0.107333
     64 H552       -4.3130   -4.3540   -2.8220 hc        1 FD4      0.107333
     65 H553       -2.9690   -4.5330   -2.0960 hc        1 FD4      0.107333
@<TRIPOS>BOND
     1    1    3 1   
     2    1   10 1   
     3    2    6 1   
     4    2   37 1   
     5    3   38 1   
     6    4    5 1   
     7    4   39 1   
     8    5   40 1   
     9    6    7 1   
    10    7    8 1   
    11    7    9 1   
    12    8   41 1   
    13    8   42 1   
    14   10   11 1   
    15   10   44 1   
    16   10   45 1   
    17   11   12 1   
    18   11   20 1   
    19   11   46 1   
    20   12   13 1   
    21   12   14 1   
    22   14   15 1   
    23   14   18 1   
    24   15   16 1   
    25   15   47 1   
    26   15   48 1   
    27   16   19 1   
    28   16   49 1   
    29   16   50 1   
    30   17   18 1   
    31   17   19 1   
    32   17   51 1   
    33   17   52 1   
    34   18   53 1   
    35   18   54 1   
    36   19   34 1   
    37   20   21 1   
    38   20   55 1   
    39   21   22 1   
    40   21   23 1   
    41   24   25 1   
    42   24   29 1   
    43   25   26 1   
    44   25   56 1   
    45   26   57 1   
    46   27   28 1   
    47   27   33 1   
    48   28   30 1   
    49   29   58 1   
    50   30   59 1   
    51   31   32 1   
    52   31   60 1   
    53   32   61 1   
    54   33   62 1   
    55   34   35 1   
    56   34   36 1   
    57   36   63 1   
    58   36   64 1   
    59   36   65 1   
@<TRIPOS>SUBSTRUCTURE
     1 FD4         1 TEMP              0 ****  ****    0 ROOT
