@<TRIPOS>MOLECULE
FD4
   67    70     1     0     0
SMALL
bcc


@<TRIPOS>ATOM
      1 C65        -0.1550   -0.0520   -0.4740 ca        1 FD4     -0.120300
      2 C66         0.9680    0.3590    0.2500 ca        1 FD4     -0.114000
      3 C64        -1.1250   -0.8470    0.1600 ca        1 FD4     -0.068000
      4 C63        -0.9750   -1.2160    1.4950 ca        1 FD4     -0.100000
      5 C62         0.1380   -0.7930    2.2230 ca        1 FD4     -0.070000
      6 C61         1.1050    0.0000    1.5960 ca        1 FD4     -0.234900
      7 C25         2.3020    0.4150    2.3640 ce        1 FD4      0.576800
      8 N43         2.4370    1.9100    2.4510 n4        1 FD4     -0.814600
      9 N54         3.2000   -0.2750    2.9520 n2        1 FD4     -0.691100
     10 C34        -0.3280    0.2690   -1.9170 c3        1 FD4     -0.064100
     11 C31         0.1700    1.6560   -2.3410 c3        1 FD4      0.057500
     12 C35        -0.3100    1.9200   -3.8040 c         1 FD4      0.644100
     13 O36        -1.2140    2.7770   -3.9540 o         1 FD4     -0.627100
     14 N81         0.2120    1.2100   -4.8400 n         1 FD4     -0.416800
     15 C71        -0.3240    1.4070   -6.1860 c3        1 FD4      0.050500
     16 C72         0.7700    1.6730   -7.2420 c3        1 FD4      0.078000
     17 C74         2.4260    0.5930   -5.8520 c3        1 FD4      0.078000
     18 C75         1.3550    0.3260   -4.7550 c3        1 FD4      0.050500
     19 N40         1.8770    0.7500   -7.1670 n         1 FD4     -0.486800
     20 N29        -0.3190    2.7460   -1.4410 n4        1 FD4     -0.709900
     21 S12         1.0000    3.9970   -0.9050 sy        1 FD4      1.521200
     22 O32         1.3130    3.4720    0.3630 o         1 FD4     -0.637300
     23 O33         1.9830    3.8570   -1.8660 o         1 FD4     -0.637300
     24 C2          0.1230    5.2970   -0.9360 ca        1 FD4     -0.595500
     25 C3         -0.6350    5.6880    0.2220 ca        1 FD4     -0.073000
     26 C4         -1.3630    6.8390    0.2480 ca        1 FD4     -0.091000
     27 C9         -0.6570    7.3450   -2.0490 ca        1 FD4     -0.097000
     28 C10        -1.4020    7.7080   -0.8850 ca        1 FD4      0.058000
     29 C1          0.0820    6.1530   -2.0500 ca        1 FD4      0.120000
     30 C5         -2.1470    8.9070   -0.8850 ca        1 FD4     -0.147000
     31 C6         -2.1530    9.7210   -2.0010 ca        1 FD4     -0.022000
     32 C7         -1.4160    9.3670   -3.1570 ca        1 FD4     -0.113000
     33 C8         -0.6820    8.2060   -3.1860 ca        1 FD4     -0.071000
     34 C48         2.1020   -0.1660   -8.2090 c         1 FD4      0.661100
     35 O49         1.3680   -0.1270   -9.2100 o         1 FD4     -0.560100
     36 C55         3.2600   -1.1220   -8.1150 c3        1 FD4     -0.171100
     37 H661        1.7580    0.9460   -0.2420 ha        1 FD4      0.127000
     38 H641       -2.0070   -1.1940   -0.4060 ha        1 FD4      0.173000
     39 H631       -1.7380   -1.8510    1.9800 ha        1 FD4      0.184000
     40 H621        0.2480   -1.0890    3.2800 ha        1 FD4      0.169000
     41 H431        1.5260    2.3100    2.6990 hn        1 FD4      0.475800
     42 H432        3.1420    2.1930    3.1430 hn        1 FD4      0.475800
     43 H541        3.1530   -1.2740    2.9110 hn        1 FD4      0.494400
     44 H341       -1.4130    0.1680   -2.2010 hc        1 FD4      0.106700
     45 H342        0.2390   -0.4940   -2.5260 hc        1 FD4      0.106700
     46 H311        1.3010    1.6930   -2.3090 hx        1 FD4      0.114700
     47 H711       -1.0400    2.2770   -6.1910 h1        1 FD4      0.072450
     48 H712       -0.8940    0.4720   -6.4560 h1        1 FD4      0.072450
     49 H721        0.2840    1.6110   -8.2590 h1        1 FD4      0.078700
     50 H722        1.1730    2.7170   -7.1020 h1        1 FD4      0.078700
     51 H741        2.9780    1.5400   -5.5820 h1        1 FD4      0.078700
     52 H742        3.1560   -0.2630   -5.8160 h1        1 FD4      0.078700
     53 H751        1.8720    0.4230   -3.7630 h1        1 FD4      0.072450
     54 H752        0.9780   -0.7340   -4.8590 h1        1 FD4      0.072450
     55 H291       -0.7320    2.3130   -0.6150 hn        1 FD4      0.467800
     56 H31        -0.5970    5.0350    1.1100 ha        1 FD4      0.141000
     57 H41        -1.9350    7.1260    1.1480 ha        1 FD4      0.174000
     58 H11         0.6590    5.8880   -2.9590 ha        1 FD4      0.169000
     59 H51        -2.7210    9.1850    0.0140 ha        1 FD4      0.169000
     60 H61        -2.7340   10.6610   -2.0020 ha        1 FD4      0.176000
     61 H71        -1.4380   10.0380   -4.0330 ha        1 FD4      0.177000
     62 H81        -0.1060    7.9250   -4.0830 ha        1 FD4      0.161000
     63 H551        4.2080   -0.5860   -7.8650 hc        1 FD4      0.076367
     64 H552        3.0580   -1.9050   -7.3450 hc        1 FD4      0.076367
     65 H553        3.3830   -1.6220   -9.1090 hc        1 FD4      0.076367
     66 H433        2.7000    2.2740    1.5250 hn        1 FD4      0.475800
     67 H292       -1.0850    3.2380   -1.9340 hn        1 FD4      0.467800
@<TRIPOS>BOND
     1    1    2 ar  
     2    1    3 ar  
     3    1   10 1   
     4    2    6 ar  
     5    2   37 1   
     6    3    4 ar  
     7    3   38 1   
     8    4    5 ar  
     9    4   39 1   
    10    5    6 ar  
    11    5   40 1   
    12    6    7 1   
    13    7    8 1   
    14    7    9 2   
    15    8   41 1   
    16    8   42 1   
    17    8   66 1   
    18    9   43 1   
    19   10   11 1   
    20   10   44 1   
    21   10   45 1   
    22   11   12 1   
    23   11   20 1   
    24   11   46 1   
    25   12   13 2   
    26   12   14 1   
    27   14   15 1   
    28   14   18 1   
    29   15   16 1   
    30   15   47 1   
    31   15   48 1   
    32   16   19 1   
    33   16   49 1   
    34   16   50 1   
    35   17   18 1   
    36   17   19 1   
    37   17   51 1   
    38   17   52 1   
    39   18   53 1   
    40   18   54 1   
    41   19   34 1   
    42   20   21 1   
    43   20   55 1   
    44   20   67 1   
    45   21   22 2   
    46   21   23 2   
    47   21   24 1   
    48   24   25 ar  
    49   24   29 ar  
    50   25   26 ar  
    51   25   56 1   
    52   26   28 ar  
    53   26   57 1   
    54   27   28 ar  
    55   27   29 ar  
    56   27   33 ar  
    57   28   30 ar  
    58   29   58 1   
    59   30   31 ar  
    60   30   59 1   
    61   31   32 ar  
    62   31   60 1   
    63   32   33 ar  
    64   32   61 1   
    65   33   62 1   
    66   34   35 2   
    67   34   36 1   
    68   36   63 1   
    69   36   64 1   
    70   36   65 1   
@<TRIPOS>SUBSTRUCTURE
     1 FD4         1 TEMP              0 ****  ****    0 ROOT
