@<TRIPOS>MOLECULE
FD4
   67    70     1     0     0
SMALL
bcc


@<TRIPOS>ATOM
      1 C65        -0.2300   -0.0080   -0.4420 ca        1 FD4     -0.120300
      2 C66         0.8920    0.3910    0.2890 ca        1 FD4     -0.114000
      3 C64        -1.2240   -0.7720    0.1920 ca        1 FD4     -0.068000
      4 C63        -1.0980   -1.1230    1.5340 ca        1 FD4     -0.100000
      5 C62         0.0150   -0.7120    2.2690 ca        1 FD4     -0.070000
      6 C61         1.0070    0.0500    1.6420 ca        1 FD4     -0.234900
      7 C25         2.2020    0.4520    2.4170 ce        1 FD4      0.576800
      8 N43         2.3680    1.9450    2.4830 n4        1 FD4     -0.814600
      9 N54         3.0790   -0.2470    3.0270 n2        1 FD4     -0.691100
     10 C34        -0.3790    0.2940   -1.8930 c3        1 FD4     -0.064100
     11 C31         0.1520    1.6630   -2.3320 c3        1 FD4      0.057500
     12 C35        -0.3040    1.9140   -3.8040 c         1 FD4      0.644100
     13 O36        -1.1880    2.7880   -3.9790 o         1 FD4     -0.627100
     14 N81         0.2150    1.1780   -4.8230 n         1 FD4     -0.416800
     15 C71        -0.3020    1.3640   -6.1780 c3        1 FD4      0.050500
     16 C72         0.8100    1.5880   -7.2250 c3        1 FD4      0.078000
     17 C74         2.4260    0.4950   -5.7990 c3        1 FD4      0.078000
     18 C75         1.3370    0.2700   -4.7100 c3        1 FD4      0.050500
     19 N40         1.8950    0.6420   -7.1220 n         1 FD4     -0.485800
     20 N29        -0.3230    2.7770   -1.4550 n4        1 FD4     -0.709900
     21 S12         1.0140    4.0090   -0.9220 sy        1 FD4      1.521200
     22 O32         1.3020    3.4980    0.3570 o         1 FD4     -0.637300
     23 O33         2.0060    3.8340   -1.8690 o         1 FD4     -0.637300
     24 C2          0.1660    5.3270   -0.9830 ca        1 FD4     -0.595500
     25 C3         -0.5970    5.7500    0.1590 ca        1 FD4     -0.073000
     26 C4         -1.3020    6.9170    0.1590 ca        1 FD4     -0.091000
     27 C9         -0.5580    7.3720   -2.1360 ca        1 FD4     -0.097000
     28 C10        -1.3090    7.7690   -0.9870 ca        1 FD4      0.058000
     29 C1          0.1560    6.1660   -2.1100 ca        1 FD4      0.120000
     30 C5         -2.0290    8.9830   -1.0150 ca        1 FD4     -0.147000
     31 C6         -2.0050    9.7800   -2.1430 ca        1 FD4     -0.022000
     32 C7         -1.2620    9.3930   -3.2840 ca        1 FD4     -0.113000
     33 C8         -0.5520    8.2160   -3.2870 ca        1 FD4     -0.071000
     34 C48         2.1100   -0.2980   -8.1460 c         1 FD4      0.661100
     35 O49         1.3870   -0.2600   -9.1550 o         1 FD4     -0.560100
     36 C55         3.2450   -1.2780   -8.0220 c3        1 FD4     -0.171100
     37 H661        1.7010    0.9540   -0.2020 ha        1 FD4      0.127000
     38 H641       -2.1070   -1.1090   -0.3790 ha        1 FD4      0.173000
     39 H631       -1.8800   -1.7350    2.0200 ha        1 FD4      0.184000
     40 H621        0.1060   -0.9940    3.3320 ha        1 FD4      0.169000
     41 H431        3.0710    2.2240    3.1790 hn        1 FD4      0.475800
     42 H432        1.4630    2.3680    2.7130 hn        1 FD4      0.475800
     43 H541        3.0110   -1.2450    3.0010 hn        1 FD4      0.494400
     44 H341       -1.4630    0.2110   -2.1880 hc        1 FD4      0.106700
     45 H342        0.1780   -0.4900   -2.4820 hc        1 FD4      0.106700
     46 H311        1.2830    1.6780   -2.2860 hx        1 FD4      0.114700
     47 H711       -0.8900    0.4380   -6.4390 h1        1 FD4      0.072450
     48 H712       -0.9970    2.2500   -6.2050 h1        1 FD4      0.072450
     49 H721        1.2360    2.6250   -7.0980 h1        1 FD4      0.078700
     50 H722        0.3340    1.5200   -8.2470 h1        1 FD4      0.078700
     51 H741        2.9960    1.4340   -5.5380 h1        1 FD4      0.078700
     52 H742        3.1360   -0.3760   -5.7390 h1        1 FD4      0.078700
     53 H751        1.8450    0.3740   -3.7130 h1        1 FD4      0.072450
     54 H752        0.9390   -0.7820   -4.8010 h1        1 FD4      0.072450
     55 H291       -0.7560    2.3660   -0.6270 hn        1 FD4      0.467800
     56 H31        -0.5830    5.1110    1.0580 ha        1 FD4      0.141000
     57 H41        -1.8780    7.2290    1.0480 ha        1 FD4      0.174000
     58 H11         0.7380    5.8740   -3.0080 ha        1 FD4      0.169000
     59 H51        -2.6080    9.2870   -0.1270 ha        1 FD4      0.169000
     60 H61        -2.5670   10.7310   -2.1650 ha        1 FD4      0.176000
     61 H71        -1.2600   10.0500   -4.1710 ha        1 FD4      0.177000
     62 H81         0.0290    7.9090   -4.1720 ha        1 FD4      0.161000
     63 H551        4.2020   -0.7590   -7.7710 hc        1 FD4      0.076367
     64 H552        3.3670   -1.7980   -9.0060 hc        1 FD4      0.076367
     65 H553        3.0170   -2.0420   -7.2410 hc        1 FD4      0.076367
     66 H433        2.6500    2.2890    1.5550 hn        1 FD4      0.475800
     67 H292       -1.0730    3.2770   -1.9640 hn        1 FD4      0.467800
@<TRIPOS>BOND
     1    1    2 ar  
     2    1    3 ar  
     3    1   10 1   
     4    2    6 ar  
     5    2   37 1   
     6    3    4 ar  
     7    3   38 1   
     8    4    5 ar  
     9    4   39 1   
    10    5    6 ar  
    11    5   40 1   
    12    6    7 1   
    13    7    8 1   
    14    7    9 2   
    15    8   41 1   
    16    8   42 1   
    17    8   66 1   
    18    9   43 1   
    19   10   11 1   
    20   10   44 1   
    21   10   45 1   
    22   11   12 1   
    23   11   20 1   
    24   11   46 1   
    25   12   13 2   
    26   12   14 1   
    27   14   15 1   
    28   14   18 1   
    29   15   16 1   
    30   15   47 1   
    31   15   48 1   
    32   16   19 1   
    33   16   49 1   
    34   16   50 1   
    35   17   18 1   
    36   17   19 1   
    37   17   51 1   
    38   17   52 1   
    39   18   53 1   
    40   18   54 1   
    41   19   34 1   
    42   20   21 1   
    43   20   55 1   
    44   20   67 1   
    45   21   22 2   
    46   21   23 2   
    47   21   24 1   
    48   24   25 ar  
    49   24   29 ar  
    50   25   26 ar  
    51   25   56 1   
    52   26   28 ar  
    53   26   57 1   
    54   27   28 ar  
    55   27   29 ar  
    56   27   33 ar  
    57   28   30 ar  
    58   29   58 1   
    59   30   31 ar  
    60   30   59 1   
    61   31   32 ar  
    62   31   60 1   
    63   32   33 ar  
    64   32   61 1   
    65   33   62 1   
    66   34   35 2   
    67   34   36 1   
    68   36   63 1   
    69   36   64 1   
    70   36   65 1   
@<TRIPOS>SUBSTRUCTURE
     1 FD4         1 TEMP              0 ****  ****    0 ROOT
