@<TRIPOS>MOLECULE
FD4
   67    70     1     0     0
SMALL
bcc


@<TRIPOS>ATOM
      1 C65        -0.1660   -0.0500   -0.4750 ca        1 FD4     -0.120300
      2 C66         0.9500    0.3640    0.2580 ca        1 FD4     -0.114000
      3 C64        -1.1400   -0.8450    0.1520 ca        1 FD4     -0.068000
      4 C63        -1.0010   -1.2110    1.4890 ca        1 FD4     -0.100000
      5 C62         0.1050   -0.7850    2.2260 ca        1 FD4     -0.070000
      6 C61         1.0770    0.0080    1.6050 ca        1 FD4     -0.234900
      7 C25         2.2660    0.4260    2.3820 ce        1 FD4      0.576800
      8 N43         2.3980    1.9210    2.4670 nz        1 FD4     -0.814600
      9 N54         3.1610   -0.2620    2.9790 n2        1 FD4     -0.691100
     10 C34        -0.3270    0.2680   -1.9210 c3        1 FD4     -0.064100
     11 C31         0.1710    1.6560   -2.3420 c3        1 FD4      0.057500
     12 C35        -0.2960    1.9160   -3.8090 c         1 FD4      0.644100
     13 O36        -1.2000    2.7720   -3.9690 o         1 FD4     -0.627100
     14 N81         0.2350    1.2060   -4.8400 n         1 FD4     -0.416800
     15 C71        -0.2900    1.4000   -6.1910 c3        1 FD4      0.050500
     16 C72         0.8120    1.6660   -7.2380 c3        1 FD4      0.078000
     17 C74         2.4580    0.5900   -5.8330 c3        1 FD4      0.078000
     18 C75         1.3790    0.3230   -4.7450 c3        1 FD4      0.050500
     19 N40         1.9190    0.7440   -7.1520 n         1 FD4     -0.486800
     20 N29        -0.3260    2.7460   -1.4480 ny        1 FD4     -0.709900
     21 S12         0.9860    4.0010   -0.9030 sy        1 FD4      1.521200
     22 O32         1.2900    3.4780    0.3670 o         1 FD4     -0.637300
     23 O33         1.9770    3.8610   -1.8560 o         1 FD4     -0.637300
     24 C2          0.1070    5.2990   -0.9430 ca        1 FD4     -0.595500
     25 C3         -0.6600    5.6900    0.2080 ca        1 FD4     -0.073000
     26 C4         -1.3900    6.8400    0.2270 ca        1 FD4     -0.091000
     27 C9         -0.6670    7.3430   -2.0660 ca        1 FD4     -0.097000
     28 C10        -1.4220    7.7070   -0.9080 ca        1 FD4      0.058000
     29 C1          0.0730    6.1530   -2.0590 ca        1 FD4      0.120000
     30 C5         -2.1690    8.9050   -0.9160 ca        1 FD4     -0.147000
     31 C6         -2.1680    9.7180   -2.0330 ca        1 FD4     -0.022000
     32 C7         -1.4210    9.3630   -3.1830 ca        1 FD4     -0.113000
     33 C8         -0.6850    8.2020   -3.2040 ca        1 FD4     -0.071000
     34 C48         2.1540   -0.1740   -8.1910 c         1 FD4      0.661100
     35 O49         1.4280   -0.1380   -9.1980 o         1 FD4     -0.560100
     36 C55         3.3130   -1.1280   -8.0850 c3        1 FD4     -0.171100
     37 H661        1.7440    0.9520   -0.2290 ha        1 FD4      0.127000
     38 H641       -2.0180   -1.1940   -0.4200 ha        1 FD4      0.173000
     39 H631       -1.7670   -1.8470    1.9690 ha        1 FD4      0.184000
     40 H621        0.2070   -1.0790    3.2840 ha        1 FD4      0.169000
     41 H431        2.6690    2.2840    1.5430 hn        1 FD4      0.475800
     42 H432        1.4850    2.3210    2.7080 hn        1 FD4      0.475800
     43 H541        3.1150   -1.2610    2.9390 hn        1 FD4      0.494400
     44 H341        0.2450   -0.4940   -2.5230 hc        1 FD4      0.106700
     45 H342       -1.4110    0.1660   -2.2130 hc        1 FD4      0.106700
     46 H311        1.3020    1.6950   -2.3010 hx        1 FD4      0.114700
     47 H711       -0.8570    0.4630   -6.4640 h1        1 FD4      0.072450
     48 H712       -1.0070    2.2690   -6.2030 h1        1 FD4      0.072450
     49 H721        1.2130    2.7100   -7.0970 h1        1 FD4      0.078700
     50 H722        0.3350    1.6010   -8.2590 h1        1 FD4      0.078700
     51 H741        3.1890   -0.2650   -5.7890 h1        1 FD4      0.078700
     52 H742        3.0070    1.5380   -5.5600 h1        1 FD4      0.078700
     53 H751        1.8870    0.4230   -3.7480 h1        1 FD4      0.072450
     54 H752        1.0040   -0.7370   -4.8500 h1        1 FD4      0.072450
     55 H291       -0.7460    2.3140   -0.6240 hn        1 FD4      0.467800
     56 H31        -0.6270    5.0390    1.0980 ha        1 FD4      0.141000
     57 H41        -1.9690    7.1280    1.1220 ha        1 FD4      0.174000
     58 H11         0.6580    5.8870   -2.9630 ha        1 FD4      0.169000
     59 H51        -2.7510    9.1840   -0.0210 ha        1 FD4      0.169000
     60 H61        -2.7510   10.6560   -2.0400 ha        1 FD4      0.176000
     61 H71        -1.4390   10.0320   -4.0610 ha        1 FD4      0.177000
     62 H81        -0.1020    7.9210   -4.0960 ha        1 FD4      0.161000
     63 H551        3.4440   -1.6310   -9.0780 hc        1 FD4      0.076367
     64 H552        3.1050   -1.9100   -7.3160 hc        1 FD4      0.076367
     65 H553        4.2570   -0.5910   -7.8290 hc        1 FD4      0.076367
     66 H433        3.0980    2.2060    3.1650 hn        1 FD4      0.475800
     67 H292       -1.0890    3.2360   -1.9480 hn        1 FD4      0.467800
@<TRIPOS>BOND
     1    1    2 ar  
     2    1    3 ar  
     3    1   10 1   
     4    2    6 ar  
     5    2   37 1   
     6    3    4 ar  
     7    3   38 1   
     8    4    5 ar  
     9    4   39 1   
    10    5    6 ar  
    11    5   40 1   
    12    6    7 1   
    13    7    8 1   
    14    7    9 2   
    15    8   41 1   
    16    8   42 1   
    17    8   66 1   
    18    9   43 1   
    19   10   11 1   
    20   10   44 1   
    21   10   45 1   
    22   11   12 1   
    23   11   20 1   
    24   11   46 1   
    25   12   13 2   
    26   12   14 1   
    27   14   15 1   
    28   14   18 1   
    29   15   16 1   
    30   15   47 1   
    31   15   48 1   
    32   16   19 1   
    33   16   49 1   
    34   16   50 1   
    35   17   18 1   
    36   17   19 1   
    37   17   51 1   
    38   17   52 1   
    39   18   53 1   
    40   18   54 1   
    41   19   34 1   
    42   20   21 1   
    43   20   55 1   
    44   20   67 1   
    45   21   22 2   
    46   21   23 2   
    47   21   24 1   
    48   24   25 ar  
    49   24   29 ar  
    50   25   26 ar  
    51   25   56 1   
    52   26   28 ar  
    53   26   57 1   
    54   27   28 ar  
    55   27   29 ar  
    56   27   33 ar  
    57   28   30 ar  
    58   29   58 1   
    59   30   31 ar  
    60   30   59 1   
    61   31   32 ar  
    62   31   60 1   
    63   32   33 ar  
    64   32   61 1   
    65   33   62 1   
    66   34   35 2   
    67   34   36 1   
    68   36   63 1   
    69   36   64 1   
    70   36   65 1   
@<TRIPOS>SUBSTRUCTURE
     1 FD4         1 TEMP              0 ****  ****    0 ROOT
