@<TRIPOS>MOLECULE
FD8
   40    41     1     0     0
SMALL
bcc


@<TRIPOS>ATOM
      1 N           0.6830    0.6330    0.3640 ns        1 FD8     -0.314000
      2 F1          4.2780    2.9940   -1.1820 f         1 FD8     -0.160333
      3 O1          1.8680   -1.3610    0.4390 o         1 FD8     -0.314000
      4 C2          2.8980    1.0920   -1.7480 c2        1 FD8     -0.216000
      5 F2          3.6440    1.7620    0.4890 f         1 FD8     -0.160333
      6 O2         -0.6560   -1.6660    4.3370 os        1 FD8     -0.128000
      7 C3          2.1510    0.0130   -1.4960 c2        1 FD8     -0.086000
      8 F3          2.2170    3.0610   -0.5030 f         1 FD8     -0.160333
      9 C4          1.8510   -0.9870   -2.5680 c3        1 FD8     -0.171000
     10 C5          2.7070   -2.1510   -2.7290 c1        1 FD8     -0.018000
     11 C6          3.6350   -2.5830   -1.7600 c2        1 FD8     -0.541000
     12 C7          4.4590   -3.6070   -1.9470 c1        1 FD8      0.385000
     13 C8          1.5730   -0.3080   -0.1480 c2        1 FD8      0.331000
     14 C9         -0.0310    0.5540    1.5580 c2        1 FD8      0.099000
     15 C10        -0.8850    1.7540    1.9020 c3        1 FD8     -0.195000
     16 C11        -1.6650    1.6960    3.1310 c1        1 FD8     -0.102000
     17 C12        -1.5990    0.5720    3.9520 c2        1 FD8     -0.316000
     18 C13        -0.7990   -0.4990    3.6040 c2        1 FD8      0.213000
     19 C14        -0.0050   -0.5260    2.4050 c2        1 FD8     -0.253000
     20 C15        -1.3770   -1.7570    5.5220 ca        1 FD8     -0.011000
     21 C16        -2.6440   -2.3750    5.5110 ca        1 FD8      0.103500
     22 C17        -3.3150   -2.6130    6.7380 ca        1 FD8      0.038500
     23 C18        -2.7090   -2.2300    7.9600 ca        1 FD8      0.078000
     24 C19        -1.4330   -1.6140    7.9600 ca        1 FD8      0.038500
     25 C20        -0.7630   -1.3770    6.7320 ca        1 FD8      0.103500
     26 HN          0.5770    1.4850   -0.1480 hn        1 FD8      0.248000
     27 H4          1.8390   -0.4590   -3.5680 hc        1 FD8      0.152000
     28 H5          0.8100   -1.4080   -2.4170 hc        1 FD8      0.152000
     29 H6          3.6710   -2.0950   -0.7520 ha        1 FD8      0.204000
     30 H7          3.3320    1.2730   -2.7470 ha        1 FD8      0.178000
     31 H10        -0.2270    2.6700    1.9850 hc        1 FD8      0.160500
     32 H11        -1.6170    1.9520    1.0640 hc        1 FD8      0.160500
     33 H12        -2.1940    0.5550    4.8770 ha        1 FD8      0.153000
     34 H14         0.6020   -1.4280    2.2190 ha        1 FD8      0.190000
     35 C1          3.2530    2.1880   -0.7550 c3        1 FD8      0.449000
     36 F4         -3.2180   -2.7470    4.3510 f         1 FD8     -0.055500
     37 F5         -4.5280   -3.2030    6.7420 f         1 FD8     -0.060000
     38 F6         -3.3470   -2.4540    9.1260 f         1 FD8     -0.058000
     39 F7         -0.8570   -1.2560    9.1260 f         1 FD8     -0.060000
     40 F8          0.4530   -0.7990    6.7350 f         1 FD8     -0.055500
@<TRIPOS>BOND
     1    1   13 1   
     2    1   14 1   
     3    1   26 1   
     4    2   35 1   
     5    3   13 1   
     6    4    7 1   
     7    4   30 1   
     8    4   35 1   
     9    5   35 1   
    10    6   18 1   
    11    6   20 1   
    12    7    9 1   
    13    7   13 1   
    14    8   35 1   
    15    9   10 1   
    16    9   27 1   
    17    9   28 1   
    18   10   11 1   
    19   11   12 1   
    20   11   29 1   
    21   14   15 1   
    22   14   19 1   
    23   15   16 1   
    24   15   31 1   
    25   15   32 1   
    26   16   17 1   
    27   17   18 1   
    28   17   33 1   
    29   18   19 1   
    30   19   34 1   
    31   20   21 1   
    32   20   25 1   
    33   21   22 1   
    34   21   36 1   
    35   22   23 1   
    36   22   37 1   
    37   23   24 1   
    38   23   38 1   
    39   24   25 1   
    40   24   39 1   
    41   25   40 1   
@<TRIPOS>SUBSTRUCTURE
     1 FD8         1 TEMP              0 ****  ****    0 ROOT
