@<TRIPOS>MOLECULE
FD8
   41    41     1     0     0
SMALL
bcc


@<TRIPOS>ATOM
      1 N           0.1580   -0.7520    0.2040 n         1 FD8     -0.396000
      2 F1          4.1500   -2.5310    1.2170 f         1 FD8     -0.163667
      3 O1          0.8880    1.2780   -0.5410 o         1 FD8     -0.322000
      4 C2          3.0100   -1.5030   -0.6520 c2        1 FD8     -0.216000
      5 F2          2.0200   -2.9330    1.0430 f         1 FD8     -0.163667
      6 O2         -0.7550    0.8870    4.6460 os        1 FD8     -0.127000
      7 C3          2.1650   -0.6410   -1.2300 c2        1 FD8     -0.071000
      8 F3          2.6970   -1.0020    1.7300 f         1 FD8     -0.163667
      9 C4          2.2920   -0.2530   -2.6710 c3        1 FD8     -0.164000
     10 C5          3.5390    0.2750   -3.1820 c1        1 FD8     -0.038000
     11 C6          4.6930    0.5330   -2.4240 c2        1 FD8     -0.545000
     12 C7          5.7790    1.0490   -3.0070 c1        1 FD8      0.444000
     13 C8          1.0560    0.0470   -0.5040 c2        1 FD8      0.332000
     14 C9         -0.8560   -0.1630    1.0160 c3        1 FD8     -0.052000
     15 C10        -3.8980    1.4360    0.9630 c1        1 FD8      0.089000
     16 C11        -3.2450    1.3170    1.9740 c1        1 FD8     -0.286000
     17 C12        -2.5710    1.2520    3.1750 c2        1 FD8      0.281000
     18 C13        -1.3210    0.6580    3.3750 c2        1 FD8     -0.104000
     19 C14        -0.4960    0.0480    2.4410 c2        1 FD8      0.137000
     20 C15        -0.9730   -0.1150    5.5900 ca        1 FD8     -0.052000
     21 C16         0.0020   -1.1160    5.7680 ca        1 FD8      0.090500
     22 C17        -0.1160   -2.0260    6.8500 ca        1 FD8      0.061000
     23 C18        -1.2140   -1.9220    7.7420 ca        1 FD8      0.099000
     24 C19        -2.1940   -0.9130    7.5510 ca        1 FD8      0.061000
     25 C20        -2.0690   -0.0070    6.4680 ca        1 FD8      0.090500
     26 HN         -1.7910   -0.8090    0.9810 h1        1 FD8      0.166000
     27 H4          1.5220    0.5420   -2.9220 hc        1 FD8      0.165500
     28 H5          2.0420   -1.1540   -3.3090 hc        1 FD8      0.165500
     29 H6          4.7390    0.3370   -1.3280 ha        1 FD8      0.166000
     30 H7          3.8360   -1.9620   -1.2250 ha        1 FD8      0.191000
     31 H10        -1.1360    0.8520    0.5740 h1        1 FD8      0.166000
     32 H11        -4.4750    1.5420    0.0670 ha        1 FD8      0.274000
     33 H12        -3.0600    1.7320    4.0610 ha        1 FD8      0.218000
     34 H14         0.5100   -0.2950    2.7900 ha        1 FD8      0.213000
     35 F4          1.0450   -1.2110    4.9180 f         1 FD8     -0.069000
     36 F5          0.8130   -2.9840    7.0290 f         1 FD8     -0.040500
     37 F6         -1.3270   -2.7810    8.7700 f         1 FD8     -0.034000
     38 F7         -3.2370   -0.8150    8.3960 f         1 FD8     -0.040500
     39 F8         -2.9970    0.9560    6.2840 f         1 FD8     -0.069000
     40 HN3         0.3140   -1.7320    0.2790 hn        1 FD8      0.256000
     41 C1          2.9750   -1.9720    0.7940 c3        1 FD8      0.449000
@<TRIPOS>BOND
     1    1   13 1   
     2    1   14 1   
     3    1   40 1   
     4    2   41 1   
     5    3   13 1   
     6    4    7 1   
     7    4   30 1   
     8    4   41 1   
     9    5   41 1   
    10    6   18 1   
    11    6   20 1   
    12    7    9 1   
    13    7   13 1   
    14    8   41 1   
    15    9   10 1   
    16    9   27 1   
    17    9   28 1   
    18   10   11 1   
    19   11   12 1   
    20   11   29 1   
    21   14   19 1   
    22   14   26 1   
    23   14   31 1   
    24   15   16 1   
    25   15   32 1   
    26   16   17 1   
    27   17   18 1   
    28   17   33 1   
    29   18   19 1   
    30   19   34 1   
    31   20   21 1   
    32   20   25 1   
    33   21   22 1   
    34   21   35 1   
    35   22   23 1   
    36   22   36 1   
    37   23   24 1   
    38   23   37 1   
    39   24   25 1   
    40   24   38 1   
    41   25   39 1   
@<TRIPOS>SUBSTRUCTURE
     1 FD8         1 TEMP              0 ****  ****    0 ROOT
