@<TRIPOS>MOLECULE
FD8
   40    40     1     0     0
SMALL
bcc


@<TRIPOS>ATOM
      1 N           0.9830    0.9100    0.5830 n         1 FD8     -0.321000
      2 F1          4.1370    2.6280   -2.2970 f         1 FD8     -0.161667
      3 O1          2.2320   -1.0200    0.9010 o         1 FD8     -0.335000
      4 C2          2.6720    0.7270   -2.0200 c2        1 FD8     -0.224000
      5 F2          3.9380    1.8840   -0.2680 f         1 FD8     -0.161667
      6 O2         -0.3310   -1.4000    4.4400 os        1 FD8     -0.139000
      7 C3          2.0060   -0.2070   -1.3340 c2        1 FD8     -0.078000
      8 F3          2.3060    2.9780   -1.1870 f         1 FD8     -0.161667
      9 C4          1.4550   -1.4200   -2.0140 c3        1 FD8     -0.173000
     10 C5          2.2490   -2.6380   -2.0730 c1        1 FD8     -0.016000
     11 C6          3.3740   -2.8760   -1.2580 c2        1 FD8     -0.542000
     12 C7          4.1430   -3.9510   -1.3630 c1        1 FD8      0.374000
     13 C8          1.7680   -0.1440    0.1490 c2        1 FD8      0.335000
     14 C9          0.5940    1.1640    1.9160 c2        1 FD8      0.079000
     15 C10         0.2440    2.4090    2.3120 c2        1 FD8     -0.286000
     16 C11        -2.8520    0.0890    4.3560 c1        1 FD8      0.195000
     17 C12        -1.8130    0.3570    3.5870 c2        1 FD8     -0.462000
     18 C13        -0.5150   -0.2820    3.5970 c2        1 FD8      0.110000
     19 C14         0.5680    0.0430    2.8630 c2        1 FD8     -0.161000
     20 C15        -1.3270   -1.6070    5.3800 ca        1 FD8     -0.038000
     21 C16        -2.3360   -2.5600    5.1120 ca        1 FD8      0.118000
     22 C17        -3.2630   -2.9060    6.1300 ca        1 FD8      0.035500
     23 C18        -3.1650   -2.3060    7.4090 ca        1 FD8      0.092000
     24 C19        -2.1370   -1.3680    7.6780 ca        1 FD8      0.035500
     25 C20        -1.2100   -1.0250    6.6630 ca        1 FD8      0.118000
     26 HN          0.8190    1.6570   -0.0610 hn        1 FD8      0.242000
     27 H4          1.1940   -1.1550   -3.0810 hc        1 FD8      0.151000
     28 H5          0.4850   -1.7300   -1.5150 hc        1 FD8      0.151000
     29 H6          3.6320   -2.1650   -0.4290 ha        1 FD8      0.210000
     30 H7          2.8550    0.6270   -3.1040 ha        1 FD8      0.175000
     31 H10        -0.0770    2.5980    3.3430 ha        1 FD8      0.133500
     32 H11         0.2770    3.2880    1.6560 ha        1 FD8      0.133500
     33 H12        -1.9230    1.1670    2.8280 ha        1 FD8      0.216000
     34 H14         1.4960   -0.5520    2.9540 ha        1 FD8      0.192000
     35 C1          3.2510    2.0110   -1.4490 c3        1 FD8      0.449000
     36 F4         -2.4160   -3.1570    3.9090 f         1 FD8     -0.054000
     37 F5         -4.2340   -3.8090    5.8810 f         1 FD8     -0.060500
     38 F6         -4.0460   -2.6320    8.3750 f         1 FD8     -0.057000
     39 F7         -2.0390   -0.8080    8.9020 f         1 FD8     -0.060500
     40 F8         -0.2240   -0.1470    6.9280 f         1 FD8     -0.054000
@<TRIPOS>BOND
     1    1   13 1   
     2    1   14 1   
     3    1   26 1   
     4    2   35 1   
     5    3   13 1   
     6    4    7 1   
     7    4   30 1   
     8    4   35 1   
     9    5   35 1   
    10    6   18 1   
    11    6   20 1   
    12    7    9 1   
    13    7   13 1   
    14    8   35 1   
    15    9   10 1   
    16    9   27 1   
    17    9   28 1   
    18   10   11 1   
    19   11   12 1   
    20   11   29 1   
    21   14   15 1   
    22   14   19 1   
    23   15   31 1   
    24   15   32 1   
    25   16   17 1   
    26   17   18 1   
    27   17   33 1   
    28   18   19 1   
    29   19   34 1   
    30   20   21 1   
    31   20   25 1   
    32   21   22 1   
    33   21   36 1   
    34   22   23 1   
    35   22   37 1   
    36   23   24 1   
    37   23   38 1   
    38   24   25 1   
    39   24   39 1   
    40   25   40 1   
@<TRIPOS>SUBSTRUCTURE
     1 FD8         1 TEMP              0 ****  ****    0 ROOT
