@<TRIPOS>MOLECULE
FD8
   40    42     1     0     0
SMALL
bcc


@<TRIPOS>ATOM
      1 N          -2.4410   -0.9040    0.6210 n         1 FD8     -0.464100
      2 F1         -5.8650    1.7340    1.9280 f         1 FD8     -0.232633
      3 O1         -2.5070   -0.2850   -1.6150 o         1 FD8     -0.560100
      4 C2         -5.4360   -0.0700    0.3390 ca        1 FD8     -0.143300
      5 F2         -3.9000    1.7110    1.0280 f         1 FD8     -0.232633
      6 O2          2.1030   -0.5320   -0.9270 os        1 FD8     -0.223200
      7 C3         -4.5860   -0.7430   -0.5460 ca        1 FD8     -0.095600
      8 F3         -4.4250    0.2370    2.5320 f         1 FD8     -0.232633
      9 C4         -5.1330   -1.5870   -1.5220 ca        1 FD8     -0.090000
     10 C5         -6.5110   -1.7720   -1.6030 ca        1 FD8     -0.104000
     11 C6         -7.3560   -1.1080   -0.7140 ca        1 FD8     -0.115000
     12 C7         -6.8200   -0.2570    0.2510 ca        1 FD8     -0.091000
     13 C8         -3.0910   -0.6000   -0.5650 c         1 FD8      0.675700
     14 C9         -1.0570   -0.8810    0.8590 ca        1 FD8      0.098600
     15 C10        -0.6060   -1.0870    2.1900 ca        1 FD8     -0.197000
     16 C11         0.7510   -1.0970    2.4800 ca        1 FD8     -0.072000
     17 C12         1.7030   -0.9070    1.4780 ca        1 FD8     -0.207000
     18 C13         1.2540   -0.7010    0.1730 ca        1 FD8      0.130100
     19 C14        -0.1080   -0.6800   -0.1610 ca        1 FD8     -0.165000
     20 C15         3.4380   -0.2950   -0.6430 ca        1 FD8      0.046100
     21 C16         4.3520   -1.3680   -0.7040 ca        1 FD8      0.130400
     22 C17         5.7420   -1.1150   -0.5770 ca        1 FD8      0.069400
     23 C18         6.2040    0.2100   -0.3880 ca        1 FD8      0.105900
     24 C19         5.2810    1.2830   -0.3300 ca        1 FD8      0.069400
     25 C20         3.8920    1.0280   -0.4610 ca        1 FD8      0.130400
     26 HN         -3.0090   -1.0860    1.4210 hn        1 FD8      0.329500
     27 H4         -4.4580   -2.0910   -2.2330 ha        1 FD8      0.162000
     28 H5         -6.9310   -2.4390   -2.3720 ha        1 FD8      0.149000
     29 H6         -8.4460   -1.2490   -0.7740 ha        1 FD8      0.148000
     30 H7         -7.4890    0.2780    0.9450 ha        1 FD8      0.159000
     31 H10        -1.3290   -1.2370    3.0060 ha        1 FD8      0.139000
     32 H11         1.0830   -1.2580    3.5170 ha        1 FD8      0.140000
     33 H12         2.7750   -0.9200    1.7130 ha        1 FD8      0.141000
     34 H14        -0.3990   -0.5060   -1.2100 ha        1 FD8      0.192000
     35 C1         -4.9180    0.8800    1.4180 c3        1 FD8      0.683200
     36 F4          3.9180   -2.6300   -0.8880 f         1 FD8     -0.091400
     37 F5          6.6240   -2.1350   -0.6360 f         1 FD8     -0.097900
     38 F6          7.5250    0.4520   -0.2650 f         1 FD8     -0.095900
     39 F7          5.7240    2.5450   -0.1540 f         1 FD8     -0.097900
     40 F8          3.0200    2.0540   -0.4140 f         1 FD8     -0.091400
@<TRIPOS>BOND
     1    1   13 1   
     2    1   14 1   
     3    1   26 1   
     4    2   35 1   
     5    3   13 2   
     6    4    7 ar  
     7    4   12 ar  
     8    4   35 1   
     9    5   35 1   
    10    6   18 1   
    11    6   20 1   
    12    7    9 ar  
    13    7   13 1   
    14    8   35 1   
    15    9   10 ar  
    16    9   27 1   
    17   10   11 ar  
    18   10   28 1   
    19   11   12 ar  
    20   11   29 1   
    21   12   30 1   
    22   14   15 ar  
    23   14   19 ar  
    24   15   16 ar  
    25   15   31 1   
    26   16   17 ar  
    27   16   32 1   
    28   17   18 ar  
    29   17   33 1   
    30   18   19 ar  
    31   19   34 1   
    32   20   21 ar  
    33   20   25 ar  
    34   21   22 ar  
    35   21   36 1   
    36   22   23 ar  
    37   22   37 1   
    38   23   24 ar  
    39   23   38 1   
    40   24   25 ar  
    41   24   39 1   
    42   25   40 1   
@<TRIPOS>SUBSTRUCTURE
     1 FD8         1 TEMP              0 ****  ****    0 ROOT
