@<TRIPOS>MOLECULE
FD9
   59    63     1     0     0
SMALL
bcc


@<TRIPOS>ATOM
      1 N4         -0.5350   -3.9520   -1.0060 n1        1 FD9     -0.380800
      2 C25        -0.0890   -3.1230   -0.3210 cg        1 FD9      0.232500
      3 C7          0.4480   -2.1270    0.5050 cc        1 FD9     -0.056900
      4 C6          1.6060   -1.3820    0.2530 cd        1 FD9     -0.043100
      5 C8         -0.0870   -1.6750    1.7750 ca        1 FD9     -0.033800
      6 C13        -1.2000   -2.0340    2.5320 ca        1 FD9     -0.139000
      7 C12        -1.4090   -1.3660    3.7360 ca        1 FD9      0.100100
      8 C11        -0.5390   -0.3500    4.2020 ca        1 FD9     -0.128000
      9 C10         0.5730    0.0150    3.4620 ca        1 FD9     -0.117000
     10 C9          0.8070   -0.6410    2.2440 ca        1 FD9     -0.070200
     11 N1          1.8160   -0.4620    1.2780 na        1 FD9     -0.064400
     12 C5          2.9730    0.3830    1.4060 c3        1 FD9      0.126600
     13 C2          4.2160   -0.2970    1.8270 cc        1 FD9     -0.370900
     14 C3          5.1340   -0.9910    1.0570 cd        1 FD9      0.297000
     15 C4          5.2470   -1.3570   -0.3530 c3        1 FD9     -0.148400
     16 O           6.1760   -1.4120    1.9130 os        1 FD9     -0.112100
     17 N           5.9380   -1.0180    3.1500 nd        1 FD9     -0.355300
     18 C1          4.7720   -0.3400    3.1860 cc        1 FD9      0.343600
     19 C           4.1450    0.2610    4.3770 c3        1 FD9     -0.140400
     20 O1         -2.4380   -1.6770    4.6190 os        1 FD9     -0.249200
     21 C14        -3.5660   -2.2860    4.0680 ca        1 FD9      0.059100
     22 C19        -4.2700   -1.7240    3.0000 ca        1 FD9     -0.118000
     23 C18        -5.4620   -2.3000    2.5750 ca        1 FD9     -0.156500
     24 C17        -5.9680   -3.4520    3.2170 ca        1 FD9      0.062600
     25 C16        -5.2330   -4.0070    4.2960 ca        1 FD9     -0.156500
     26 C15        -4.0420   -3.4330    4.7150 ca        1 FD9     -0.118000
     27 N2         -7.1800   -4.0630    2.8560 ns        1 FD9     -0.450100
     28 C20        -7.9420   -3.8040    1.7310 c         1 FD9      0.671100
     29 O2         -7.6890   -2.8990    0.9150 o         1 FD9     -0.598100
     30 C21        -9.2160   -4.6510    1.5160 c3        1 FD9      0.093500
     31 N3         -9.0310   -6.0650    1.8400 n7        1 FD9     -0.820200
     32 C24        -9.9700   -6.4360    2.8940 c3        1 FD9      0.149800
     33 C23       -10.9040   -5.2510    3.1890 c3        1 FD9     -0.103400
     34 C22       -10.3640   -4.0790    2.3800 c3        1 FD9     -0.091400
     35 H6          2.2900   -1.4390   -0.5980 h4        1 FD9      0.173000
     36 H13        -1.8930   -2.8150    2.1860 ha        1 FD9      0.163000
     37 H11        -0.7600    0.1350    5.1630 ha        1 FD9      0.153000
     38 H10         1.2500    0.8020    3.8240 ha        1 FD9      0.135000
     39 H51C        2.7260    1.1920    2.1560 h1        1 FD9      0.072200
     40 H52C        3.1490    0.8700    0.4000 h1        1 FD9      0.072200
     41 H41C        4.7770   -0.5670   -0.9910 hc        1 FD9      0.070033
     42 H42C        4.7200   -2.3290   -0.5360 hc        1 FD9      0.070033
     43 H43C        6.3200   -1.4780   -0.6460 hc        1 FD9      0.070033
     44 HC1         4.7840    0.1480    5.2870 hc        1 FD9      0.062367
     45 HC2         3.1590   -0.2360    4.5680 hc        1 FD9      0.062367
     46 HC3         3.9670    1.3510    4.1970 hc        1 FD9      0.062367
     47 H19        -3.8780   -0.8290    2.4940 ha        1 FD9      0.150000
     48 H15        -3.4760   -3.8620    5.5550 ha        1 FD9      0.150000
     49 H18        -6.0030   -1.8450    1.7290 ha        1 FD9      0.156000
     50 H16        -5.5980   -4.9070    4.8140 ha        1 FD9      0.156000
     51 H2         -7.4180   -4.8740    3.3860 hn        1 FD9      0.330500
     52 H21        -9.4630   -4.5170    0.4210 h1        1 FD9      0.079700
     53 H3         -9.1500   -6.6320    1.0240 hn        1 FD9      0.372800
     54 H221       -9.9930   -3.2650    3.0490 hc        1 FD9      0.062200
     55 H222      -11.1530   -3.6430    1.7200 hc        1 FD9      0.062200
     56 H241       -9.3630   -6.6850    3.8080 h1        1 FD9      0.047200
     57 H242      -10.5620   -7.3490    2.6180 h1        1 FD9      0.047200
     58 H231      -11.9530   -5.4940    2.8870 hc        1 FD9      0.053700
     59 H232      -10.9110   -5.0190    4.2810 hc        1 FD9      0.053700
@<TRIPOS>BOND
     1    1    2 3   
     2    2    3 1   
     3    3    4 2   
     4    3    5 1   
     5    4   11 1   
     6    4   35 1   
     7    5    6 ar  
     8    5   10 ar  
     9    6    7 ar  
    10    6   36 1   
    11    7    8 ar  
    12    7   20 1   
    13    8    9 ar  
    14    8   37 1   
    15    9   10 ar  
    16    9   38 1   
    17   10   11 1   
    18   11   12 1   
    19   12   13 1   
    20   12   39 1   
    21   12   40 1   
    22   13   14 2   
    23   13   18 1   
    24   14   15 1   
    25   14   16 1   
    26   15   41 1   
    27   15   42 1   
    28   15   43 1   
    29   16   17 1   
    30   17   18 2   
    31   18   19 1   
    32   19   44 1   
    33   19   45 1   
    34   19   46 1   
    35   20   21 1   
    36   21   22 ar  
    37   21   26 ar  
    38   22   23 ar  
    39   22   47 1   
    40   23   24 ar  
    41   23   49 1   
    42   24   25 ar  
    43   24   27 1   
    44   25   26 ar  
    45   25   50 1   
    46   26   48 1   
    47   27   28 1   
    48   27   51 1   
    49   28   29 2   
    50   28   30 1   
    51   30   31 1   
    52   30   34 1   
    53   30   52 1   
    54   31   32 1   
    55   31   53 1   
    56   32   33 1   
    57   32   56 1   
    58   32   57 1   
    59   33   34 1   
    60   33   58 1   
    61   33   59 1   
    62   34   54 1   
    63   34   55 1   
@<TRIPOS>SUBSTRUCTURE
     1 FD9         1 TEMP              0 ****  ****    0 ROOT
