@<TRIPOS>MOLECULE
FDB
   21    22     1     0     0
SMALL
bcc


@<TRIPOS>ATOM
      1 CAA        -0.0040    0.0030    0.0140 c3        1 FDB     -0.055800
      2 NAB         4.8860   -0.0060   -4.7120 n4        1 FDB     -0.794600
      3 OAC         0.3610    0.0090   -3.2850 o         1 FDB     -0.543500
      4 CAD         2.4810   -0.0070    0.6750 cc        1 FDB     -0.097300
      5 NAE         4.4210   -0.0080   -2.3620 nc        1 FDB     -0.529100
      6 NAF         3.7110   -0.0100    0.0360 na        1 FDB     -0.112100
      7 NAG         2.5390    0.0020   -3.9300 n         1 FDB     -0.503400
      8 CAH         1.4300   -0.0010   -0.2760 cd        1 FDB     -0.047300
      9 CAI         3.8940   -0.0040   -3.5860 cd        1 FDB      0.488800
     10 CAJ         1.5340    0.0040   -2.9040 c         1 FDB      0.754100
     11 CAK         3.4820   -0.0070   -1.3410 cc        1 FDB      0.083100
     12 CAL         2.0550   -0.0010   -1.5540 cd        1 FDB     -0.183600
     13 HAA        -0.2890   -0.9070    0.6000 hc        1 FDB      0.071700
     14 HAAA       -0.2800    0.9070    0.6150 hc        1 FDB      0.071700
     15 HAAB       -0.5960    0.0140   -0.9370 hc        1 FDB      0.071700
     16 HNAB        4.7490   -0.8450   -5.2870 hn        1 FDB      0.480133
     17 HNAA        5.8440   -0.0100   -4.3300 hn        1 FDB      0.480133
     18 HAD         2.4140   -0.0090    1.7680 h4        1 FDB      0.205000
     19 HNAF        4.6020   -0.0140    0.4710 hn        1 FDB      0.331700
     20 HNAG        2.2330    0.0050   -4.8790 hn        1 FDB      0.346500
     21 HAB3        4.7550    0.8370   -5.2840 hn        1 FDB      0.480133
@<TRIPOS>BOND
     1    1    8 1   
     2    1   13 1   
     3    1   14 1   
     4    1   15 1   
     5    2    9 1   
     6    2   16 1   
     7    2   17 1   
     8    2   21 1   
     9    3   10 2   
    10    4    6 1   
    11    4    8 2   
    12    4   18 1   
    13    5    9 2   
    14    5   11 1   
    15    6   11 1   
    16    6   19 1   
    17    7    9 1   
    18    7   10 1   
    19    7   20 1   
    20    8   12 1   
    21   10   12 1   
    22   11   12 2   
@<TRIPOS>SUBSTRUCTURE
     1 FDB         1 TEMP              0 ****  ****    0 ROOT
