@<TRIPOS>MOLECULE
FDF
   49    49     1     0     0
SMALL
bcc


@<TRIPOS>ATOM
      1 PA          0.0000    0.0000    0.0000 p5        1 FDF      1.397000
      2 PB         -1.9360   -1.7170   -1.4460 p5        1 FDF      1.052500
      3 C1          2.3870    1.0860    0.5060 c3        1 FDF      0.172000
      4 O1          1.6100    0.0000    0.0000 os        1 FDF     -0.659000
      5 O1A        -0.5370    0.0000    1.5180 o         1 FDF     -0.697500
      6 O1B        -3.0220   -2.0430   -0.3040 o         1 FDF     -0.646500
      7 C2          3.8530    0.7670    0.3580 c2        1 FDF     -0.099000
      8 O2A        -0.4940    1.2070   -0.6980 o         1 FDF     -0.697500
      9 O2B        -2.4170   -0.5920   -2.2790 o         1 FDF     -0.646500
     10 C3          4.6690    0.9500    1.3670 c2        1 FDF     -0.235000
     11 O3A        -0.5360   -1.3150   -0.7580 os        1 FDF     -0.943000
     12 O3B        -1.7240   -3.0170   -2.3720 o         1 FDF     -0.646500
     13 C4          4.1720    1.6080    2.6280 c3        1 FDF     -0.049000
     14 C5          6.1040    0.5020    1.2650 c3        1 FDF     -0.057000
     15 C6          6.9750    1.6790    0.8200 DU        1 FDF     -0.109000
     16 C7          8.4110    1.2310    0.7180 c2        1 FDF     -0.585000
     17 C8          9.0410    1.3080   -0.4280 c2        1 FDF     -0.094000
     18 C9         10.5160    1.0050   -0.4980 c3        1 FDF     -0.039000
     19 C10         8.2920    1.6970   -1.6760 c3        1 FDF     -0.110000
     20 C11        10.7180   -0.4580   -0.8990 c3        1 FDF     -0.085000
     21 C12        12.1930   -0.7600   -0.9700 c2        1 FDF     -0.121000
     22 C13        12.7180   -1.6500   -0.1650 c2        1 FDF     -0.337000
     23 C14        14.1860   -1.9770   -0.2570 c3        1 FDF      0.124000
     24 C15        11.8540   -2.3450    0.8560 c3        1 FDF      0.124000
     25 F1         11.2920   -3.4930    0.2860 f         1 FDF     -0.187000
     26 F2         14.8960   -1.2070    0.6700 f         1 FDF     -0.187000
     27 H1          2.1550    1.2390    1.5530 h1        1 FDF      0.022500
     28 H1A         2.1560    1.9860   -0.0510 h1        1 FDF      0.022500
     29 H2          4.2120    0.2940   -0.5480 ha        1 FDF      0.089000
     30 H4          3.6800    2.5410    2.3790 hc        1 FDF      0.037667
     31 H4A         3.4680    0.9510    3.1240 hc        1 FDF      0.037667
     32 H4B         5.0090    1.8060    3.2860 hc        1 FDF      0.037667
     33 H5          6.1820   -0.2990    0.5410 hc        1 FDF      0.053000
     34 H5A         6.4410    0.1490    2.2320 hc        1 FDF      0.053000
     35 H6          6.8970    2.4800    1.5440 ha        1 FDF      0.054500
     36 H6A         6.6370    2.0320   -0.1470 ha        1 FDF      0.054500
     37 H7          7.5950    0.5740    0.4430 DU        1 FDF      0.278000
     38 H9         10.9670    1.1780    0.4720 hc        1 FDF      0.046500
     39 H9A        10.9820    1.6490   -1.2330 hc        1 FDF      0.046500
     40 H10         7.5120    0.9700   -1.8700 hc        1 FDF      0.040333
     41 H10A        7.8480    2.6760   -1.5400 hc        1 FDF      0.040333
     42 H10B        8.9770    1.7240   -2.5150 hc        1 FDF      0.040333
     43 H11        10.2670   -0.6320   -1.8690 hc        1 FDF      0.066500
     44 H11A       10.2520   -1.1020   -0.1630 hc        1 FDF      0.066500
     45 H12        12.8100   -0.2770   -1.7180 ha        1 FDF      0.085000
     46 H14        14.3360   -3.0280   -0.0440 h1        1 FDF      0.047250
     47 H14A       14.5420   -1.7570   -1.2560 h1        1 FDF      0.047250
     48 H15        11.0640   -1.6770    1.1770 h1        1 FDF      0.047250
     49 H15A       12.4590   -2.6250    1.7100 h1        1 FDF      0.047250
@<TRIPOS>BOND
     1    1    4 1   
     2    1    5 1   
     3    1    8 1   
     4    1   11 1   
     5    2    6 1   
     6    2    9 1   
     7    2   11 1   
     8    2   12 1   
     9    3    4 1   
    10    3    7 1   
    11    3   27 1   
    12    3   28 1   
    13    7   10 1   
    14    7   29 1   
    15   10   13 1   
    16   10   14 1   
    17   13   30 1   
    18   13   31 1   
    19   13   32 1   
    20   14   15 1   
    21   14   33 1   
    22   14   34 1   
    23   15   16 1   
    24   15   35 1   
    25   15   36 1   
    26   15   37 1   
    27   16   17 1   
    28   16   37 1   
    29   17   18 1   
    30   17   19 1   
    31   18   20 1   
    32   18   38 1   
    33   18   39 1   
    34   19   40 1   
    35   19   41 1   
    36   19   42 1   
    37   20   21 1   
    38   20   43 1   
    39   20   44 1   
    40   21   22 1   
    41   21   45 1   
    42   22   23 1   
    43   22   24 1   
    44   23   26 1   
    45   23   46 1   
    46   23   47 1   
    47   24   25 1   
    48   24   48 1   
    49   24   49 1   
@<TRIPOS>SUBSTRUCTURE
     1 FDF         1 TEMP              0 ****  ****    0 ROOT
