@<TRIPOS>MOLECULE
FDG
   36    35     1     0     0
SMALL
bcc


@<TRIPOS>ATOM
      1 P          -3.5040    2.4590   -1.9480 p3        1 FDG      2.523000
      2 N1          1.3050   -1.4240    3.9720 n3        1 FDG     -0.326000
      3 C2          1.5880   -2.1310    2.7870 c2        1 FDG      0.181000
      4 N2          1.9910   -3.4510    2.8550 n3        1 FDG     -0.310000
      5 N3          1.4110   -1.4960    1.5120 n1        1 FDG     -0.206000
      6 C4          0.9390   -0.1200    1.4410 c1        1 FDG      0.143000
      7 C5          0.6660    0.5650    2.5780 c1        1 FDG     -0.251000
      8 C6          0.8520   -0.0960    3.9080 c1        1 FDG      0.378000
      9 O6          0.6360    0.5350    4.9480 o         1 FDG     -0.390000
     10 N7          0.2320    1.8460    2.3630 n         1 FDG     -0.213000
     11 C8          0.2350    1.9810    0.8030 c2        1 FDG      0.353000
     12 O8          0.2610    3.0250    0.1690 o         1 FDG     -0.259000
     13 N9          0.7310    0.5890    0.2990 n         1 FDG     -0.231000
     14 C1'         1.3210    0.3220   -0.9710 c3        1 FDG      0.145000
     15 C2'         0.8780   -1.0990   -1.4910 c3        1 FDG      0.011000
     16 F2'         0.3140   -1.7600   -0.5520 f         1 FDG     -0.170000
     17 C3'        -0.1070   -0.8350   -2.6090 c3        1 FDG     -0.005000
     18 O3'         0.5160   -1.1420   -3.9360 oh        1 FDG     -0.402000
     19 C4'        -0.3880    0.4590   -2.5180 c3        1 FDG     -0.049000
     20 O4'         0.8900    1.1470   -1.8420 os        1 FDG     -0.267000
     21 C5'        -1.6140    0.6710   -1.6550 c3        1 FDG      0.060000
     22 O5'        -1.9530    2.0370   -1.6520 o         1 FDG     -0.725000
     23 OP1        -4.3780    1.8440   -0.9440 o         1 FDG     -1.248667
     24 OP3        -3.6400    3.9820   -1.8770 o         1 FDG     -1.248667
     25 HN1         1.4710   -1.8410    4.8370 hn        1 FDG      0.239000
     26 HN2         2.0800   -3.8630    3.6760 hn        1 FDG      0.187500
     27 HN2A        2.2020   -3.8950    2.1050 hn        1 FDG      0.187500
     28 HN7         0.2840    2.5520    2.9740 hn        1 FDG      0.226000
     29 H1'         2.3110    0.3730   -0.9080 h2        1 FDG      0.096000
     30 H2'         1.6750   -1.6040   -1.8420 h1        1 FDG      0.095000
     31 H3'        -0.9220   -1.3710   -2.4790 h1        1 FDG      0.209000
     32 HO3'       -0.0490   -1.6460   -4.4250 ho        1 FDG      0.296000
     33 H4'        -0.5480    0.8600   -3.4720 h1        1 FDG      0.112000
     34 H5'        -2.3480    0.1600   -2.0070 h1        1 FDG      0.055000
     35 H5'A       -1.4290    0.3890   -0.7670 h1        1 FDG      0.055000
     36 OP2        -3.9080    1.9790   -3.3320 o         1 FDG     -1.248667
@<TRIPOS>BOND
     1    1   23 1   
     2    1   24 1   
     3    1   36 1   
     4    2    3 1   
     5    2    8 1   
     6    2   25 1   
     7    3    4 1   
     8    3    5 1   
     9    4   26 1   
    10    4   27 1   
    11    6    7 1   
    12    6   13 1   
    13    7   10 1   
    14    8    9 1   
    15   10   11 1   
    16   10   28 1   
    17   11   12 1   
    18   11   13 1   
    19   13   14 1   
    20   14   15 1   
    21   14   20 1   
    22   14   29 1   
    23   15   16 1   
    24   15   17 1   
    25   15   30 1   
    26   17   18 1   
    27   17   19 1   
    28   17   31 1   
    29   18   32 1   
    30   19   20 1   
    31   19   21 1   
    32   19   33 1   
    33   21   22 1   
    34   21   34 1   
    35   21   35 1   
@<TRIPOS>SUBSTRUCTURE
     1 FDG         1 TEMP              0 ****  ****    0 ROOT
