@<TRIPOS>MOLECULE
FDG
   36    38     1     0     0
SMALL
bcc


@<TRIPOS>ATOM
      1 P           3.9860   -0.7880    0.3610 p5        1 FDG      1.334900
      2 N1         -4.3240   -1.8580   -0.2600 n         1 FDG     -0.485400
      3 C2         -4.0130   -1.0730   -1.3850 cc        1 FDG      0.623800
      4 N2         -4.6280   -1.4600   -2.6230 nh        1 FDG     -0.870800
      5 N3         -3.2350    0.0270   -1.3570 nd        1 FDG     -0.621300
      6 C4         -2.7040    0.3500   -0.1200 cd        1 FDG      0.272200
      7 C5         -2.9750   -0.3870    1.0650 cc        1 FDG     -0.247600
      8 C6         -3.8270   -1.5490    1.0310 c         1 FDG      0.739700
      9 O6         -4.1680   -2.2850    1.9770 o         1 FDG     -0.657500
     10 N7         -2.3240    0.2090    2.1710 n         1 FDG     -0.369100
     11 C8         -1.5140    1.2780    1.5990 c         1 FDG      0.750500
     12 O8         -0.8220    2.0410    2.2770 o         1 FDG     -0.549500
     13 N9         -1.8410    1.4370    0.1840 n         1 FDG     -0.324000
     14 C1'        -0.9220    1.8930   -0.8640 c3        1 FDG      0.264500
     15 C2'         0.1770    2.9310   -0.4600 c3        1 FDG      0.131600
     16 F2'        -0.1420    3.7320    0.6100 f         1 FDG     -0.225300
     17 C3'         1.4530    2.0590   -0.2640 c3        1 FDG      0.149100
     18 O3'         2.5370    2.7740   -0.8010 oh        1 FDG     -0.673800
     19 C4'         1.1650    0.7810   -1.0740 c3        1 FDG      0.053100
     20 O4'        -0.2370    0.8040   -1.4580 os        1 FDG     -0.439600
     21 C5'         1.4810   -0.5350   -0.3240 c3        1 FDG      0.232400
     22 O5'         2.6670   -1.0580   -0.7550 os        1 FDG     -0.556200
     23 OP1         3.4590   -1.4460    1.6030 o         1 FDG     -0.930500
     24 OP3         5.1570   -1.4140   -0.3300 o         1 FDG     -0.930500
     25 HN2        -4.3900   -2.4010   -2.8650 hn        1 FDG      0.393300
     26 HN2A       -4.3840   -0.8320   -3.3650 hn        1 FDG      0.393300
     27 H1'        -1.5990    2.3160   -1.6650 h2        1 FDG      0.069700
     28 H2'         0.3300    3.5960   -1.3600 h1        1 FDG      0.057700
     29 H3'         1.6320    1.8300    0.8220 h1        1 FDG      0.106700
     30 HO3'        3.3440    2.2660   -0.5370 ho        1 FDG      0.513000
     31 H4'         1.7320    0.7990   -2.0450 h1        1 FDG      0.083700
     32 H5'         1.4990   -0.3460    0.7870 h1        1 FDG     -0.002300
     33 H5'A        0.6390   -1.2530   -0.5600 h1        1 FDG     -0.002300
     34 OP2         3.9340    0.7260    0.3790 o         1 FDG     -0.930500
     35 HN1        -4.9050   -2.6610   -0.3510 hn        1 FDG      0.326500
     36 HN7        -1.8580   -0.4060    2.8060 hn        1 FDG      0.320500
@<TRIPOS>BOND
     1    1   22 1   
     2    1   23 1   
     3    1   24 1   
     4    1   34 1   
     5    2    3 1   
     6    2    8 1   
     7    2   35 1   
     8    3    4 1   
     9    3    5 2   
    10    4   25 1   
    11    4   26 1   
    12    5    6 1   
    13    6    7 2   
    14    6   13 1   
    15    7    8 1   
    16    7   10 1   
    17    8    9 2   
    18   10   11 1   
    19   10   36 1   
    20   11   12 2   
    21   11   13 1   
    22   13   14 1   
    23   14   15 1   
    24   14   20 1   
    25   14   27 1   
    26   15   16 1   
    27   15   17 1   
    28   15   28 1   
    29   17   18 1   
    30   17   19 1   
    31   17   29 1   
    32   18   30 1   
    33   19   20 1   
    34   19   21 1   
    35   19   31 1   
    36   21   22 1   
    37   21   32 1   
    38   21   33 1   
@<TRIPOS>SUBSTRUCTURE
     1 FDG         1 TEMP              0 ****  ****    0 ROOT
