@<TRIPOS>MOLECULE
FDI
   42    42     1     0     0
SMALL
bcc


@<TRIPOS>ATOM
      1 C1          0.2680   -0.8680    0.3850 ca        1 FDI     -0.096000
      2 C2          1.5660   -0.5310   -0.0400 ca        1 FDI     -0.087400
      3 C3          2.4250    0.1870    0.8430 ca        1 FDI     -0.044400
      4 C4          1.9500    0.5490    2.1070 ca        1 FDI     -0.079000
      5 C5          0.6600    0.1920    2.5190 ca        1 FDI     -0.073600
      6 C6         -0.1780   -0.5110    1.6570 ca        1 FDI     -0.055000
      7 C10         0.2270    0.5890    3.9730 c         1 FDI      0.928200
      8 O11        -0.9520    0.3170    4.2640 o         1 FDI     -0.740800
      9 O12         1.1430    1.1200    4.6410 o         1 FDI     -0.740800
     10 N13         3.7970    0.5760    0.5000 n4        1 FDI     -0.573200
     11 C14         4.7830   -0.5880    0.6330 c         1 FDI      0.590100
     12 C15         5.7300   -0.5290    1.8110 c3        1 FDI     -0.117700
     13 O16         4.6810   -1.4260   -0.2520 o         1 FDI     -0.477100
     14 C17         7.0180   -1.2760    1.4780 c3        1 FDI     -0.082400
     15 C18         6.8940   -2.7760    1.4470 c3        1 FDI     -0.105100
     16 C24         5.0140   -1.0660    3.0500 c3        1 FDI     -0.082400
     17 C26         5.8400   -0.8510    4.2930 c3        1 FDI     -0.105100
     18 N32         1.9820   -0.9520   -1.3800 n4        1 FDI     -0.559200
     19 C33         1.9290    0.2070   -2.3670 c         1 FDI      0.586100
     20 C34         0.7240    0.2810   -3.2340 c3        1 FDI     -0.190100
     21 O38         2.8980    0.9540   -2.3330 o         1 FDI     -0.461100
     22 H1         -0.4130   -1.4280   -0.2790 ha        1 FDI      0.155000
     23 H4          2.5480    1.1230    2.8490 ha        1 FDI      0.214000
     24 H6         -1.1960   -0.7740    2.0110 ha        1 FDI      0.219000
     25 H13         3.8340    0.9560   -0.4550 hn        1 FDI      0.470300
     26 H15         6.0080    0.5500    2.0010 hc        1 FDI      0.090700
     27 H171        7.4020   -0.9090    0.4880 hc        1 FDI      0.069700
     28 H172        7.7740   -0.9840    2.2600 hc        1 FDI      0.069700
     29 H181        6.0740   -3.0990    0.7620 hc        1 FDI      0.058700
     30 H182        7.8530   -3.2210    1.0820 hc        1 FDI      0.058700
     31 H183        6.6910   -3.1830    2.4680 hc        1 FDI      0.058700
     32 H241        4.8020   -2.1600    2.9190 hc        1 FDI      0.069700
     33 H242        4.0280   -0.5400    3.1710 hc        1 FDI      0.069700
     34 H261        6.1090    0.2260    4.4180 hc        1 FDI      0.058700
     35 H262        5.2500   -1.1700    5.1890 hc        1 FDI      0.058700
     36 H263        6.7800   -1.4530    4.2570 hc        1 FDI      0.058700
     37 H32         2.9360   -1.3440   -1.3480 hn        1 FDI      0.472300
     38 H341        0.6780   -0.6010   -3.9240 hc        1 FDI      0.124367
     39 H342        0.7820    1.2170   -3.8520 hc        1 FDI      0.124367
     40 H343       -0.2120    0.3150   -2.6160 hc        1 FDI      0.124367
     41 H132        4.0790    1.3250    1.1510 hn        1 FDI      0.470300
     42 H322        1.3440   -1.6940   -1.6990 hn        1 FDI      0.472300
@<TRIPOS>BOND
     1    1    2 ar  
     2    1    6 ar  
     3    1   22 1   
     4    2    3 ar  
     5    2   18 1   
     6    3    4 ar  
     7    3   10 1   
     8    4    5 ar  
     9    4   23 1   
    10    5    6 ar  
    11    5    7 1   
    12    6   24 1   
    13    7    8 1   
    14    7    9 1   
    15   10   11 1   
    16   10   25 1   
    17   10   41 1   
    18   11   12 1   
    19   11   13 2   
    20   12   14 1   
    21   12   16 1   
    22   12   26 1   
    23   14   15 1   
    24   14   27 1   
    25   14   28 1   
    26   15   29 1   
    27   15   30 1   
    28   15   31 1   
    29   16   17 1   
    30   16   32 1   
    31   16   33 1   
    32   17   34 1   
    33   17   35 1   
    34   17   36 1   
    35   18   19 1   
    36   18   37 1   
    37   18   42 1   
    38   19   20 1   
    39   19   21 2   
    40   20   38 1   
    41   20   39 1   
    42   20   40 1   
@<TRIPOS>SUBSTRUCTURE
     1 FDI         1 TEMP              0 ****  ****    0 ROOT
