@<TRIPOS>MOLECULE
FDI
   40    37     1     0     0
SMALL
bcc


@<TRIPOS>ATOM
      1 C1         -3.5460   -0.5480   -1.0730 c1        1 FDI     -0.067000
      2 C2         -2.1590   -0.3710   -1.1380 c1        1 FDI      0.065200
      3 C3         -1.4080   -0.3420    0.0330 c1        1 FDI     -0.029800
      4 C4         -2.0380   -0.4890    1.2690 c1        1 FDI     -0.064500
      5 C5         -3.4190   -0.6640    1.3310 cg        1 FDI     -0.075200
      6 C6         -4.1710   -0.6940    0.1610 c1        1 FDI     -0.067000
      7 C10        -4.0990   -0.8960    2.6840 c         1 FDI      0.859800
      8 O11        -4.4890    0.0860    3.3690 o         1 FDI     -0.828300
      9 O12        -4.2610   -2.0710    3.1150 o         1 FDI     -0.828300
     10 N13         0.0200   -0.0480   -0.0250 n         1 FDI     -0.452700
     11 C14         0.7860    0.1190    1.2140 c         1 FDI      0.649100
     12 C15         2.3320    0.3480    1.1530 c3        1 FDI     -0.137700
     13 O16         0.2300    0.0140    2.2890 o         1 FDI     -0.629100
     14 C17         2.6150    1.8050    0.8210 c3        1 FDI     -0.074900
     15 C18         3.5450    1.8790   -0.3800 c3        1 FDI     -0.100100
     16 C24         2.9660   -0.0080    2.5380 c3        1 FDI     -0.074900
     17 C26         3.9760   -1.1340    2.3570 c3        1 FDI     -0.100100
     18 N32        -1.5130   -0.1210   -2.4330 n         1 FDI     -0.478700
     19 C33        -2.2420   -0.3530   -3.6600 c         1 FDI      0.656100
     20 C34        -1.5660   -0.1250   -5.0010 c3        1 FDI     -0.177100
     21 O38        -3.3840   -0.7530   -3.6190 o         1 FDI     -0.618100
     22 H1         -4.0680   -0.6270   -1.8980 ha        1 FDI      0.093500
     23 H4         -1.5130   -0.4840    2.0860 ha        1 FDI      0.096500
     24 H6         -5.1460   -0.8550    0.2050 ha        1 FDI      0.093500
     25 H13         0.4410    0.0080   -0.8310 hn        1 FDI      0.304500
     26 H15         2.7180   -0.2230    0.4630 hc        1 FDI      0.058700
     27 H171        1.7780    2.2580    0.6110 hc        1 FDI      0.050950
     28 H172        3.0380    2.2390    1.5890 hc        1 FDI      0.050950
     29 H181        4.4630    1.6570   -0.0990 hc        1 FDI      0.036200
     30 H182        3.5270    2.7860   -0.7500 hc        1 FDI      0.036200
     31 H183        3.2490    1.2430   -1.0620 hc        1 FDI      0.036200
     32 H241        2.2650   -0.2960    3.1510 hc        1 FDI      0.050950
     33 H242        3.4190    0.7830    2.9070 hc        1 FDI      0.050950
     34 H261        4.4270   -1.0320    1.4910 hc        1 FDI      0.036200
     35 H262        4.6400   -1.0960    3.0780 hc        1 FDI      0.036200
     36 H263        3.5140   -1.9950    2.3850 hc        1 FDI      0.036200
     37 H32        -0.6700    0.2310   -2.4630 hn        1 FDI      0.335500
     38 H341       -1.9050   -0.7750   -5.6510 hc        1 FDI      0.056700
     39 H342       -0.5950   -0.2370   -4.9010 hc        1 FDI      0.056700
     40 H343       -1.7590    0.7800   -5.3150 hc        1 FDI      0.056700
@<TRIPOS>BOND
     1    1    6 3   
     2    1   22 1   
     3    2    3 3   
     4    2   18 1   
     5    3   10 1   
     6    4    5 3   
     7    4   23 1   
     8    5    7 1   
     9    6   24 1   
    10    7    8 1   
    11    7    9 1   
    12   10   11 1   
    13   10   25 1   
    14   11   12 1   
    15   11   13 2   
    16   12   14 1   
    17   12   16 1   
    18   12   26 1   
    19   14   15 1   
    20   14   27 1   
    21   14   28 1   
    22   15   29 1   
    23   15   30 1   
    24   15   31 1   
    25   16   17 1   
    26   16   32 1   
    27   16   33 1   
    28   17   34 1   
    29   17   35 1   
    30   17   36 1   
    31   18   19 1   
    32   18   37 1   
    33   19   20 1   
    34   19   21 2   
    35   20   38 1   
    36   20   39 1   
    37   20   40 1   
@<TRIPOS>SUBSTRUCTURE
     1 FDI         1 TEMP              0 ****  ****    0 ROOT
