@<TRIPOS>MOLECULE
FDI
   40    40     1     0     0
SMALL
bcc


@<TRIPOS>ATOM
      1 C1         -0.4070    0.2090   -2.7890 ca        1 FDI     -0.160000
      2 C2         -0.8210   -0.0140   -1.4590 ca        1 FDI      0.050600
      3 C3          0.1640   -0.3790   -0.4930 ca        1 FDI     -0.041400
      4 C4          1.5140   -0.4670   -0.8920 ca        1 FDI     -0.121000
      5 C5          1.9010   -0.2390   -2.2080 ca        1 FDI     -0.126600
      6 C6          0.9280    0.0920   -3.1540 ca        1 FDI     -0.089000
      7 C10         3.3690   -0.3580   -2.5960 c         1 FDI      0.911200
      8 O11         3.6880   -0.0990   -3.7890 o         1 FDI     -0.828300
      9 O12         4.1850   -0.7110   -1.6980 o         1 FDI     -0.828300
     10 N13        -0.1600   -0.7400    0.8440 n         1 FDI     -0.443100
     11 C14        -0.6650    0.1140    1.8070 c         1 FDI      0.650100
     12 C15        -0.5270   -0.3580    3.2620 c3        1 FDI     -0.136700
     13 O16        -1.2730    1.1700    1.5270 o         1 FDI     -0.628100
     14 C17         0.9100   -0.1500    3.7180 c3        1 FDI     -0.069400
     15 C18         1.1650   -0.7420    5.0810 c3        1 FDI     -0.094100
     16 C24        -1.5500    0.3230    4.1570 c3        1 FDI     -0.069400
     17 C26        -1.2420    1.7610    4.4850 c3        1 FDI     -0.094100
     18 N32        -2.1680    0.1520   -1.0740 n         1 FDI     -0.465100
     19 C33        -3.2750   -0.0490   -1.8690 c         1 FDI      0.656100
     20 C34        -4.6140    0.2740   -1.2330 c3        1 FDI     -0.177100
     21 O38        -3.2280   -0.4820   -3.0390 o         1 FDI     -0.618100
     22 H1         -1.1600    0.4600   -3.5530 ha        1 FDI      0.144000
     23 H4          2.3060   -0.7350   -0.1710 ha        1 FDI      0.155000
     24 H6          1.2480    0.2630   -4.1960 ha        1 FDI      0.158000
     25 H13         0.4040   -1.4900    1.1840 hn        1 FDI      0.304500
     26 H15        -0.7500   -1.4650    3.2960 hc        1 FDI      0.056700
     27 H171        1.1410    0.9480    3.7290 hc        1 FDI      0.046700
     28 H172        1.6100   -0.6250    2.9790 hc        1 FDI      0.046700
     29 H181        2.2440   -0.6300    5.3490 hc        1 FDI      0.035533
     30 H182        0.5530   -0.2250    5.8590 hc        1 FDI      0.035533
     31 H183        0.9090   -1.8290    5.0960 hc        1 FDI      0.035533
     32 H241       -2.5490    0.2740    3.6450 hc        1 FDI      0.046700
     33 H242       -1.6280   -0.2660    5.1100 hc        1 FDI      0.046700
     34 H261       -2.1040    2.2200    5.0280 hc        1 FDI      0.035533
     35 H262       -0.3380    1.8390    5.1360 hc        1 FDI      0.035533
     36 H263       -1.0620    2.3430    3.5470 hc        1 FDI      0.035533
     37 H32        -2.3170    0.5450   -0.1680 hn        1 FDI      0.334500
     38 H341       -5.4200    0.0650   -1.9760 hc        1 FDI      0.056700
     39 H342       -4.7800   -0.3580   -0.3280 hc        1 FDI      0.056700
     40 H343       -4.6580    1.3500   -0.9390 hc        1 FDI      0.056700
@<TRIPOS>BOND
     1    1    2 ar  
     2    1    6 ar  
     3    1   22 1   
     4    2    3 ar  
     5    2   18 1   
     6    3    4 ar  
     7    3   10 1   
     8    4    5 ar  
     9    4   23 1   
    10    5    6 ar  
    11    5    7 1   
    12    6   24 1   
    13    7    8 1   
    14    7    9 1   
    15   10   11 1   
    16   10   25 1   
    17   11   12 1   
    18   11   13 2   
    19   12   14 1   
    20   12   16 1   
    21   12   26 1   
    22   14   15 1   
    23   14   27 1   
    24   14   28 1   
    25   15   29 1   
    26   15   30 1   
    27   15   31 1   
    28   16   17 1   
    29   16   32 1   
    30   16   33 1   
    31   17   34 1   
    32   17   35 1   
    33   17   36 1   
    34   18   19 1   
    35   18   37 1   
    36   19   20 1   
    37   19   21 2   
    38   20   38 1   
    39   20   39 1   
    40   20   40 1   
@<TRIPOS>SUBSTRUCTURE
     1 FDI         1 TEMP              0 ****  ****    0 ROOT
