@<TRIPOS>MOLECULE
FDI
   40    40     1     0     0
SMALL
bcc


@<TRIPOS>ATOM
      1 C1         -0.1730    0.0910    0.2920 ca        1 FDI     -0.160000
      2 C2          1.2350    0.0280    0.2240 ca        1 FDI      0.050600
      3 C3          1.9790    0.1300    1.4370 ca        1 FDI     -0.041400
      4 C4          1.2840    0.2500    2.6580 ca        1 FDI     -0.121000
      5 C5         -0.1050    0.3050    2.7030 ca        1 FDI     -0.126600
      6 C6         -0.8260    0.2320    1.5100 ca        1 FDI     -0.089000
      7 C10        -0.8130    0.4480    4.0450 c         1 FDI      0.911200
      8 O11        -2.0750    0.4490    4.0490 o         1 FDI     -0.828300
      9 O12        -0.0930    0.5590    5.0780 o         1 FDI     -0.828300
     10 N13         3.3990    0.1960    1.4700 ns        1 FDI     -0.443100
     11 C14         4.2610   -0.8300    1.1270 c         1 FDI      0.650100
     12 C15         5.7000   -0.6990    1.6470 c3        1 FDI     -0.136700
     13 O16         3.9300   -1.7710    0.3750 o         1 FDI     -0.628100
     14 C17         5.7310   -1.0630    3.1230 c3        1 FDI     -0.069400
     15 C18         7.0790   -0.8000    3.7460 c3        1 FDI     -0.094100
     16 C24         6.6620   -1.5200    0.8010 c3        1 FDI     -0.069400
     17 C26         6.5990   -3.0070    1.0410 c3        1 FDI     -0.094100
     18 N32         1.9000   -0.1650   -1.0050 ns        1 FDI     -0.465100
     19 C33         1.4640    0.2520   -2.2440 c         1 FDI      0.656100
     20 C34         2.3330   -0.1500   -3.4210 c3        1 FDI     -0.177100
     21 O38         0.4350    0.9330   -2.4320 o         1 FDI     -0.618100
     22 H1         -0.7600    0.0460   -0.6390 ha        1 FDI      0.144000
     23 H4          1.8250    0.3180    3.6190 ha        1 FDI      0.155000
     24 H6         -1.9270    0.2850    1.5590 ha        1 FDI      0.158000
     25 H13         3.7360    0.8290    2.1660 hn        1 FDI      0.304500
     26 H15         6.0160    0.3800    1.5430 hc        1 FDI      0.056700
     27 H171        5.4580   -2.1450    3.2460 hc        1 FDI      0.046700
     28 H172        4.9550   -0.4650    3.6720 hc        1 FDI      0.046700
     29 H181        7.0410   -1.0140    4.8420 hc        1 FDI      0.035533
     30 H182        7.3800    0.2660    3.6040 hc        1 FDI      0.035533
     31 H183        7.8620   -1.4520    3.2870 hc        1 FDI      0.035533
     32 H241        6.4360   -1.3180   -0.2800 hc        1 FDI      0.046700
     33 H242        7.7050   -1.1550    1.0040 hc        1 FDI      0.046700
     34 H261        7.2340   -3.5390    0.2910 hc        1 FDI      0.035533
     35 H262        5.5470   -3.3720    0.9410 hc        1 FDI      0.035533
     36 H263        6.9740   -3.2650    2.0610 hc        1 FDI      0.035533
     37 H32         2.7140   -0.7430   -0.9740 hn        1 FDI      0.334500
     38 H341        1.8740    0.2520   -4.3560 hc        1 FDI      0.056700
     39 H342        3.3610    0.2700   -3.3100 hc        1 FDI      0.056700
     40 H343        2.3990   -1.2620   -3.4950 hc        1 FDI      0.056700
@<TRIPOS>BOND
     1    1    2 ar  
     2    1    6 ar  
     3    1   22 1   
     4    2    3 ar  
     5    2   18 1   
     6    3    4 ar  
     7    3   10 1   
     8    4    5 ar  
     9    4   23 1   
    10    5    6 ar  
    11    5    7 1   
    12    6   24 1   
    13    7    8 1   
    14    7    9 1   
    15   10   11 1   
    16   10   25 1   
    17   11   12 1   
    18   11   13 2   
    19   12   14 1   
    20   12   16 1   
    21   12   26 1   
    22   14   15 1   
    23   14   27 1   
    24   14   28 1   
    25   15   29 1   
    26   15   30 1   
    27   15   31 1   
    28   16   17 1   
    29   16   32 1   
    30   16   33 1   
    31   17   34 1   
    32   17   35 1   
    33   17   36 1   
    34   18   19 1   
    35   18   37 1   
    36   19   20 1   
    37   19   21 2   
    38   20   38 1   
    39   20   39 1   
    40   20   40 1   
@<TRIPOS>SUBSTRUCTURE
     1 FDI         1 TEMP              0 ****  ****    0 ROOT
