@<TRIPOS>MOLECULE
FDI
   40    40     1     0     0
SMALL
bcc


@<TRIPOS>ATOM
      1 C1         -0.1770    0.0600    0.2850 ca        1 FDI     -0.160000
      2 C2          1.2310    0.0000    0.2150 ca        1 FDI      0.050600
      3 C3          1.9770    0.1320    1.4240 ca        1 FDI     -0.041400
      4 C4          1.2850    0.2780    2.6430 ca        1 FDI     -0.121000
      5 C5         -0.1040    0.3300    2.6910 ca        1 FDI     -0.126600
      6 C6         -0.8280    0.2280    1.5010 ca        1 FDI     -0.089000
      7 C10        -0.8100    0.5030    4.0300 c         1 FDI      0.911200
      8 O11        -2.0710    0.5000    4.0380 o         1 FDI     -0.828300
      9 O12        -0.0880    0.6390    5.0590 o         1 FDI     -0.828300
     10 N13         3.3970    0.2030    1.4520 n         1 FDI     -0.443100
     11 C14         4.2610   -0.8280    1.1310 c         1 FDI      0.650100
     12 C15         5.7010   -0.6810    1.6440 c3        1 FDI     -0.136700
     13 O16         3.9310   -1.7870    0.4010 o         1 FDI     -0.628100
     14 C17         5.7370   -1.0120    3.1280 c3        1 FDI     -0.069400
     15 C18         7.0850   -0.7310    3.7410 c3        1 FDI     -0.094100
     16 C24         6.6640   -1.5180    0.8150 c3        1 FDI     -0.069400
     17 C26         6.6070   -2.9990    1.0880 c3        1 FDI     -0.094100
     18 N32         1.8940   -0.2200   -1.0100 n         1 FDI     -0.465100
     19 C33         1.4540    0.1680   -2.2580 c         1 FDI      0.656100
     20 C34         2.3210   -0.2580   -3.4270 c3        1 FDI     -0.177100
     21 O38         0.4220    0.8420   -2.4590 o         1 FDI     -0.618100
     22 H1         -0.7660   -0.0070   -0.6430 ha        1 FDI      0.144000
     23 H4          1.8270    0.3700    3.6010 ha        1 FDI      0.155000
     24 H6         -1.9290    0.2790    1.5520 ha        1 FDI      0.158000
     25 H13         3.7340    0.8520    2.1320 hn        1 FDI      0.304500
     26 H15         6.0140    0.3960    1.5150 hc        1 FDI      0.056700
     27 H171        5.4680   -2.0910    3.2760 hc        1 FDI      0.046700
     28 H172        4.9600   -0.4040    3.6650 hc        1 FDI      0.046700
     29 H181        7.8700   -1.3890    3.2950 hc        1 FDI      0.035533
     30 H182        7.3830    0.3330    3.5750 hc        1 FDI      0.035533
     31 H183        7.0510   -0.9200    4.8420 hc        1 FDI      0.035533
     32 H241        7.7060   -1.1460    1.0070 hc        1 FDI      0.046700
     33 H242        6.4350   -1.3410   -0.2710 hc        1 FDI      0.046700
     34 H261        7.2410   -3.5460    0.3480 hc        1 FDI      0.035533
     35 H262        5.5550   -3.3700    0.9990 hc        1 FDI      0.035533
     36 H263        6.9850   -3.2330    2.1120 hc        1 FDI      0.035533
     37 H32         2.7090   -0.7940   -0.9680 hn        1 FDI      0.334500
     38 H341        2.3900   -1.3710   -3.4770 hc        1 FDI      0.056700
     39 H342        1.8590    0.1210   -4.3690 hc        1 FDI      0.056700
     40 H343        3.3480    0.1660   -3.3280 hc        1 FDI      0.056700
@<TRIPOS>BOND
     1    1    2 ar  
     2    1    6 ar  
     3    1   22 1   
     4    2    3 ar  
     5    2   18 1   
     6    3    4 ar  
     7    3   10 1   
     8    4    5 ar  
     9    4   23 1   
    10    5    6 ar  
    11    5    7 1   
    12    6   24 1   
    13    7    8 1   
    14    7    9 1   
    15   10   11 1   
    16   10   25 1   
    17   11   12 1   
    18   11   13 2   
    19   12   14 1   
    20   12   16 1   
    21   12   26 1   
    22   14   15 1   
    23   14   27 1   
    24   14   28 1   
    25   15   29 1   
    26   15   30 1   
    27   15   31 1   
    28   16   17 1   
    29   16   32 1   
    30   16   33 1   
    31   17   34 1   
    32   17   35 1   
    33   17   36 1   
    34   18   19 1   
    35   18   37 1   
    36   19   20 1   
    37   19   21 2   
    38   20   38 1   
    39   20   39 1   
    40   20   40 1   
@<TRIPOS>SUBSTRUCTURE
     1 FDI         1 TEMP              0 ****  ****    0 ROOT
