@<TRIPOS>MOLECULE
FDL
   48    42     1     0     0
SMALL
bcc


@<TRIPOS>ATOM
      1 CAL        -4.5770   -2.3590    5.9850 c3        1 FDL     -0.196000
      2 CAD        -3.2990   -1.5490    5.7570 c1        1 FDL      0.050000
      3 CAC        -2.7280   -0.7740    6.8380 c1        1 FDL     -0.253000
      4 CAB        -1.4750   -0.0210    6.6180 c1        1 FDL      0.339000
      5 OAK        -1.0000    0.6530    7.5210 o         1 FDL     -0.293000
      6 OAA        -0.8290   -0.0610    5.3300 o         1 FDL     -0.194000
      7 CAF        -1.3640   -0.9440    4.2490 c2        1 FDL      0.137000
      8 CAG        -0.7060   -1.0000    3.0080 c1        1 FDL     -0.220000
      9 CAE        -2.6000   -1.5980    4.4200 c1        1 FDL     -0.167000
     10 CAH        -3.1700   -2.3020    3.3550 c1        1 FDL     -0.050000
     11 CAI        -2.5110   -2.3570    2.1160 c1        1 FDL     -0.186000
     12 CAJ        -1.2780   -1.7040    1.9450 c1        1 FDL      0.128000
     13 NAM        -0.5500   -1.8590    0.7150 n2        1 FDL     -0.319000
     14 C          -0.9300   -1.0980   -0.4460 c1        1 FDL      0.261000
     15 O          -1.8640   -0.3280   -0.3860 o         1 FDL     -0.354000
     16 CA         -0.1220   -1.2180   -1.7330 c2        1 FDL     -0.036000
     17 N          -0.8190   -2.0350   -2.6530 n3        1 FDL     -0.318000
     18 CB          0.0840    0.1600   -2.3340 c3        1 FDL     -0.154000
     19 CAS         1.4180    0.1930   -3.0950 c3        1 FDL     -0.153000
     20 CAT         1.6080    1.5870   -3.7440 c3        1 FDL     -0.188000
     21 CAU         3.0450    1.6950   -4.3280 c3        1 FDL     -0.030000
     22 NAV         3.4120    3.0880   -4.4530 n         1 FDL     -0.381000
     23 CAW         4.6350    3.4540   -5.1330 c2        1 FDL      0.297000
     24 OAY         5.2070    2.6440   -5.8320 o         1 FDL     -0.367000
     25 CAX         5.1920    4.8610   -4.9910 c3        1 FDL     -0.243000
     26 H1         -4.3700   -3.3150    5.9380 hc        1 FDL      0.098000
     27 H2         -5.2390   -2.1310    5.2900 hc        1 FDL      0.098000
     28 H3         -4.9460   -2.1460    6.8710 hc        1 FDL      0.098000
     29 H4         -3.1830   -0.7230    7.6940 ha        1 FDL      0.168000
     30 H5          0.1470   -0.5490    2.8900 ha        1 FDL      0.158000
     31 H6         -4.0260   -2.7550    3.4720 ha        1 FDL      0.142000
     32 H7         -2.9100   -2.8490    1.3730 ha        1 FDL      0.180000
     33 H8          0.1060   -2.4940    0.6500 hn        1 FDL      0.237000
     34 H9          0.7500   -1.6200   -1.5340 h4        1 FDL      0.116000
     35 H10        -1.6870   -2.1320   -2.3780 hn        1 FDL      0.159500
     36 H11        -0.4210   -2.8540   -2.6960 hn        1 FDL      0.159500
     37 H13         0.0990    0.8280   -1.6190 hc        1 FDL      0.090000
     38 H14        -0.6420    0.3570   -2.9450 hc        1 FDL      0.090000
     39 H15         2.1550    0.0200   -2.4700 hc        1 FDL      0.094500
     40 H16         1.4140   -0.4920   -3.7890 hc        1 FDL      0.094500
     41 H17         0.9520    1.7050   -4.4650 hc        1 FDL      0.083000
     42 H18         1.4780    2.2820   -3.0670 hc        1 FDL      0.083000
     43 H19         3.6770    1.2420   -3.7290 h1        1 FDL      0.103000
     44 H20         3.0710    1.2680   -5.2140 h1        1 FDL      0.103000
     45 H21         2.8610    3.7370   -4.1210 hn        1 FDL      0.216000
     46 H22         5.9870    4.9560   -5.5550 hc        1 FDL      0.105000
     47 H23         5.4340    5.0240   -4.0560 hc        1 FDL      0.105000
     48 H24         4.5110    5.5120   -5.2710 hc        1 FDL      0.105000
@<TRIPOS>BOND
     1    1    2 1   
     2    1   26 1   
     3    1   27 1   
     4    1   28 1   
     5    2    3 1   
     6    3   29 1   
     7    4    5 1   
     8    6    7 1   
     9    7    8 1   
    10    7    9 1   
    11    8   30 1   
    12    9   10 1   
    13   10   31 1   
    14   11   12 1   
    15   11   32 1   
    16   13   14 1   
    17   13   33 1   
    18   14   15 1   
    19   16   17 1   
    20   16   18 1   
    21   16   34 1   
    22   17   35 1   
    23   17   36 1   
    24   18   19 1   
    25   18   37 1   
    26   18   38 1   
    27   19   20 1   
    28   19   39 1   
    29   19   40 1   
    30   20   21 1   
    31   20   41 1   
    32   20   42 1   
    33   21   22 1   
    34   21   43 1   
    35   21   44 1   
    36   22   23 1   
    37   22   45 1   
    38   23   24 1   
    39   23   25 1   
    40   25   46 1   
    41   25   47 1   
    42   25   48 1   
@<TRIPOS>SUBSTRUCTURE
     1 FDL         1 TEMP              0 ****  ****    0 ROOT
