@<TRIPOS>MOLECULE
FDL
   48    49     1     0     0
SMALL
bcc


@<TRIPOS>ATOM
      1 CAL        -6.7550    0.7360    1.4900 c3        1 FDL     -0.074900
      2 CAD        -5.9390   -0.1800    0.6620 cc        1 FDL      0.058600
      3 CAC        -6.4340   -1.3520    0.1950 cd        1 FDL     -0.273200
      4 CAB        -5.6270   -2.2450   -0.6160 c         1 FDL      0.724800
      5 OAK        -5.9200   -3.3320   -1.1120 o         1 FDL     -0.569500
      6 OAA        -4.3100   -1.8990   -0.9300 os        1 FDL     -0.330200
      7 CAF        -3.8120   -0.7060   -0.4520 ca        1 FDL      0.182100
      8 CAG        -2.4850   -0.4280   -0.8070 ca        1 FDL     -0.221000
      9 CAE        -4.5740    0.1790    0.3380 ca        1 FDL     -0.178800
     10 CAH        -3.9560    1.3650    0.7670 ca        1 FDL     -0.049000
     11 CAI        -2.6480    1.6640    0.4320 ca        1 FDL     -0.186000
     12 CAJ        -1.8860    0.7700   -0.3640 ca        1 FDL      0.121600
     13 NAM        -0.5610    1.0210   -0.7410 n         1 FDL     -0.466100
     14 C           0.2410    2.0960   -0.3830 c         1 FDL      0.617100
     15 O          -0.1540    3.0330    0.3340 o         1 FDL     -0.590100
     16 CA          1.6920    2.0880   -0.9480 c3        1 FDL      0.112500
     17 N           2.2990    3.3970   -0.9650 n3        1 FDL     -0.885800
     18 CB          2.4920    1.0600   -0.1330 c3        1 FDL     -0.076400
     19 CAS         3.8840    0.8630   -0.6950 c3        1 FDL     -0.074400
     20 CAT         4.5980   -0.2610    0.0250 c3        1 FDL     -0.108400
     21 CAU         6.0170   -0.4120   -0.5280 c3        1 FDL      0.086000
     22 NAV         6.7700   -1.4920    0.0450 n         1 FDL     -0.572900
     23 CAW         7.7880   -1.2880    0.9610 c         1 FDL      0.654100
     24 OAY         8.1900   -0.1410    1.2400 o         1 FDL     -0.605100
     25 CAX         8.4230   -2.5150    1.5700 c3        1 FDL     -0.176100
     26 H1         -7.7820    0.3270    1.6550 hc        1 FDL      0.058700
     27 H2         -6.2690    0.8880    2.4870 hc        1 FDL      0.058700
     28 H3         -6.8460    1.7310    0.9860 hc        1 FDL      0.058700
     29 H4         -7.4600   -1.6910    0.3990 ha        1 FDL      0.168000
     30 H5         -1.9450   -1.1590   -1.4270 ha        1 FDL      0.157000
     31 H6         -4.5280    2.0750    1.3870 ha        1 FDL      0.143000
     32 H7         -2.2040    2.6070    0.7910 ha        1 FDL      0.180000
     33 H8         -0.1380    0.3170   -1.3080 hn        1 FDL      0.321500
     34 H9          1.6490    1.7430   -2.0250 h1        1 FDL      0.074700
     35 H10         1.6940    4.0580   -1.4120 hn        1 FDL      0.365800
     36 H11         2.4940    3.7130   -0.0340 hn        1 FDL      0.365800
     37 H13         2.5570    1.3910    0.9370 hc        1 FDL      0.050700
     38 H14         1.9440    0.0820   -0.1500 hc        1 FDL      0.050700
     39 H15         3.8190    0.6310   -1.7910 hc        1 FDL      0.055200
     40 H16         4.4760    1.8110   -0.5930 hc        1 FDL      0.055200
     41 H17         4.6380   -0.0390    1.1240 hc        1 FDL      0.043700
     42 H18         4.0270   -1.2170   -0.1040 hc        1 FDL      0.043700
     43 H19         5.9510   -0.5890   -1.6410 h1        1 FDL      0.063700
     44 H20         6.5810    0.5510   -0.3590 h1        1 FDL      0.063700
     45 H21         6.3910   -2.4030   -0.0450 hn        1 FDL      0.302500
     46 H22         8.8690   -3.1590    0.7750 hc        1 FDL      0.065700
     47 H23         9.2310   -2.1900    2.2700 hc        1 FDL      0.065700
     48 H24         7.6660   -3.1070    2.1380 hc        1 FDL      0.065700
@<TRIPOS>BOND
     1    1    2 1   
     2    1   26 1   
     3    1   27 1   
     4    1   28 1   
     5    2    3 2   
     6    2    9 1   
     7    3    4 1   
     8    3   29 1   
     9    4    5 2   
    10    4    6 1   
    11    6    7 1   
    12    7    8 ar  
    13    7    9 ar  
    14    8   12 ar  
    15    8   30 1   
    16    9   10 ar  
    17   10   11 ar  
    18   10   31 1   
    19   11   12 ar  
    20   11   32 1   
    21   12   13 1   
    22   13   14 1   
    23   13   33 1   
    24   14   15 2   
    25   14   16 1   
    26   16   17 1   
    27   16   18 1   
    28   16   34 1   
    29   17   35 1   
    30   17   36 1   
    31   18   19 1   
    32   18   37 1   
    33   18   38 1   
    34   19   20 1   
    35   19   39 1   
    36   19   40 1   
    37   20   21 1   
    38   20   41 1   
    39   20   42 1   
    40   21   22 1   
    41   21   43 1   
    42   21   44 1   
    43   22   23 1   
    44   22   45 1   
    45   23   24 2   
    46   23   25 1   
    47   25   46 1   
    48   25   47 1   
    49   25   48 1   
@<TRIPOS>SUBSTRUCTURE
     1 FDL         1 TEMP              0 ****  ****    0 ROOT
