@<TRIPOS>MOLECULE
FDM
   33    31     1     0     0
SMALL
bcc


@<TRIPOS>ATOM
      1 N1         -0.2350   -1.2970    0.3700 n2        1 FDM     -0.612600
      2 C6          1.0850   -1.2690    0.3510 c1        1 FDM      0.136500
      3 C2         -0.8910   -1.3870    1.5480 c1        1 FDM      0.835900
      4 O2         -2.0650   -1.5420    1.5590 o         1 FDM     -0.665500
      5 N3         -0.1950   -1.4470    2.7070 n2        1 FDM     -0.840800
      6 C4          1.1220   -1.4190    2.6900 c1        1 FDM      0.811900
      7 O4          1.7090   -1.5050    3.6710 o         1 FDM     -0.638500
      8 C5          1.7810   -1.3300    1.5170 c1        1 FDM     -0.260100
      9 C7          3.3160   -1.4520    1.4940 c3        1 FDM     -0.054000
     10 O4'        -0.4140   -0.5930   -1.7540 os        1 FDM     -0.382600
     11 F          -3.5750    0.9030   -1.3060 f         1 FDM     -0.262300
     12 C1'        -0.9550   -1.3900   -0.8490 c3        1 FDM      0.403300
     13 C2'        -2.4430   -0.8860   -0.6430 c3        1 FDM     -0.140400
     14 C3'        -2.3990    0.4040   -0.7190 c3        1 FDM      0.130600
     15 C4'        -1.1670    0.7130   -1.6230 c3        1 FDM      0.054100
     16 O5'         0.6560    2.1480   -1.9550 os        1 FDM     -0.551200
     17 C5'        -0.3540    1.7090   -1.0120 c3        1 FDM      0.225400
     18 P1          1.0560    3.6780   -1.9980 p5        1 FDM      1.307900
     19 OP2         2.1680    3.8690   -2.9790 o         1 FDM     -0.921167
     20 OP1         1.5040    4.1190   -0.6550 o         1 FDM     -0.921167
     21 OP3        -0.1560    4.5120   -2.4270 o         1 FDM     -0.921167
     22 HC61        1.5370   -1.3340   -0.4630 ha        1 FDM      0.235500
     23 HN31       -0.6530   -1.5090    3.5300 hn        1 FDM      0.481400
     24 HC71        3.6370   -1.0390    0.7680 hc        1 FDM      0.049367
     25 HC72        3.5730   -2.4130    1.4710 hc        1 FDM      0.049367
     26 HC73        3.6950   -1.0260    2.3130 hc        1 FDM      0.049367
     27 H1'1       -0.9550   -2.3220   -1.1730 h2        1 FDM      0.068700
     28 H2'1       -3.0770   -1.2810   -1.4110 hc        1 FDM      0.060200
     29 H2'2       -2.7760   -1.1610    0.2470 hc        1 FDM      0.060200
     30 H3'1       -2.2770    0.7710    0.1260 h1        1 FDM      0.065700
     31 H4'1       -1.4470    1.0000   -2.4640 h1        1 FDM      0.156700
     32 H5'1        0.1000    1.3170   -0.1800 h1        1 FDM     -0.004300
     33 H5'2       -0.9070    2.4600   -0.7530 h1        1 FDM     -0.004300
@<TRIPOS>BOND
     1    1    3 2   
     2    1   12 1   
     3    2    8 3   
     4    2   22 1   
     5    3    4 2   
     6    5    6 2   
     7    5   23 1   
     8    6    7 2   
     9    8    9 1   
    10    9   24 1   
    11    9   25 1   
    12    9   26 1   
    13   10   12 1   
    14   10   15 1   
    15   11   14 1   
    16   12   13 1   
    17   12   27 1   
    18   13   14 1   
    19   13   28 1   
    20   13   29 1   
    21   14   15 1   
    22   14   30 1   
    23   15   17 1   
    24   15   31 1   
    25   16   17 1   
    26   16   18 1   
    27   17   32 1   
    28   17   33 1   
    29   18   19 1   
    30   18   20 1   
    31   18   21 1   
@<TRIPOS>SUBSTRUCTURE
     1 FDM         1 TEMP              0 ****  ****    0 ROOT
