@<TRIPOS>MOLECULE
FDM
   33    34     1     0     0
SMALL
bcc


@<TRIPOS>ATOM
      1 N1         -1.0300    0.7040    2.0270 n         1 FDM     -0.358000
      2 C6          0.2390    0.1720    1.8370 cc        1 FDM      0.081600
      3 C2         -1.4210    1.1500    3.3080 c         1 FDM      0.792500
      4 O2         -2.5580    1.6350    3.5540 o         1 FDM     -0.721500
      5 N3         -0.4920    1.0890    4.3580 n         1 FDM     -0.598500
      6 C4          0.8100    0.5690    4.1990 c         1 FDM      0.715700
      7 O4          1.5370    0.5570    5.2180 o         1 FDM     -0.699500
      8 C5          1.1530    0.1040    2.8610 cd        1 FDM     -0.302400
      9 C7          2.5010   -0.4570    2.6440 c3        1 FDM     -0.041900
     10 O4'        -2.4730   -0.6370    0.6710 os        1 FDM     -0.445600
     11 F          -3.0670    0.7820   -2.2010 f         1 FDM     -0.287300
     12 C1'        -2.0580    0.6990    0.9750 c3        1 FDM      0.305500
     13 C2'        -1.6330    1.3850   -0.3360 c3        1 FDM     -0.149400
     14 C3'        -1.9660    0.3820   -1.4530 c3        1 FDM      0.110600
     15 C4'        -2.2290   -0.9510   -0.7180 c3        1 FDM      0.074100
     16 C5'        -1.0650   -1.9690   -0.8110 c3        1 FDM      0.203400
     17 P1          1.2890   -1.0530   -1.5800 p5        1 FDM      1.324900
     18 OP2         2.1420   -1.5690   -2.6910 o         1 FDM     -0.916167
     19 OP1         1.5780   -1.5150   -0.1690 o         1 FDM     -0.916167
     20 OP3         0.8870    0.4020   -1.5680 o         1 FDM     -0.916167
     21 HC61        0.5260   -0.2160    0.7910 h4        1 FDM      0.309000
     22 HN31       -0.7940    1.4120    5.2470 hn        1 FDM      0.316500
     23 HC71        3.2640    0.3610    2.6360 hc        1 FDM      0.055367
     24 HC72        2.7620   -1.1610    3.4730 hc        1 FDM      0.055367
     25 HC73        2.5350   -1.0050    1.6580 hc        1 FDM      0.055367
     26 H1'1       -2.9750    1.1970    1.4160 h2        1 FDM      0.076700
     27 H2'1       -2.1890    2.3420   -0.4600 hc        1 FDM      0.095200
     28 H2'2       -0.5230    1.5800   -0.3910 hc        1 FDM      0.095200
     29 H3'1       -1.0480    0.2660   -2.1300 h1        1 FDM      0.194700
     30 H4'1       -3.1890   -1.4150   -1.0690 h1        1 FDM      0.035700
     31 H5'1       -0.4810   -1.9380    0.1540 h1        1 FDM      0.012700
     32 H5'2       -1.5490   -2.9880   -0.8980 h1        1 FDM      0.012700
     33 O5'        -0.2540   -1.7700   -1.8950 os        1 FDM     -0.568200
@<TRIPOS>BOND
     1    1    2 1   
     2    1    3 1   
     3    1   12 1   
     4    2    8 2   
     5    2   21 1   
     6    3    4 2   
     7    3    5 1   
     8    5    6 1   
     9    5   22 1   
    10    6    7 2   
    11    6    8 1   
    12    8    9 1   
    13    9   23 1   
    14    9   24 1   
    15    9   25 1   
    16   10   12 1   
    17   10   15 1   
    18   11   14 1   
    19   12   13 1   
    20   12   26 1   
    21   13   14 1   
    22   13   27 1   
    23   13   28 1   
    24   14   15 1   
    25   14   29 1   
    26   15   16 1   
    27   15   30 1   
    28   16   31 1   
    29   16   32 1   
    30   16   33 1   
    31   17   18 1   
    32   17   19 1   
    33   17   20 1   
    34   17   33 1   
@<TRIPOS>SUBSTRUCTURE
     1 FDM         1 TEMP              0 ****  ****    0 ROOT
