@<TRIPOS>MOLECULE
FDM
   33    32     1     0     0
SMALL
bcc


@<TRIPOS>ATOM
      1 N1        864.7220 -391.0500  580.1060 n         1 FDM     -0.262000
      2 C6        864.2850 -392.3280  579.9010 c1        1 FDM     -0.163000
      3 C2        863.9290 -389.9110  579.8660 c2        1 FDM      0.327000
      4 O2        864.3540 -388.7360  580.0630 o         1 FDM     -0.488000
      5 N3        862.6280 -390.1180  579.3930 n         1 FDM     -0.371000
      6 C4        862.1070 -391.4190  579.1570 c2        1 FDM      0.349000
      7 O4        860.9250 -391.4640  578.7330 o         1 FDM     -0.468000
      8 C5        862.9940 -392.5290  579.4320 c2        1 FDM     -0.416000
      9 C7        862.4800 -393.8880  579.1960 c3        1 FDM     -0.079000
     10 O4'      -637.0010  289.5840 -429.5800 os        1 FDM     -0.272000
     11 F        -640.2260  290.0890 -429.4350 f         1 FDM     -0.188000
     12 C1'      -637.3760  288.2030 -429.4980 c3        1 FDM     -0.022000
     13 C2'      -638.8380  288.1310 -429.0760 c3        1 FDM     -0.212000
     14 C3'      -639.2210  289.5610 -428.6400 c3        1 FDM      0.021000
     15 C4'      -637.8990  290.3690 -428.7920 c3        1 FDM     -0.064000
     16 C5'      -637.3410  290.6720 -427.4180 c2        1 FDM      0.227000
     17 P1       -637.5130  290.1630 -424.7650 p3        1 FDM      2.434000
     18 OP2      -636.8900  289.2370 -423.8100 o         1 FDM     -1.139333
     19 OP1      -638.6190  289.7150 -425.6540 o         1 FDM     -1.139333
     20 OP3      -637.2280  291.6110 -424.7640 o         1 FDM     -1.139333
     21 HC61      865.6390 -390.8850  580.4390 hn        1 FDM      0.229000
     22 HN31      862.0640 -389.3200  579.2220 hn        1 FDM      0.218000
     23 HC71      863.2580 -394.6500  579.4450 hc        1 FDM      0.040667
     24 HC72      862.1790 -394.0220  578.1250 hc        1 FDM      0.040667
     25 HC73      861.5730 -394.0870  579.8230 hc        1 FDM      0.040667
     26 H1'1     -636.7060  287.7090 -428.7480 h1        1 FDM      0.086000
     27 H2'1     -637.1950  287.7810 -430.5180 h1        1 FDM      0.086000
     28 H2'2     -639.4880  287.7900 -429.9180 hc        1 FDM      0.101500
     29 H3'1     -638.9690  287.4320 -428.2150 hc        1 FDM      0.101500
     30 H4'1     -639.5640  289.5750 -427.5590 h1        1 FDM      0.202000
     31 H5'1     -638.0510  291.3200 -429.3680 h1        1 FDM      0.119000
     32 H5'2     -637.7820  291.5650 -426.9150 h4        1 FDM      0.161000
     33 O5'      -636.4630  289.9840 -426.8810 o         1 FDM     -0.363000
@<TRIPOS>BOND
     1    1    2 1   
     2    1    3 1   
     3    1   21 1   
     4    2    8 1   
     5    3    4 1   
     6    3    5 1   
     7    5    6 1   
     8    5   22 1   
     9    6    7 1   
    10    6    8 1   
    11    8    9 1   
    12    9   23 1   
    13    9   24 1   
    14    9   25 1   
    15   10   12 1   
    16   10   15 1   
    17   11   14 1   
    18   12   13 1   
    19   12   26 1   
    20   12   27 1   
    21   13   14 1   
    22   13   28 1   
    23   13   29 1   
    24   14   15 1   
    25   14   30 1   
    26   15   16 1   
    27   15   31 1   
    28   16   32 1   
    29   16   33 1   
    30   17   18 1   
    31   17   19 1   
    32   17   20 1   
@<TRIPOS>SUBSTRUCTURE
     1 FDM         1 TEMP              0 ****  ****    0 ROOT
