@<TRIPOS>MOLECULE
FDM
   33    32     1     0     0
SMALL
bcc


@<TRIPOS>ATOM
      1 N1        951.1630 -451.5170  890.9180 ns        1 FDM     -0.262000
      2 C6        951.6070 -450.7750  889.8610 c1        1 FDM     -0.163000
      3 C2        951.9790 -451.8880  892.0040 c2        1 FDM      0.327000
      4 O2        951.5460 -452.5770  892.9720 o         1 FDM     -0.488000
      5 N3        953.3130 -451.4640  891.9830 ns        1 FDM     -0.371000
      6 C4        953.8440 -450.6890  890.9160 c2        1 FDM      0.349000
      7 O4        955.0550 -450.3710  891.0230 o         1 FDM     -0.468000
      8 C5        952.9310 -450.3580  889.8420 c2        1 FDM     -0.416000
      9 C7        953.4570 -449.5620  888.7210 c3        1 FDM     -0.079000
     10 O4'      -702.3040  332.3520 -657.2760 os        1 FDM     -0.272000
     11 F        -704.4420  330.7230 -655.4170 f         1 FDM     -0.188000
     12 C1'      -702.2160  333.2150 -656.1350 c3        1 FDM     -0.022000
     13 C2'      -703.3760  332.8920 -655.2020 c3        1 FDM     -0.212000
     14 C3'      -704.3180  331.9710 -656.0050 c3        1 FDM      0.021000
     15 C4'      -703.6440  331.8710 -657.4060 c3        1 FDM     -0.064000
     16 C5'      -704.4490  332.6750 -658.4030 c2        1 FDM      0.227000
     17 P1       -706.4420  334.4750 -658.7490 p3        1 FDM      2.434000
     18 OP2      -706.5580  335.9350 -658.8600 o         1 FDM     -1.139333
     19 OP1      -706.2910  333.8180 -657.4230 o         1 FDM     -1.139333
     20 OP3      -706.6630  333.5750 -659.8970 o         1 FDM     -1.139333
     21 HC61      950.2230 -451.8240  890.9500 hn        1 FDM      0.229000
     22 HN31      953.8940 -451.7200  892.7450 hn        1 FDM      0.218000
     23 HC71      953.9790 -448.6440  889.0940 hc        1 FDM      0.041000
     24 HC72      954.2020 -450.1510  888.1260 hc        1 FDM      0.041000
     25 HC73      952.6280 -449.2520  888.0380 hc        1 FDM      0.041000
     26 H1'1     -702.2630  334.2740 -656.5000 h1        1 FDM      0.086000
     27 H2'1     -701.2170  333.0070 -655.6770 h1        1 FDM      0.086000
     28 H2'2     -703.9220  333.8220 -654.9120 hc        1 FDM      0.101500
     29 H3'1     -703.0220  332.3790 -654.2750 hc        1 FDM      0.101500
     30 H4'1     -705.3490  332.4350 -656.1020 h1        1 FDM      0.202000
     31 H5'1     -703.5490  330.8070 -657.7500 h1        1 FDM      0.119000
     32 H5'2     -705.3310  332.1460 -658.8360 h4        1 FDM      0.161000
     33 O5'      -704.1600  333.8370 -658.7210 o         1 FDM     -0.363000
@<TRIPOS>BOND
     1    1    2 1   
     2    1    3 1   
     3    1   21 1   
     4    2    8 1   
     5    3    4 1   
     6    3    5 1   
     7    5    6 1   
     8    5   22 1   
     9    6    7 1   
    10    6    8 1   
    11    8    9 1   
    12    9   23 1   
    13    9   24 1   
    14    9   25 1   
    15   10   12 1   
    16   10   15 1   
    17   11   14 1   
    18   12   13 1   
    19   12   26 1   
    20   12   27 1   
    21   13   14 1   
    22   13   28 1   
    23   13   29 1   
    24   14   15 1   
    25   14   30 1   
    26   15   16 1   
    27   15   31 1   
    28   16   32 1   
    29   16   33 1   
    30   17   18 1   
    31   17   19 1   
    32   17   20 1   
@<TRIPOS>SUBSTRUCTURE
     1 FDM         1 TEMP              0 ****  ****    0 ROOT
