@<TRIPOS>MOLECULE
FDN
   35    37     1     0     0
SMALL
bcc


@<TRIPOS>ATOM
      1 F13        -2.3320   -1.9200    1.4700 f         1 FDN     -0.119900
      2 C13        -2.8970   -0.9470    0.7200 ca        1 FDN      0.182900
      3 C12        -4.2200   -1.1330    0.2810 ca        1 FDN     -0.214000
      4 C11        -4.8360   -0.1360   -0.4900 ca        1 FDN      0.170900
      5 F11        -6.1080   -0.3080   -0.9150 f         1 FDN     -0.127900
      6 C10        -4.1370    1.0400   -0.8210 ca        1 FDN     -0.185000
      7 C9         -2.8300    1.2040   -0.3830 ca        1 FDN     -0.051000
      8 C8         -2.1830    0.2270    0.3830 ca        1 FDN     -0.165300
      9 C5         -0.7740    0.4430    0.8450 c3        1 FDN      0.147100
     10 C7         -0.6240    0.4220    2.3560 c3        1 FDN     -0.102100
     11 O4         -0.3100    1.7590    0.3870 os        1 FDN     -0.389900
     12 C3          0.7580    1.6010   -0.4800 c         1 FDN      0.802600
     13 O3          1.2550    2.6030   -0.9850 o         1 FDN     -0.572500
     14 N2          1.0610    0.2220   -0.6610 n         1 FDN     -0.405800
     15 C6          0.2100   -0.5580    0.1780 c         1 FDN      0.704500
     16 O6          0.2650   -1.7710    0.3440 o         1 FDN     -0.521500
     17 N1          2.0980   -0.2770   -1.4010 nh        1 FDN     -0.369600
     18 C21         3.3820   -0.3600   -0.7300 ca        1 FDN      0.014600
     19 C22         3.5670   -1.3310    0.2740 ca        1 FDN     -0.117000
     20 C23         4.8250   -1.5050    0.8450 ca        1 FDN     -0.126500
     21 C24         5.9050   -0.7260    0.4310 ca        1 FDN     -0.120000
     22 C25         5.7250    0.2400   -0.5590 ca        1 FDN     -0.126500
     23 C26         4.4720    0.4330   -1.1350 ca        1 FDN     -0.117000
     24 H12        -4.7620   -2.0530    0.5430 ha        1 FDN      0.171000
     25 H10        -4.6300    1.8180   -1.4230 ha        1 FDN      0.161000
     26 H9         -2.2900    2.1330   -0.6410 ha        1 FDN      0.167000
     27 H71        -1.3360    1.1510    2.8130 hc        1 FDN      0.070033
     28 H72        -0.8430   -0.6050    2.7370 hc        1 FDN      0.070033
     29 H73         0.4150    0.7110    2.6420 hc        1 FDN      0.070033
     30 HN1         2.2030    0.3310   -2.2130 hn        1 FDN      0.387800
     31 H22         2.7200   -1.9600    0.5960 ha        1 FDN      0.149500
     32 H23         4.9650   -2.2690    1.6250 ha        1 FDN      0.137500
     33 H24         6.8960   -0.8710    0.8850 ha        1 FDN      0.136000
     34 H25         6.5750    0.8580   -0.8850 ha        1 FDN      0.137500
     35 H26         4.3460    1.2070   -1.9090 ha        1 FDN      0.149500
@<TRIPOS>BOND
     1    1    2 1   
     2    2    3 ar  
     3    2    8 ar  
     4    3    4 ar  
     5    3   24 1   
     6    4    5 1   
     7    4    6 ar  
     8    6    7 ar  
     9    6   25 1   
    10    7    8 ar  
    11    7   26 1   
    12    8    9 1   
    13    9   10 1   
    14    9   11 1   
    15    9   15 1   
    16   10   27 1   
    17   10   28 1   
    18   10   29 1   
    19   11   12 1   
    20   12   13 2   
    21   12   14 1   
    22   14   15 1   
    23   14   17 1   
    24   15   16 2   
    25   17   18 1   
    26   17   30 1   
    27   18   19 ar  
    28   18   23 ar  
    29   19   20 ar  
    30   19   31 1   
    31   20   21 ar  
    32   20   32 1   
    33   21   22 ar  
    34   21   33 1   
    35   22   23 ar  
    36   22   34 1   
    37   23   35 1   
@<TRIPOS>SUBSTRUCTURE
     1 FDN         1 TEMP              0 ****  ****    0 ROOT
