@<TRIPOS>MOLECULE
FDN
   36    38     1     0     0
SMALL
bcc


@<TRIPOS>ATOM
      1 F13         0.0150    0.8620    0.2540 f         1 FDN     -0.120900
      2 C13         1.3020    0.4580    0.1620 ca        1 FDN      0.185900
      3 C12         2.0720    0.3880    1.3340 ca        1 FDN     -0.205000
      4 C11         3.4080   -0.0370    1.2560 ca        1 FDN      0.201900
      5 F11         4.1540   -0.1070    2.3770 f         1 FDN     -0.104900
      6 C10         3.9710   -0.3910    0.0120 ca        1 FDN     -0.178000
      7 C9          3.1970   -0.3130   -1.1370 ca        1 FDN     -0.044000
      8 C8          1.8640    0.1160   -1.0930 ca        1 FDN     -0.216300
      9 C5          1.0390    0.1540   -2.3380 c3        1 FDN      0.203100
     10 C7         -0.1220   -0.8220   -2.3380 c3        1 FDN     -0.113100
     11 O4          1.8890   -0.1980   -3.5020 os        1 FDN     -0.342900
     12 C3          2.0050    0.8520   -4.3640 c         1 FDN      0.836600
     13 O3          2.6530    0.7860   -5.3980 o         1 FDN     -0.525500
     14 N2          1.2900    1.9950   -3.8400 n         1 FDN     -0.509800
     15 C6          0.5540    1.5870   -2.6560 c         1 FDN      0.687500
     16 O6         -0.2470    2.3240   -2.1040 o         1 FDN     -0.484500
     17 N1          1.0080    3.1160   -4.6090 n4        1 FDN     -0.357400
     18 C21        -0.0680    2.9890   -5.6200 ca        1 FDN     -0.093400
     19 C22         0.2380    2.4550   -6.8840 ca        1 FDN     -0.090000
     20 C23        -0.7680    2.3970   -7.8450 ca        1 FDN     -0.106500
     21 C24        -2.0570    2.8460   -7.5490 ca        1 FDN     -0.060000
     22 C25        -2.3520    3.3540   -6.2810 ca        1 FDN     -0.106500
     23 C26        -1.3650    3.4230   -5.3010 ca        1 FDN     -0.090000
     24 H12         1.6250    0.6580    2.3040 ha        1 FDN      0.187000
     25 H10         5.0170   -0.7330   -0.0350 ha        1 FDN      0.176000
     26 H9          3.6440   -0.6100   -2.1020 ha        1 FDN      0.165000
     27 H71         0.2750   -1.8610   -2.2080 hc        1 FDN      0.087367
     28 H72        -0.8090   -0.5810   -1.4900 hc        1 FDN      0.087367
     29 H73        -0.6820   -0.7720   -3.3020 hc        1 FDN      0.087367
     30 HN1         0.7470    3.8710   -3.9430 hn        1 FDN      0.487800
     31 H22         1.2500    2.0790   -7.1210 ha        1 FDN      0.171000
     32 H23        -0.5400    1.9890   -8.8450 ha        1 FDN      0.176000
     33 H24        -2.8470    2.7960   -8.3180 ha        1 FDN      0.174000
     34 H25        -3.3730    3.7020   -6.0480 ha        1 FDN      0.176000
     35 H26        -1.6140    3.8140   -4.2990 ha        1 FDN      0.171000
     36 H121        1.8880    3.3690   -5.1040 hn        1 FDN      0.487800
@<TRIPOS>BOND
     1    1    2 1   
     2    2    3 ar  
     3    2    8 ar  
     4    3    4 ar  
     5    3   24 1   
     6    4    5 1   
     7    4    6 ar  
     8    6    7 ar  
     9    6   25 1   
    10    7    8 ar  
    11    7   26 1   
    12    8    9 1   
    13    9   10 1   
    14    9   11 1   
    15    9   15 1   
    16   10   27 1   
    17   10   28 1   
    18   10   29 1   
    19   11   12 1   
    20   12   13 2   
    21   12   14 1   
    22   14   15 1   
    23   14   17 1   
    24   15   16 2   
    25   17   18 1   
    26   17   30 1   
    27   17   36 1   
    28   18   19 ar  
    29   18   23 ar  
    30   19   20 ar  
    31   19   31 1   
    32   20   21 ar  
    33   20   32 1   
    34   21   22 ar  
    35   21   33 1   
    36   22   23 ar  
    37   22   34 1   
    38   23   35 1   
@<TRIPOS>SUBSTRUCTURE
     1 FDN         1 TEMP              0 ****  ****    0 ROOT
