@<TRIPOS>MOLECULE
FDN
   35    37     1     0     0
SMALL
bcc


@<TRIPOS>ATOM
      1 F13         0.0200    0.4650    0.2730 f         1 FDN     -0.119900
      2 C13         1.3530    0.2710    0.1500 ca        1 FDN      0.181900
      3 C12         2.1360    0.2900    1.3180 ca        1 FDN     -0.214000
      4 C11         3.5200    0.0840    1.2240 ca        1 FDN      0.170900
      5 F11         4.2770    0.1000    2.3440 f         1 FDN     -0.127900
      6 C10         4.1210   -0.1420   -0.0290 ca        1 FDN     -0.185000
      7 C9          3.3330   -0.1530   -1.1730 ca        1 FDN     -0.050000
      8 C8          1.9500    0.0550   -1.1140 ca        1 FDN     -0.166300
      9 C5          1.1310    0.0260   -2.3690 c3        1 FDN      0.155100
     10 C7          0.0520   -1.0420   -2.3600 c3        1 FDN     -0.102100
     11 O4          2.0060   -0.2560   -3.5130 os        1 FDN     -0.398900
     12 C3          1.9910    0.8060   -4.4080 c         1 FDN      0.848600
     13 O3          2.6700    0.7020   -5.4220 o         1 FDN     -0.550500
     14 N2          1.1340    1.8330   -3.9250 n         1 FDN     -0.410800
     15 C6          0.5360    1.4150   -2.7010 c         1 FDN      0.666500
     16 O6         -0.2790    2.0780   -2.0630 o         1 FDN     -0.546500
     17 N1          0.9220    3.0040   -4.6030 nh        1 FDN     -0.369600
     18 C21        -0.1490    2.9840   -5.5820 ca        1 FDN      0.018600
     19 C22         0.0110    2.2280   -6.7600 ca        1 FDN     -0.119000
     20 C23        -0.9520    2.2970   -7.7630 ca        1 FDN     -0.125500
     21 C24        -2.0760    3.1090   -7.6110 ca        1 FDN     -0.122000
     22 C25        -2.2400    3.8560   -6.4450 ca        1 FDN     -0.125500
     23 C26        -1.2920    3.7920   -5.4280 ca        1 FDN     -0.119000
     24 H12         1.6610    0.4660    2.2950 ha        1 FDN      0.171000
     25 H10         5.2060   -0.3070   -0.0930 ha        1 FDN      0.161000
     26 H9          3.8110   -0.3370   -2.1520 ha        1 FDN      0.169000
     27 H71         0.5120   -2.0370   -2.1440 hc        1 FDN      0.070033
     28 H72        -0.4490   -1.0900   -3.3570 hc        1 FDN      0.070033
     29 H73        -0.7050   -0.8010   -1.5750 hc        1 FDN      0.070033
     30 HN1         0.6970    3.7090   -3.9010 hn        1 FDN      0.388800
     31 H22         0.9040    1.5930   -6.8930 ha        1 FDN      0.150000
     32 H23        -0.8190    1.7080   -8.6820 ha        1 FDN      0.138000
     33 H24        -2.8310    3.1610   -8.4100 ha        1 FDN      0.136000
     34 H25        -3.1270    4.4960   -6.3220 ha        1 FDN      0.138000
     35 H26        -1.4420    4.3810   -4.5100 ha        1 FDN      0.150000
@<TRIPOS>BOND
     1    1    2 1   
     2    2    3 ar  
     3    2    8 ar  
     4    3    4 ar  
     5    3   24 1   
     6    4    5 1   
     7    4    6 ar  
     8    6    7 ar  
     9    6   25 1   
    10    7    8 ar  
    11    7   26 1   
    12    8    9 1   
    13    9   10 1   
    14    9   11 1   
    15    9   15 1   
    16   10   27 1   
    17   10   28 1   
    18   10   29 1   
    19   11   12 1   
    20   12   13 2   
    21   12   14 1   
    22   14   15 1   
    23   14   17 1   
    24   15   16 2   
    25   17   18 1   
    26   17   30 1   
    27   18   19 ar  
    28   18   23 ar  
    29   19   20 ar  
    30   19   31 1   
    31   20   21 ar  
    32   20   32 1   
    33   21   22 ar  
    34   21   33 1   
    35   22   23 ar  
    36   22   34 1   
    37   23   35 1   
@<TRIPOS>SUBSTRUCTURE
     1 FDN         1 TEMP              0 ****  ****    0 ROOT
