@<TRIPOS>MOLECULE
FDN
   35    33     1     0     0
SMALL
bcc


@<TRIPOS>ATOM
      1 F13         3.4580   -1.2220    0.7110 f         1 FDN     -0.080000
      2 C13         2.7830   -1.0910    1.8640 c2        1 FDN      0.159000
      3 C12         3.4720   -0.8920    3.0510 c2        1 FDN     -0.217000
      4 C11         2.7810   -0.8290    4.2520 c1        1 FDN      0.137000
      5 F11         3.4500   -0.6550    5.4020 f         1 FDN     -0.093000
      6 C10         1.4000   -0.9640    4.2660 c2        1 FDN     -0.184000
      7 C9          0.7110   -1.1630    3.0790 c1        1 FDN     -0.062000
      8 C8          1.4010   -1.2260    1.8780 c1        1 FDN     -0.160000
      9 C5          0.6880   -1.3870    0.6540 c3        1 FDN      0.113000
     10 C7          0.1840   -2.8100    0.7230 c3        1 FDN     -0.216000
     11 O4          1.6130   -1.0440   -0.3350 os        1 FDN     -0.213000
     12 C3          1.0180   -0.0770   -1.1730 c2        1 FDN      0.373000
     13 O3          1.4240    0.2680   -2.2660 o         1 FDN     -0.291000
     14 N2         -0.0680    0.4680   -0.4960 n         1 FDN     -0.303000
     15 C6         -0.2810   -0.2920    0.6520 c2        1 FDN      0.318000
     16 O6         -1.0870   -0.0520    1.5270 o         1 FDN     -0.272000
     17 N1         -0.7280    1.6380   -0.8280 n3        1 FDN     -0.054000
     18 C21        -1.5300    1.6920   -1.9910 c2        1 FDN     -0.065000
     19 C22        -2.9130    1.6720   -1.8760 c2        1 FDN     -0.101000
     20 C23        -3.7040    1.8790   -2.9950 c1        1 FDN     -0.129000
     21 C24        -3.1150    2.1060   -4.2280 c1        1 FDN     -0.121500
     22 C25        -1.7340    2.1250   -4.3430 c1        1 FDN     -0.121500
     23 C26        -0.9420    1.9190   -3.2240 c1        1 FDN     -0.133000
     24 H12         4.4420   -0.7620    3.0380 ha        1 FDN      0.171000
     25 H10         0.9120   -0.9190    5.1140 ha        1 FDN      0.161000
     26 H9         -0.2640   -1.2580    3.0900 ha        1 FDN      0.168000
     27 H71         0.1520   -3.1890   -0.1790 hc        1 FDN      0.108000
     28 H72         0.7870   -3.3420    1.2800 hc        1 FDN      0.108000
     29 H73        -0.7150   -2.8190    1.1130 hc        1 FDN      0.108000
     30 HN1        -0.6260    2.3790   -0.3120 hn        1 FDN      0.184000
     31 H22        -3.3300    1.5120   -1.0030 ha        1 FDN      0.158000
     32 H23        -4.6800    1.8650   -2.9130 ha        1 FDN      0.138000
     33 H24        -3.6720    2.2510   -5.0140 ha        1 FDN      0.137000
     34 H25        -1.3200    2.2850   -5.2110 ha        1 FDN      0.137000
     35 H26         0.0320    1.9330   -3.3060 ha        1 FDN      0.141000
@<TRIPOS>BOND
     1    1    2 1   
     2    2    3 1   
     3    2    8 1   
     4    3    4 1   
     5    3   24 1   
     6    4    6 1   
     7    6    7 1   
     8    6   25 1   
     9    7   26 1   
    10    8    9 1   
    11    9   10 1   
    12    9   11 1   
    13    9   15 1   
    14   10   27 1   
    15   10   28 1   
    16   10   29 1   
    17   11   12 1   
    18   12   13 1   
    19   12   14 1   
    20   14   15 1   
    21   14   17 1   
    22   15   16 1   
    23   17   18 1   
    24   17   30 1   
    25   18   19 1   
    26   18   23 1   
    27   19   20 1   
    28   19   31 1   
    29   20   32 1   
    30   21   22 1   
    31   21   33 1   
    32   22   34 1   
    33   23   35 1   
@<TRIPOS>SUBSTRUCTURE
     1 FDN         1 TEMP              0 ****  ****    0 ROOT
