@<TRIPOS>MOLECULE
FDN
   35    37     1     0     0
SMALL
bcc


@<TRIPOS>ATOM
      1 F13         0.0030    0.4650    0.2690 f         1 FDN     -0.119900
      2 C13         1.3370    0.2720    0.1530 ca        1 FDN      0.181900
      3 C12         2.1140    0.2910    1.3250 ca        1 FDN     -0.214000
      4 C11         3.4980    0.0840    1.2370 ca        1 FDN      0.170900
      5 F11         4.2500    0.1010    2.3610 f         1 FDN     -0.127900
      6 C10         4.1050   -0.1410   -0.0130 ca        1 FDN     -0.185000
      7 C9          3.3230   -0.1530   -1.1600 ca        1 FDN     -0.050000
      8 C8          1.9390    0.0560   -1.1080 ca        1 FDN     -0.166300
      9 C5          1.1270    0.0260   -2.3670 c3        1 FDN      0.155100
     10 C7          0.0480   -1.0420   -2.3630 c3        1 FDN     -0.102100
     11 O4          2.0070   -0.2560   -3.5070 os        1 FDN     -0.398900
     12 C3          1.9970    0.8050   -4.4020 c         1 FDN      0.848600
     13 O3          2.6810    0.7010   -5.4130 o         1 FDN     -0.550500
     14 N2          1.1370    1.8320   -3.9240 n         1 FDN     -0.410800
     15 C6          0.5330    1.4150   -2.7030 c         1 FDN      0.666500
     16 O6         -0.2850    2.0780   -2.0690 o         1 FDN     -0.546500
     17 N1          0.9290    3.0040   -4.6040 nu        1 FDN     -0.369600
     18 C21        -0.1370    2.9840   -5.5870 ca        1 FDN      0.018600
     19 C22         0.0280    2.2270   -6.7630 ca        1 FDN     -0.119000
     20 C23        -0.9310    2.2960   -7.7710 ca        1 FDN     -0.125500
     21 C24        -2.0550    3.1090   -7.6250 ca        1 FDN     -0.122000
     22 C25        -2.2250    3.8560   -6.4600 ca        1 FDN     -0.125500
     23 C26        -1.2800    3.7920   -5.4390 ca        1 FDN     -0.119000
     24 H12         1.6340    0.4670    2.2990 ha        1 FDN      0.171000
     25 H10         5.1910   -0.3060   -0.0710 ha        1 FDN      0.161000
     26 H9          3.8060   -0.3360   -2.1370 ha        1 FDN      0.169000
     27 H71        -0.4480   -1.0900   -3.3630 hc        1 FDN      0.070033
     28 H72         0.5070   -2.0360   -2.1440 hc        1 FDN      0.070033
     29 H73        -0.7130   -0.8010   -1.5820 hc        1 FDN      0.070033
     30 HN1         0.7010    3.7090   -3.9020 hn        1 FDN      0.388800
     31 H22         0.9210    1.5920   -6.8920 ha        1 FDN      0.150000
     32 H23        -0.7940    1.7060   -8.6900 ha        1 FDN      0.138000
     33 H24        -2.8060    3.1600   -8.4270 ha        1 FDN      0.136000
     34 H25        -3.1110    4.4970   -6.3410 ha        1 FDN      0.138000
     35 H26        -1.4350    4.3820   -4.5210 ha        1 FDN      0.150000
@<TRIPOS>BOND
     1    1    2 1   
     2    2    3 ar  
     3    2    8 ar  
     4    3    4 ar  
     5    3   24 1   
     6    4    5 1   
     7    4    6 ar  
     8    6    7 ar  
     9    6   25 1   
    10    7    8 ar  
    11    7   26 1   
    12    8    9 1   
    13    9   10 1   
    14    9   11 1   
    15    9   15 1   
    16   10   27 1   
    17   10   28 1   
    18   10   29 1   
    19   11   12 1   
    20   12   13 2   
    21   12   14 1   
    22   14   15 1   
    23   14   17 1   
    24   15   16 2   
    25   17   18 1   
    26   17   30 1   
    27   18   19 ar  
    28   18   23 ar  
    29   19   20 ar  
    30   19   31 1   
    31   20   21 ar  
    32   20   32 1   
    33   21   22 ar  
    34   21   33 1   
    35   22   23 ar  
    36   22   34 1   
    37   23   35 1   
@<TRIPOS>SUBSTRUCTURE
     1 FDN         1 TEMP              0 ****  ****    0 ROOT
