@<TRIPOS>MOLECULE
FDP
   30    29     1     0     0
SMALL
bcc


@<TRIPOS>ATOM
      1 P1          0.1730   -2.9140    0.8700 p4        1 FDP      1.742200
      2 O1P         0.3270   -4.1530    0.0100 o         1 FDP     -0.931000
      3 O2P         1.5070   -2.5780    1.5170 os        1 FDP     -1.236000
      4 O3P        -0.8480   -3.1710    1.9330 o         1 FDP     -0.979800
      5 O1          1.0850   -2.7160   -2.1670 oh        1 FDP     -0.696800
      6 C1          1.7430   -1.7620   -1.3750 c3        1 FDP      0.112400
      7 C2          0.6960   -0.8770   -0.6450 c3        1 FDP      0.413600
      8 O2         -0.3000   -1.6900   -0.0390 os        1 FDP     -0.591200
      9 C3          0.0370    0.1470   -1.6560 c3        1 FDP      0.097100
     10 O3         -1.2460   -0.1790   -1.8810 oh        1 FDP     -0.663800
     11 C4          0.1230    1.5050   -0.9760 c3        1 FDP      0.118100
     12 O4          1.1730    2.3520   -1.6340 oh        1 FDP     -0.656800
     13 C5          0.4720    1.2380    0.2820 c3        1 FDP      0.083100
     14 O5          1.2770   -0.1490    0.2410 os        1 FDP     -0.447600
     15 C6         -0.7560    1.1050    1.1510 c3        1 FDP      0.216400
     16 O6         -1.1040    2.3900    1.6860 os        1 FDP     -0.596200
     17 P2         -1.9780    2.4390    2.9880 p5        1 FDP      1.327900
     18 O4P        -1.1630    1.9660    4.1510 o         1 FDP     -0.947167
     19 O5P        -2.4410    3.8680    3.2420 o         1 FDP     -0.947167
     20 O6P        -3.1770    1.5450    2.8170 o         1 FDP     -0.947167
     21 HO1         1.6710   -3.1200   -2.6910 ho        1 FDP      0.474000
     22 H11         2.2950   -1.2080   -1.9330 h1        1 FDP      0.016700
     23 H12         2.3020   -2.2180   -0.7130 h1        1 FDP      0.016700
     24 H3          0.5320    0.1600   -2.4940 h1        1 FDP      0.032700
     25 HO3        -1.4060   -0.1650   -2.7470 ho        1 FDP      0.473000
     26 H4         -0.7570    1.9610   -1.0040 h1        1 FDP      0.045700
     27 HO4         0.7740    3.0390   -2.0820 ho        1 FDP      0.441000
     28 H5          1.0550    1.9540    0.6290 h1        1 FDP      0.017700
     29 H61        -1.5010    0.7610    0.6160 h1        1 FDP      0.006200
     30 H62        -0.5640    0.4700    1.9050 h1        1 FDP      0.006200
@<TRIPOS>BOND
     1    1    2 1   
     2    1    4 2   
     3    1    8 1   
     4    5    6 1   
     5    5   21 1   
     6    6    7 1   
     7    6   22 1   
     8    6   23 1   
     9    7    8 1   
    10    7    9 1   
    11    7   14 1   
    12    9   10 1   
    13    9   11 1   
    14    9   24 1   
    15   10   25 1   
    16   11   12 1   
    17   11   13 1   
    18   11   26 1   
    19   12   27 1   
    20   13   14 1   
    21   13   15 1   
    22   13   28 1   
    23   15   16 1   
    24   15   29 1   
    25   15   30 1   
    26   16   17 1   
    27   17   18 1   
    28   17   19 1   
    29   17   20 1   
@<TRIPOS>SUBSTRUCTURE
     1 FDP         1 TEMP              0 ****  ****    0 ROOT
