@<TRIPOS>MOLECULE
FDP
   30    30     1     0     0
SMALL
bcc


@<TRIPOS>ATOM
      1 P1          1.2660    0.7680    4.1290 p5        1 FDP      1.370900
      2 O1P         2.3870    1.7630    4.0790 o         1 FDP     -0.927500
      3 O2P        -0.0370    1.2850    4.6750 o         1 FDP     -0.927500
      4 O3P         1.6600   -0.6080    4.6010 o         1 FDP     -0.927500
      5 O1          1.2200   -2.3840    2.4800 oh        1 FDP     -0.677800
      6 C1         -0.0410   -1.8260    2.1970 c3        1 FDP      0.113400
      7 C2         -0.0100   -0.3260    1.7810 c3        1 FDP      0.415600
      8 O2          0.8420    0.4790    2.4540 os        1 FDP     -0.594200
      9 C3         -1.5050    0.1730    1.7020 c3        1 FDP      0.098100
     10 O3         -1.7460    1.4090    2.3330 oh        1 FDP     -0.660800
     11 C4         -1.8040    0.3110    0.1920 c3        1 FDP      0.125100
     12 O4         -3.0330   -0.3200   -0.1150 oh        1 FDP     -0.676800
     13 C5         -0.6100   -0.3770   -0.5020 c3        1 FDP      0.076100
     14 O5          0.4910   -0.2690    0.4130 os        1 FDP     -0.441600
     15 C6         -0.2480    0.2330   -1.8730 c3        1 FDP      0.228400
     16 O6         -0.4580   -0.6640   -2.9010 os        1 FDP     -0.587200
     17 P2         -1.6880   -0.2560   -4.0270 p5        1 FDP      1.331900
     18 O4P        -1.2310    1.0510   -4.6270 o         1 FDP     -0.949500
     19 O5P        -1.6830   -1.4180   -4.9910 o         1 FDP     -0.949500
     20 O6P        -2.9050   -0.1580   -3.1330 o         1 FDP     -0.949500
     21 HO1         1.6690   -1.7410    3.0760 ho        1 FDP      0.471000
     22 H11        -0.4540   -2.4280    1.3450 h1        1 FDP      0.007200
     23 H12        -0.7050   -1.9470    3.0970 h1        1 FDP      0.007200
     24 H3         -2.1960   -0.5870    2.1610 h1        1 FDP      0.008700
     25 HO3        -1.0510    1.5220    3.0200 ho        1 FDP      0.469000
     26 H4         -1.8630    1.3970   -0.0880 h1        1 FDP      0.039700
     27 HO4        -3.0900   -0.3340   -1.0950 ho        1 FDP      0.477000
     28 H5         -0.8450   -1.4680   -0.6460 h1        1 FDP      0.035700
     29 H61        -0.8570    1.1660   -2.0400 h1        1 FDP     -0.001300
     30 H62         0.8460    0.5140   -1.8430 h1        1 FDP     -0.001300
@<TRIPOS>BOND
     1    1    2 1   
     2    1    3 1   
     3    1    4 1   
     4    1    8 1   
     5    5    6 1   
     6    5   21 1   
     7    6    7 1   
     8    6   22 1   
     9    6   23 1   
    10    7    8 1   
    11    7    9 1   
    12    7   14 1   
    13    9   10 1   
    14    9   11 1   
    15    9   24 1   
    16   10   25 1   
    17   11   12 1   
    18   11   13 1   
    19   11   26 1   
    20   12   27 1   
    21   13   14 1   
    22   13   15 1   
    23   13   28 1   
    24   15   16 1   
    25   15   29 1   
    26   15   30 1   
    27   16   17 1   
    28   17   18 1   
    29   17   19 1   
    30   17   20 1   
@<TRIPOS>SUBSTRUCTURE
     1 FDP         1 TEMP              0 ****  ****    0 ROOT
