@<TRIPOS>MOLECULE
FDQ
   28    27     1     0     0
SMALL
bcc


@<TRIPOS>ATOM
      1 P1          2.8920   -1.4240    2.1380 p4        1 FDQ      1.587000
      2 O1P         4.3940   -1.4940    1.9900 o         1 FDQ     -0.971000
      3 O2P         2.5340   -1.3440    3.6030 os        1 FDQ     -1.281000
      4 O3P         2.2690   -2.6600    1.5350 o         1 FDQ     -1.019800
      5 C21         2.2670    0.0500    1.2810 c3        1 FDQ     -0.285600
      6 C2          0.7860    0.0430    1.3020 c3        1 FDQ      0.139100
      7 C3          0.3240    1.2830    1.2840 c3        1 FDQ      0.082100
      8 O3          1.2850    2.1760    0.6150 oh        1 FDQ     -0.621800
      9 C4         -0.9910    1.2080    0.4730 c3        1 FDQ      0.077100
     10 O4         -2.0370    1.3360    1.2800 oh        1 FDQ     -0.626800
     11 C5         -0.9920   -0.2210   -0.2060 c3        1 FDQ      0.080100
     12 O5          0.2100   -0.6780   -0.0420 os        1 FDQ     -0.457600
     13 C6         -1.3120   -0.1010   -1.6860 c3        1 FDQ      0.219400
     14 O6         -1.6730   -1.3640   -2.1920 os        1 FDQ     -0.581200
     15 P2         -2.2330   -1.4520   -3.6670 p5        1 FDQ      1.326900
     16 O4P        -2.4350   -2.9000   -4.0440 o         1 FDQ     -0.948500
     17 O5P        -3.5520   -0.7220   -3.7490 o         1 FDQ     -0.948500
     18 O6P        -1.2470   -0.8180   -4.6190 o         1 FDQ     -0.948500
     19 H211        2.5960    0.8540    1.7330 hc        1 FDQ      0.039200
     20 H212        2.5810    0.0460    0.3540 hc        1 FDQ      0.039200
     21 H2          0.4630   -0.4240    2.0970 h1        1 FDQ      0.085700
     22 H3          0.1450    1.5930    2.1940 h1        1 FDQ      0.075700
     23 HO3         1.2670    2.9760    1.0040 ho        1 FDQ      0.407000
     24 H4         -1.0050    1.9060   -0.2110 h1        1 FDQ      0.095700
     25 HO4        -2.3180    2.1830    1.2710 ho        1 FDQ      0.392000
     26 H5         -1.6400   -0.8060    0.2350 h1        1 FDQ      0.036700
     27 H61        -0.5230    0.2300   -2.1640 h1        1 FDQ      0.003700
     28 H62        -2.0550    0.5250   -1.8090 h1        1 FDQ      0.003700
@<TRIPOS>BOND
     1    1    2 1   
     2    1    4 2   
     3    1    5 1   
     4    5    6 1   
     5    5   19 1   
     6    5   20 1   
     7    6    7 1   
     8    6   12 1   
     9    6   21 1   
    10    7    8 1   
    11    7    9 1   
    12    7   22 1   
    13    8   23 1   
    14    9   10 1   
    15    9   11 1   
    16    9   24 1   
    17   10   25 1   
    18   11   12 1   
    19   11   13 1   
    20   11   26 1   
    21   13   14 1   
    22   13   27 1   
    23   13   28 1   
    24   14   15 1   
    25   15   16 1   
    26   15   17 1   
    27   15   18 1   
@<TRIPOS>SUBSTRUCTURE
     1 FDQ         1 TEMP              0 ****  ****    0 ROOT
