@<TRIPOS>MOLECULE
FDQ
   28    28     1     0     0
SMALL
bcc


@<TRIPOS>ATOM
      1 P1          4.3850   -0.0990    0.1830 p5        1 FDQ      1.218700
      2 O1P         4.7590   -1.5520    0.4060 o         1 FDQ     -0.967833
      3 O2P         5.2740    0.5820   -0.8410 o         1 FDQ     -0.967833
      4 O3P         4.2160    0.6940    1.4650 o         1 FDQ     -0.967833
      5 C21         2.7660   -0.1780   -0.6200 c3        1 FDQ     -0.285600
      6 C2          1.7190    0.5320    0.1660 c3        1 FDQ      0.139100
      7 C3          1.3110    1.9430   -0.3200 c3        1 FDQ      0.082100
      8 O3          1.2370    2.0790   -1.7270 oh        1 FDQ     -0.621800
      9 C4         -0.1050    2.1200    0.2950 c3        1 FDQ      0.077100
     10 O4         -0.0110    2.8650    1.5020 oh        1 FDQ     -0.626800
     11 C5         -0.6140    0.6790    0.5310 c3        1 FDQ      0.080100
     12 O5          0.4630   -0.2040    0.1590 os        1 FDQ     -0.457600
     13 C6         -1.8830    0.3050   -0.2730 c3        1 FDQ      0.219400
     14 O6         -2.9960    0.3460    0.5370 os        1 FDQ     -0.581200
     15 P2         -4.5080    0.6500   -0.2400 p5        1 FDQ      1.326900
     16 O4P        -4.2120    1.7700   -1.2070 o         1 FDQ     -0.948500
     17 O5P        -4.8490   -0.6670   -0.8950 o         1 FDQ     -0.948500
     18 O6P        -5.4020    1.0190    0.9200 o         1 FDQ     -0.948500
     19 H211        2.5090   -1.2560   -0.7150 hc        1 FDQ      0.039200
     20 H212        2.8760    0.2510   -1.6400 hc        1 FDQ      0.039200
     21 H2          2.0690    0.6180    1.2390 h1        1 FDQ      0.085700
     22 H3          2.0300    2.7280    0.0240 h1        1 FDQ      0.075700
     23 HO3         0.9160    1.2310   -2.0590 ho        1 FDQ      0.407000
     24 H4         -0.7960    2.7100   -0.3590 h1        1 FDQ      0.095700
     25 HO4         0.5420    2.3430    2.0960 ho        1 FDQ      0.392000
     26 H5         -0.8190    0.5260    1.6260 h1        1 FDQ      0.036700
     27 H61        -2.0120    1.0030   -1.1470 h1        1 FDQ      0.003700
     28 H62        -1.7120   -0.7420   -0.6660 h1        1 FDQ      0.003700
@<TRIPOS>BOND
     1    1    2 1   
     2    1    3 1   
     3    1    4 1   
     4    1    5 1   
     5    5    6 1   
     6    5   19 1   
     7    5   20 1   
     8    6    7 1   
     9    6   12 1   
    10    6   21 1   
    11    7    8 1   
    12    7    9 1   
    13    7   22 1   
    14    8   23 1   
    15    9   10 1   
    16    9   11 1   
    17    9   24 1   
    18   10   25 1   
    19   11   12 1   
    20   11   13 1   
    21   11   26 1   
    22   13   14 1   
    23   13   27 1   
    24   13   28 1   
    25   14   15 1   
    26   15   16 1   
    27   15   17 1   
    28   15   18 1   
@<TRIPOS>SUBSTRUCTURE
     1 FDQ         1 TEMP              0 ****  ****    0 ROOT
