@<TRIPOS>MOLECULE
FDR
   24    26     1     0     0
SMALL
bcc


@<TRIPOS>ATOM
      1 CAA         0.0200    0.0850    0.0820 c3        1 FDR     -0.142400
      2 OAB         3.9360    0.8890   -2.4900 o         1 FDR     -0.625500
      3 CAC         8.0590    0.2420    0.1260 c3        1 FDR     -0.078400
      4 CAD         7.4860   -0.1550    1.5020 c3        1 FDR      0.010900
      5 CAE         6.8750    0.4850   -0.8290 c3        1 FDR     -0.016100
      6 NAF         2.2280   -0.1610    1.1270 nc        1 FDR     -0.595100
      7 NAG         2.0990    0.4870   -1.1940 n         1 FDR     -0.492400
      8 SAH         4.6900   -0.4280    2.2650 ss        1 FDR      0.153200
      9 CAI         1.5290    0.1310    0.0340 cd        1 FDR      0.486900
     10 CAJ         6.0130   -0.1340    1.3140 cc        1 FDR     -0.195400
     11 CAK         5.6760    0.2260    0.0040 cd        1 FDR     -0.037300
     12 CAL         3.4980    0.5660   -1.3720 c         1 FDR      0.735100
     13 CAM         3.6030   -0.1010    1.0170 cc        1 FDR      0.138300
     14 CAN         4.2780    0.2490   -0.1840 cd        1 FDR     -0.209600
     15 HAA        -0.3590   -0.6610   -0.6590 hc        1 FDR      0.068033
     16 HAAA       -0.3950    1.0930   -0.1660 hc        1 FDR      0.068033
     17 HAAB       -0.3390   -0.2080    1.0990 hc        1 FDR      0.068033
     18 HAC         8.6770    1.1670    0.2190 hc        1 FDR      0.046700
     19 HACA        8.7140   -0.5720   -0.2680 hc        1 FDR      0.046700
     20 HAD         7.8070    0.5700    2.2910 hc        1 FDR      0.050700
     21 HADA        7.8440   -1.1720    1.8030 hc        1 FDR      0.050700
     22 HAE         6.9100   -0.2070   -1.7090 hc        1 FDR      0.067700
     23 HAEA        6.8730    1.5330   -1.2210 hc        1 FDR      0.067700
     24 HNAG        1.5080    0.6910   -1.9680 hn        1 FDR      0.333500
@<TRIPOS>BOND
     1    1    9 1   
     2    1   15 1   
     3    1   16 1   
     4    1   17 1   
     5    2   12 2   
     6    3    4 1   
     7    3    5 1   
     8    3   18 1   
     9    3   19 1   
    10    4   10 1   
    11    4   20 1   
    12    4   21 1   
    13    5   11 1   
    14    5   22 1   
    15    5   23 1   
    16    6    9 2   
    17    6   13 1   
    18    7    9 1   
    19    7   12 1   
    20    7   24 1   
    21    8   10 1   
    22    8   13 1   
    23   10   11 2   
    24   11   14 1   
    25   12   14 1   
    26   13   14 2   
@<TRIPOS>SUBSTRUCTURE
     1 FDR         1 TEMP              0 ****  ****    0 ROOT
