@<TRIPOS>MOLECULE
FDR
   24    26     1     0     0
SMALL
bcc


@<TRIPOS>ATOM
      1 CAA         0.0200    0.0760    0.0830 c3        1 FDR     -0.142400
      2 OAB         3.9340    0.8870   -2.4900 o         1 FDR     -0.625500
      3 CAC         8.0590    0.2500    0.1250 c3        1 FDR     -0.078400
      4 CAD         7.4870   -0.1490    1.5010 c3        1 FDR      0.010900
      5 CAE         6.8740    0.4900   -0.8300 c3        1 FDR     -0.016100
      6 NAF         2.2290   -0.1660    1.1270 nc        1 FDR     -0.595100
      7 NAG         2.0980    0.4820   -1.1940 n         1 FDR     -0.492400
      8 SAH         4.6920   -0.4270    2.2650 ss        1 FDR      0.153200
      9 CAI         1.5290    0.1240    0.0340 cd        1 FDR      0.486900
     10 CAJ         6.0150   -0.1310    1.3140 cc        1 FDR     -0.195400
     11 CAK         5.6770    0.2290    0.0040 cd        1 FDR     -0.037300
     12 CAL         3.4970    0.5640   -1.3720 c         1 FDR      0.735100
     13 CAM         3.6040   -0.1030    1.0170 cc        1 FDR      0.138300
     14 CAN         4.2790    0.2490   -0.1840 cd        1 FDR     -0.209600
     15 HAA        -0.3970    1.0830   -0.1660 hc        1 FDR      0.068033
     16 HAAA       -0.3370   -0.2170    1.1010 hc        1 FDR      0.068033
     17 HAAB       -0.3560   -0.6720   -0.6570 hc        1 FDR      0.068033
     18 HAC         8.6760    1.1760    0.2180 hc        1 FDR      0.046700
     19 HACA        8.7160   -0.5630   -0.2690 hc        1 FDR      0.046700
     20 HAD         7.8470   -1.1650    1.8020 hc        1 FDR      0.050700
     21 HADA        7.8070    0.5780    2.2900 hc        1 FDR      0.050700
     22 HAE         6.8710    1.5380   -1.2220 hc        1 FDR      0.067700
     23 HAEA        6.9110   -0.2020   -1.7090 hc        1 FDR      0.067700
     24 HNAG        1.5060    0.6850   -1.9670 hn        1 FDR      0.333500
@<TRIPOS>BOND
     1    1    9 1   
     2    1   15 1   
     3    1   16 1   
     4    1   17 1   
     5    2   12 2   
     6    3    4 1   
     7    3    5 1   
     8    3   18 1   
     9    3   19 1   
    10    4   10 1   
    11    4   20 1   
    12    4   21 1   
    13    5   11 1   
    14    5   22 1   
    15    5   23 1   
    16    6    9 2   
    17    6   13 1   
    18    7    9 1   
    19    7   12 1   
    20    7   24 1   
    21    8   10 1   
    22    8   13 1   
    23   10   11 2   
    24   11   14 1   
    25   12   14 1   
    26   13   14 2   
@<TRIPOS>SUBSTRUCTURE
     1 FDR         1 TEMP              0 ****  ****    0 ROOT
