@<TRIPOS>MOLECULE
FDR
   24    26     1     0     0
SMALL
bcc


@<TRIPOS>ATOM
      1 CAA         0.0200    0.0740    0.0850 c3        1 FDR     -0.142400
      2 OAB         3.9320    0.9030   -2.4850 o         1 FDR     -0.625500
      3 CAC         8.0590    0.2500    0.1230 c3        1 FDR     -0.078400
      4 CAD         7.4880   -0.1570    1.4970 c3        1 FDR      0.010900
      5 CAE         6.8730    0.4960   -0.8300 c3        1 FDR     -0.016100
      6 NAF         2.2300   -0.1730    1.1270 nc        1 FDR     -0.595100
      7 NAG         2.0970    0.4890   -1.1900 ns        1 FDR     -0.492400
      8 SAH         4.6940   -0.4410    2.2610 ss        1 FDR      0.153200
      9 CAI         1.5290    0.1240    0.0360 cd        1 FDR      0.486900
     10 CAJ         6.0150   -0.1380    1.3110 cc        1 FDR     -0.195400
     11 CAK         5.6760    0.2290    0.0030 cd        1 FDR     -0.037300
     12 CAL         3.4960    0.5720   -1.3690 c         1 FDR      0.735100
     13 CAM         3.6050   -0.1100    1.0160 cc        1 FDR      0.138300
     14 CAN         4.2780    0.2500   -0.1830 cd        1 FDR     -0.209600
     15 HAA        -0.3570   -0.6700   -0.6590 hc        1 FDR      0.068033
     16 HAAA       -0.3980    1.0820   -0.1580 hc        1 FDR      0.068033
     17 HAAB       -0.3370   -0.2250    1.1010 hc        1 FDR      0.068033
     18 HAC         8.6750    1.1760    0.2220 hc        1 FDR      0.046700
     19 HACA        8.7150   -0.5600   -0.2770 hc        1 FDR      0.046700
     20 HAD         7.8080    0.5640    2.2910 hc        1 FDR      0.050700
     21 HADA        7.8480   -1.1750    1.7920 hc        1 FDR      0.050700
     22 HAE         6.8690    1.5470   -1.2150 hc        1 FDR      0.067700
     23 HAEA        6.9100   -0.1900   -1.7130 hc        1 FDR      0.067700
     24 HNAG        1.5050    0.6960   -1.9620 hn        1 FDR      0.333500
@<TRIPOS>BOND
     1    1    9 1   
     2    1   15 1   
     3    1   16 1   
     4    1   17 1   
     5    2   12 2   
     6    3    4 1   
     7    3    5 1   
     8    3   18 1   
     9    3   19 1   
    10    4   10 1   
    11    4   20 1   
    12    4   21 1   
    13    5   11 1   
    14    5   22 1   
    15    5   23 1   
    16    6    9 2   
    17    6   13 1   
    18    7    9 1   
    19    7   12 1   
    20    7   24 1   
    21    8   10 1   
    22    8   13 1   
    23   10   11 2   
    24   11   14 1   
    25   12   14 1   
    26   13   14 2   
@<TRIPOS>SUBSTRUCTURE
     1 FDR         1 TEMP              0 ****  ****    0 ROOT
