@<TRIPOS>MOLECULE
FDR
   24    26     1     0     0
SMALL
bcc


@<TRIPOS>ATOM
      1 CAA         4.2380    0.5770    0.0280 c3        1 FDR     -0.142400
      2 OAB         0.8610   -2.7680   -0.0420 o         1 FDR     -0.625500
      3 CAC        -3.6750   -0.8480   -0.0540 c3        1 FDR     -0.078400
      4 CAD        -3.3650    0.6630   -0.0320 c3        1 FDR      0.010900
      5 CAE        -2.3350   -1.6080   -0.0530 c3        1 FDR     -0.016100
      6 NAF         1.8740    1.2410    0.0180 nc        1 FDR     -0.595100
      7 NAG         2.4290   -1.1080   -0.0080 n         1 FDR     -0.492400
      8 SAH        -0.7560    1.9540    0.0060 ss        1 FDR      0.153200
      9 CAI         2.7630    0.2510    0.0120 cd        1 FDR      0.486900
     10 CAJ        -1.8830    0.7410   -0.0190 cc        1 FDR     -0.195400
     11 CAK        -1.3100   -0.5370   -0.0310 cd        1 FDR     -0.037300
     12 CAL         1.0850   -1.5450   -0.0250 c         1 FDR      0.735100
     13 CAM         0.5420    0.8770    0.0030 cc        1 FDR      0.138300
     14 CAN         0.0990   -0.4730   -0.0190 cd        1 FDR     -0.209600
     15 HAA         4.4030    1.6820    0.0440 hc        1 FDR      0.068033
     16 HAAA        4.7120    0.1320    0.9380 hc        1 FDR      0.068033
     17 HAAB        4.7260    0.1560   -0.8850 hc        1 FDR      0.068033
     18 HAC        -4.2810   -1.1300    0.8410 hc        1 FDR      0.046700
     19 HACA       -4.2660   -1.1060   -0.9660 hc        1 FDR      0.046700
     20 HAD        -3.7920    1.1700   -0.9340 hc        1 FDR      0.050700
     21 HADA       -3.8070    1.1470    0.8760 hc        1 FDR      0.050700
     22 HAE        -2.2420   -2.2720    0.8430 hc        1 FDR      0.067700
     23 HAEA       -2.2280   -2.2480   -0.9640 hc        1 FDR      0.067700
     24 HNAG        3.1520   -1.7900   -0.0110 hn        1 FDR      0.333500
@<TRIPOS>BOND
     1    1    9 1   
     2    1   15 1   
     3    1   16 1   
     4    1   17 1   
     5    2   12 2   
     6    3    4 1   
     7    3    5 1   
     8    3   18 1   
     9    3   19 1   
    10    4   10 1   
    11    4   20 1   
    12    4   21 1   
    13    5   11 1   
    14    5   22 1   
    15    5   23 1   
    16    6    9 2   
    17    6   13 1   
    18    7    9 1   
    19    7   12 1   
    20    7   24 1   
    21    8   10 1   
    22    8   13 1   
    23   10   11 2   
    24   11   14 1   
    25   12   14 1   
    26   13   14 2   
@<TRIPOS>SUBSTRUCTURE
     1 FDR         1 TEMP              0 ****  ****    0 ROOT
