@<TRIPOS>MOLECULE
FDS
   38    41     1     0     0
SMALL
bcc


@<TRIPOS>ATOM
      1 C1         -2.6440    0.2260   -3.2510 ca        1 FDS      0.125100
      2 O1         -3.5070    0.1680   -4.3260 oh        1 FDS     -0.510600
      3 C2         -1.3140   -0.1940   -3.3470 ca        1 FDS     -0.217000
      4 C3         -0.5090   -0.1030   -2.2010 ca        1 FDS      0.139100
      5 O2          0.7940   -0.5530   -2.3740 os        1 FDS     -0.247200
      6 C4          1.6960   -0.1980   -1.3720 ca        1 FDS      0.139100
      7 C5          3.0450   -0.3840   -1.7080 ca        1 FDS     -0.217000
      8 C6          4.0040   -0.0500   -0.7450 ca        1 FDS      0.125100
      9 O3          5.3240   -0.2500   -1.1000 oh        1 FDS     -0.510600
     10 C7          3.6360    0.4670    0.5070 ca        1 FDS     -0.211500
     11 C8          2.2890    0.6410    0.8100 ca        1 FDS     -0.050500
     12 C9          1.3010    0.2980   -0.1230 ca        1 FDS     -0.131800
     13 C10        -0.1410    0.4770    0.2320 c3        1 FDS      0.075200
     14 C11        -1.0070    0.3910   -0.9860 ca        1 FDS     -0.131800
     15 C12        -2.3410    0.8140   -0.9330 ca        1 FDS     -0.050500
     16 C13        -3.1650    0.7360   -2.0510 ca        1 FDS     -0.211500
     17 C14        -0.5640   -0.5200    1.2760 ca        1 FDS     -0.071300
     18 C15        -0.6740   -1.8750    0.9350 ca        1 FDS     -0.130000
     19 C16        -1.0620   -2.8170    1.8830 ca        1 FDS     -0.162000
     20 C17        -1.3510   -2.4090    3.1860 ca        1 FDS     -0.149000
     21 C18        -1.2460   -1.0640    3.5300 ca        1 FDS     -0.116000
     22 C19        -0.8440   -0.1090    2.5870 ca        1 FDS     -0.101600
     23 C20        -0.7370    1.3400    3.0420 c         1 FDS      0.905200
     24 O4          0.3720    1.9330    2.8960 o         1 FDS     -0.827800
     25 O5         -1.7580    1.8740    3.5520 o         1 FDS     -0.827800
     26 HO1        -3.0170   -0.2020   -5.0740 ho        1 FDS      0.410500
     27 H2         -0.8980   -0.5870   -4.2820 ha        1 FDS      0.144500
     28 H5          3.3360   -0.7780   -2.6880 ha        1 FDS      0.144500
     29 HO3         5.8680    0.0190   -0.3470 ho        1 FDS      0.410500
     30 H7          4.4050    0.7340    1.2430 ha        1 FDS      0.136500
     31 H8          1.9630    1.0590    1.7890 ha        1 FDS      0.192000
     32 H10        -0.2530    1.5170    0.6780 hc        1 FDS      0.126700
     33 H12        -2.7360    1.2080    0.0190 ha        1 FDS      0.192000
     34 H13        -4.2120    1.0630   -2.0080 ha        1 FDS      0.136500
     35 H15        -0.4500   -2.1910   -0.0950 ha        1 FDS      0.119000
     36 H16        -1.1430   -3.8760    1.6050 ha        1 FDS      0.107000
     37 H17        -1.6640   -3.1480    3.9360 ha        1 FDS      0.106000
     38 H18        -1.4890   -0.7240    4.5480 ha        1 FDS      0.138000
@<TRIPOS>BOND
     1    1    2 1   
     2    1    3 ar  
     3    1   16 ar  
     4    2   26 1   
     5    3    4 ar  
     6    3   27 1   
     7    4    5 1   
     8    4   14 ar  
     9    5    6 1   
    10    6    7 ar  
    11    6   12 ar  
    12    7    8 ar  
    13    7   28 1   
    14    8    9 1   
    15    8   10 ar  
    16    9   29 1   
    17   10   11 ar  
    18   10   30 1   
    19   11   12 ar  
    20   11   31 1   
    21   12   13 1   
    22   13   14 1   
    23   13   17 1   
    24   13   32 1   
    25   14   15 ar  
    26   15   16 ar  
    27   15   33 1   
    28   16   34 1   
    29   17   18 ar  
    30   17   22 ar  
    31   18   19 ar  
    32   18   35 1   
    33   19   20 ar  
    34   19   36 1   
    35   20   21 ar  
    36   20   37 1   
    37   21   22 ar  
    38   21   38 1   
    39   22   23 1   
    40   23   24 1   
    41   23   25 1   
@<TRIPOS>SUBSTRUCTURE
     1 FDS         1 TEMP              0 ****  ****    0 ROOT
