@<TRIPOS>MOLECULE
FDS
   38    41     1     0     0
SMALL
bcc


@<TRIPOS>ATOM
      1 C1         -0.0290   -0.1180   -0.0860 ca        1 FDS      0.125100
      2 O1         -0.6900   -0.1610   -1.2980 oh        1 FDS     -0.511600
      3 C2          1.3500    0.1120   -0.1380 ca        1 FDS     -0.188000
      4 C3          2.0520    0.1560    1.0760 ca        1 FDS      0.137600
      5 O2          3.4190    0.3720    0.9430 os        1 FDS     -0.244200
      6 C4          4.0940    0.7230    2.1110 ca        1 FDS      0.137600
      7 C5          5.3860    1.2310    1.9070 ca        1 FDS     -0.188000
      8 C6          6.1230    1.5990    3.0380 ca        1 FDS      0.125100
      9 O3          7.3940    2.0890    2.8080 oh        1 FDS     -0.511600
     10 C7          5.5880    1.4820    4.3310 ca        1 FDS     -0.239000
     11 C8          4.3040    0.9760    4.5000 ca        1 FDS     -0.047500
     12 C9          3.5460    0.5780    3.3910 ca        1 FDS     -0.133300
     13 C10         2.1730    0.0220    3.5990 c3        1 FDS      0.077200
     14 C11         1.4110   -0.0220    2.3120 ca        1 FDS     -0.133300
     15 C12         0.0290   -0.2350    2.3230 ca        1 FDS     -0.047500
     16 C13        -0.6960   -0.2860    1.1360 ca        1 FDS     -0.239000
     17 C14         2.2360   -1.3350    4.2440 ca        1 FDS     -0.073300
     18 C15         2.7180   -2.4310    3.5160 ca        1 FDS     -0.128000
     19 C16         2.7840   -3.6940    4.0960 ca        1 FDS     -0.163000
     20 C17         2.3610   -3.8750    5.4130 ca        1 FDS     -0.148000
     21 C18         1.8780   -2.7910    6.1400 ca        1 FDS     -0.118000
     22 C19         1.8170   -1.5130    5.5710 ca        1 FDS     -0.100600
     23 C20         1.2920   -0.3680    6.4260 c         1 FDS      0.905200
     24 O4          2.0690    0.6040    6.6620 o         1 FDS     -0.827800
     25 O5          0.1120   -0.4490    6.8600 o         1 FDS     -0.827800
     26 HO1        -1.6240   -0.3280   -1.1120 ho        1 FDS      0.411500
     27 H2          1.8670    0.2490   -1.0950 ha        1 FDS      0.153000
     28 H5          5.8020    1.3330    0.8980 ha        1 FDS      0.153000
     29 HO3         7.7800    2.3000    3.6700 ho        1 FDS      0.411500
     30 H7          6.1800    1.7880    5.2040 ha        1 FDS      0.128500
     31 H8          3.8460    0.8790    5.5100 ha        1 FDS      0.192500
     32 H10         1.6290    0.7220    4.3120 hc        1 FDS      0.123700
     33 H12        -0.4820   -0.3700    3.2920 ha        1 FDS      0.192500
     34 H13        -1.7810   -0.4590    1.1560 ha        1 FDS      0.128500
     35 H15         3.0470   -2.2840    2.4760 ha        1 FDS      0.120000
     36 H16         3.1670   -4.5450    3.5170 ha        1 FDS      0.107000
     37 H17         2.4070   -4.8720    5.8720 ha        1 FDS      0.106000
     38 H18         1.5250   -2.9220    7.1750 ha        1 FDS      0.136000
@<TRIPOS>BOND
     1    1    2 1   
     2    1    3 ar  
     3    1   16 ar  
     4    2   26 1   
     5    3    4 ar  
     6    3   27 1   
     7    4    5 1   
     8    4   14 ar  
     9    5    6 1   
    10    6    7 ar  
    11    6   12 ar  
    12    7    8 ar  
    13    7   28 1   
    14    8    9 1   
    15    8   10 ar  
    16    9   29 1   
    17   10   11 ar  
    18   10   30 1   
    19   11   12 ar  
    20   11   31 1   
    21   12   13 1   
    22   13   14 1   
    23   13   17 1   
    24   13   32 1   
    25   14   15 ar  
    26   15   16 ar  
    27   15   33 1   
    28   16   34 1   
    29   17   18 ar  
    30   17   22 ar  
    31   18   19 ar  
    32   18   35 1   
    33   19   20 ar  
    34   19   36 1   
    35   20   21 ar  
    36   20   37 1   
    37   21   22 ar  
    38   21   38 1   
    39   22   23 1   
    40   23   24 1   
    41   23   25 1   
@<TRIPOS>SUBSTRUCTURE
     1 FDS         1 TEMP              0 ****  ****    0 ROOT
