@<TRIPOS>MOLECULE
FDT
   27    28     1     0     0
SMALL
bcc


@<TRIPOS>ATOM
      1 C1         -1.7430   -0.4430   -1.3160 c2        1 FDT      0.150000
      2 C2         -1.4140   -0.2910    0.0120 ce        1 FDT     -0.363400
      3 C3         -2.5020   -0.4930    0.9620 c         1 FDT      0.605100
      4 C5         -0.0750    0.1040    0.4820 c3        1 FDT      0.080300
      5 S6          1.2720   -0.8630   -0.2430 ss        1 FDT     -0.264700
      6 O7         -2.5990    0.0130    2.0860 o         1 FDT     -0.583100
      7 N8         -1.0330   -0.2860   -2.4570 nh        1 FDT     -0.578800
      8 C9          0.3270   -0.0940   -2.6930 ce        1 FDT      0.026800
      9 C10         0.1490   -0.0050    1.9330 cc        1 FDT      0.316600
     10 C11         1.3310   -0.2920   -1.8100 c2        1 FDT     -0.170400
     11 C12         0.6670    0.3590   -4.1490 c         1 FDT      0.919800
     12 O13         1.8420    0.7390   -4.3660 o         1 FDT     -0.807800
     13 C14         0.5460    1.0150    2.8180 cd        1 FDT     -0.221600
     14 O15        -0.2680    0.3090   -4.9970 o         1 FDT     -0.807800
     15 N16         0.0340   -1.1880    2.7140 nc        1 FDT     -0.331000
     16 N17         0.3180   -0.9370    3.9230 nd        1 FDT     -0.181800
     17 N18         0.6470    0.3740    4.0630 na        1 FDT      0.033400
     18 C19         0.9500    1.0280    5.3040 c3        1 FDT      0.046600
     19 H1         -2.8100   -0.6960   -1.5330 h4        1 FDT      0.116000
     20 H3         -3.3270   -1.1510    0.5880 h4        1 FDT     -0.040800
     21 H5          0.1100    1.1730    0.1760 h1        1 FDT      0.073700
     22 HN8        -1.5630   -0.2630   -3.3170 hn        1 FDT      0.469800
     23 H11         2.3490   -0.0840   -2.1880 h4        1 FDT      0.180000
     24 H14         0.7530    2.0710    2.6670 h4        1 FDT      0.183000
     25 H191        0.0030    1.2600    5.8610 h1        1 FDT      0.049700
     26 H192        1.5940    0.3670    5.9440 h1        1 FDT      0.049700
     27 H193        1.4960    1.9830    5.0880 h1        1 FDT      0.049700
@<TRIPOS>BOND
     1    1    2 2   
     2    1    7 1   
     3    1   19 1   
     4    2    3 1   
     5    2    4 1   
     6    3    6 2   
     7    3   20 1   
     8    4    5 1   
     9    4    9 1   
    10    4   21 1   
    11    5   10 1   
    12    7    8 1   
    13    7   22 1   
    14    8   10 2   
    15    8   11 1   
    16    9   13 2   
    17    9   15 1   
    18   10   23 1   
    19   11   12 1   
    20   11   14 1   
    21   13   17 1   
    22   13   24 1   
    23   15   16 2   
    24   16   17 1   
    25   17   18 1   
    26   18   25 1   
    27   18   26 1   
    28   18   27 1   
@<TRIPOS>SUBSTRUCTURE
     1 FDT         1 TEMP              0 ****  ****    0 ROOT
