@<TRIPOS>MOLECULE
FDT
   27    28     1     0     0
SMALL
bcc


@<TRIPOS>ATOM
      1 C1         -0.0170   -0.2720   -0.2350 c2        1 FDT      0.150000
      2 C2          1.2420    0.2850   -0.2730 ce        1 FDT     -0.363400
      3 C3          1.6250    0.8990   -1.5390 c         1 FDT      0.605100
      4 C5          2.1900    0.2350    0.8520 c3        1 FDT      0.080300
      5 S6          1.4790    0.7510    2.4350 ss        1 FDT     -0.264700
      6 O7          2.7770    1.0310   -1.9710 o         1 FDT     -0.583100
      7 N8         -0.6840   -0.9580    0.7200 nh        1 FDT     -0.578800
      8 C9         -0.4120   -1.1910    2.0670 ce        1 FDT      0.026800
      9 C10         3.3910    1.0760    0.7110 cc        1 FDT      0.316600
     10 C11         0.4900   -0.5330    2.8290 c2        1 FDT     -0.170400
     11 C12        -1.2920   -2.3070    2.7150 c         1 FDT      0.919800
     12 O13        -0.9610   -2.6990    3.8590 o         1 FDT     -0.807800
     13 C14         4.7360    0.6620    0.7590 cd        1 FDT     -0.221600
     14 O15        -2.2700   -2.7310    2.0380 o         1 FDT     -0.807800
     15 N16         3.4130    2.4860    0.5280 nc        1 FDT     -0.331000
     16 N17         4.6110    2.8950    0.4670 nd        1 FDT     -0.181800
     17 N18         5.4690    1.8510    0.6090 na        1 FDT      0.033400
     18 C19         6.8990    1.9310    0.5140 c3        1 FDT      0.046600
     19 H1         -0.6120   -0.2060   -1.1790 h4        1 FDT      0.116000
     20 H3          0.7640    1.2430   -2.1670 h4        1 FDT     -0.040800
     21 H5          2.5210   -0.8330    0.9940 h1        1 FDT      0.073700
     22 HN8        -1.5240   -1.4360    0.4270 hn        1 FDT      0.469800
     23 H11         0.5610   -0.8650    3.8820 h4        1 FDT      0.180000
     24 H14         5.1950   -0.3140    0.8840 h4        1 FDT      0.183000
     25 H191        7.2140    1.9760   -0.5630 h1        1 FDT      0.049700
     26 H192        7.2720    2.8500    1.0400 h1        1 FDT      0.049700
     27 H193        7.3460    1.0200    0.9930 h1        1 FDT      0.049700
@<TRIPOS>BOND
     1    1    2 2   
     2    1    7 1   
     3    1   19 1   
     4    2    3 1   
     5    2    4 1   
     6    3    6 2   
     7    3   20 1   
     8    4    5 1   
     9    4    9 1   
    10    4   21 1   
    11    5   10 1   
    12    7    8 1   
    13    7   22 1   
    14    8   10 2   
    15    8   11 1   
    16    9   13 2   
    17    9   15 1   
    18   10   23 1   
    19   11   12 1   
    20   11   14 1   
    21   13   17 1   
    22   13   24 1   
    23   15   16 2   
    24   16   17 1   
    25   17   18 1   
    26   18   25 1   
    27   18   26 1   
    28   18   27 1   
@<TRIPOS>SUBSTRUCTURE
     1 FDT         1 TEMP              0 ****  ****    0 ROOT
