@<TRIPOS>MOLECULE
FDT
   27    28     1     0     0
SMALL
bcc


@<TRIPOS>ATOM
      1 C1         -0.0210   -0.2870   -0.2280 c2        1 FDT      0.150000
      2 C2          1.2360    0.2740   -0.2700 ce        1 FDT     -0.363400
      3 C3          1.6160    0.8810   -1.5410 c         1 FDT      0.605100
      4 C5          2.1860    0.2330    0.8530 c3        1 FDT      0.080300
      5 S6          1.4770    0.7570    2.4340 ss        1 FDT     -0.264700
      6 O7          2.7670    1.0130   -1.9760 o         1 FDT     -0.583100
      7 N8         -0.6850   -0.9690    0.7330 nh        1 FDT     -0.578800
      8 C9         -0.4100   -1.1930    2.0800 ce        1 FDT      0.026800
      9 C10         3.3850    1.0760    0.7050 cc        1 FDT      0.316600
     10 C11         0.4910   -0.5280    2.8370 c2        1 FDT     -0.170400
     11 C12        -1.2870   -2.3070    2.7370 c         1 FDT      0.919800
     12 O13        -0.9530   -2.6910    3.8830 o         1 FDT     -0.807800
     13 C14         4.7310    0.6660    0.7540 cd        1 FDT     -0.221600
     14 O15        -2.2640   -2.7370    2.0640 o         1 FDT     -0.807800
     15 N16         3.4030    2.4850    0.5130 nc        1 FDT     -0.331000
     16 N17         4.5990    2.8970    0.4480 nd        1 FDT     -0.181800
     17 N18         5.4600    1.8550    0.5950 na        1 FDT      0.033400
     18 C19         6.8900    1.9390    0.4990 c3        1 FDT      0.046600
     19 H1         -0.6180   -0.2270   -1.1710 h4        1 FDT      0.116000
     20 H3          0.7530    1.2190   -2.1700 h4        1 FDT     -0.040800
     21 H5          2.5200   -0.8330    1.0010 h1        1 FDT      0.073700
     22 HN8        -1.5250   -1.4500    0.4440 hn        1 FDT      0.469800
     23 H11         0.5650   -0.8530    3.8920 h4        1 FDT      0.180000
     24 H14         5.1920   -0.3080    0.8840 h4        1 FDT      0.183000
     25 H191        7.3400    1.0300    0.9760 h1        1 FDT      0.049700
     26 H192        7.2040    1.9870   -0.5790 h1        1 FDT      0.049700
     27 H193        7.2610    2.8580    1.0260 h1        1 FDT      0.049700
@<TRIPOS>BOND
     1    1    2 2   
     2    1    7 1   
     3    1   19 1   
     4    2    3 1   
     5    2    4 1   
     6    3    6 2   
     7    3   20 1   
     8    4    5 1   
     9    4    9 1   
    10    4   21 1   
    11    5   10 1   
    12    7    8 1   
    13    7   22 1   
    14    8   10 2   
    15    8   11 1   
    16    9   13 2   
    17    9   15 1   
    18   10   23 1   
    19   11   12 1   
    20   11   14 1   
    21   13   17 1   
    22   13   24 1   
    23   15   16 2   
    24   16   17 1   
    25   17   18 1   
    26   18   25 1   
    27   18   26 1   
    28   18   27 1   
@<TRIPOS>SUBSTRUCTURE
     1 FDT         1 TEMP              0 ****  ****    0 ROOT
