@<TRIPOS>MOLECULE
FDT
   27    28     1     0     0
SMALL
bcc


@<TRIPOS>ATOM
      1 C1         -0.0260   -0.2500   -0.2370 c2        1 FDT      0.150000
      2 C2          1.2400    0.2920   -0.2740 ce        1 FDT     -0.363400
      3 C3          1.6330    0.8980   -1.5410 c         1 FDT      0.605100
      4 C5          2.1860    0.2340    0.8530 c3        1 FDT      0.080300
      5 S6          1.4780    0.7640    2.4330 ss        1 FDT     -0.264700
      6 O7          2.7870    1.0150   -1.9710 o         1 FDT     -0.583100
      7 N8         -0.7030   -0.9250    0.7190 nu        1 FDT     -0.578800
      8 C9         -0.4350   -1.1570    2.0670 ce        1 FDT      0.026800
      9 C10         3.3970    1.0600    0.7120 cc        1 FDT      0.316600
     10 C11         0.4730   -0.5070    2.8290 c2        1 FDT     -0.170400
     11 C12        -1.3300   -2.2600    2.7180 c         1 FDT      0.919800
     12 O13        -1.0060   -2.6520    3.8640 o         1 FDT     -0.807800
     13 C14         4.7370    0.6300    0.7630 cd        1 FDT     -0.221600
     14 O15        -2.3120   -2.6750    2.0390 o         1 FDT     -0.807800
     15 N16         3.4370    2.4690    0.5250 nc        1 FDT     -0.331000
     16 N17         4.6390    2.8630    0.4650 nd        1 FDT     -0.181800
     17 N18         5.4840    1.8090    0.6100 na        1 FDT      0.033400
     18 C19         6.9160    1.8710    0.5190 c3        1 FDT      0.046600
     19 H1         -0.6180   -0.1790   -1.1820 h4        1 FDT      0.116000
     20 H3          0.7780    1.2510   -2.1710 h4        1 FDT     -0.040800
     21 H5          2.5030   -0.8370    0.9990 h1        1 FDT      0.073700
     22 HN8        -1.5480   -1.3940    0.4260 hn        1 FDT      0.469800
     23 H11         0.5380   -0.8360    3.8830 h4        1 FDT      0.180000
     24 H14         5.1830   -0.3520    0.8910 h4        1 FDT      0.183000
     25 H191        7.2330    1.9160   -0.5580 h1        1 FDT      0.049700
     26 H192        7.2990    2.7840    1.0480 h1        1 FDT      0.049700
     27 H193        7.3510    0.9540    0.9950 h1        1 FDT      0.049700
@<TRIPOS>BOND
     1    1    2 2   
     2    1    7 1   
     3    1   19 1   
     4    2    3 1   
     5    2    4 1   
     6    3    6 2   
     7    3   20 1   
     8    4    5 1   
     9    4    9 1   
    10    4   21 1   
    11    5   10 1   
    12    7    8 1   
    13    7   22 1   
    14    8   10 2   
    15    8   11 1   
    16    9   13 2   
    17    9   15 1   
    18   10   23 1   
    19   11   12 1   
    20   11   14 1   
    21   13   17 1   
    22   13   24 1   
    23   15   16 2   
    24   16   17 1   
    25   17   18 1   
    26   18   25 1   
    27   18   26 1   
    28   18   27 1   
@<TRIPOS>SUBSTRUCTURE
     1 FDT         1 TEMP              0 ****  ****    0 ROOT
