@<TRIPOS>MOLECULE
FDU
   30    31     1     0     0
SMALL
bcc


@<TRIPOS>ATOM
      1 O01         0.0530   -0.8980    0.2550 oh        1 FDU     -0.592800
      2 C03         1.4580   -0.7630    0.2260 c3        1 FDU      0.118400
      3 C06         1.9600   -0.0140    1.4590 c3        1 FDU      0.101100
      4 O08         1.6430   -0.7860    2.6320 os        1 FDU     -0.425600
      5 C09         3.4770    0.2180    1.4300 c3        1 FDU      0.094100
      6 O11         3.6990    1.6010    1.2500 oh        1 FDU     -0.585800
      7 C13         3.9750   -0.2320    2.8330 c3        1 FDU      0.119600
      8 F15         5.2060   -0.8420    2.7950 f         1 FDU     -0.210300
      9 C16         2.8100   -1.1230    3.3860 c3        1 FDU      0.292500
     10 N18         3.0350   -2.5630    3.4020 n         1 FDU     -0.379000
     11 C19         3.4950   -3.2630    2.2490 c         1 FDU      0.819500
     12 O20         3.7760   -2.6630    1.1890 o         1 FDU     -0.648500
     13 N21         3.6420   -4.6520    2.3260 n         1 FDU     -0.584500
     14 C23         3.3150   -5.4120    3.4650 c         1 FDU      0.724700
     15 O24         3.4910   -6.6380    3.4250 o         1 FDU     -0.585500
     16 C25         2.7790   -4.6460    4.6110 cc        1 FDU     -0.100900
     17 C26         2.6530   -3.2860    4.5230 cd        1 FDU      0.064600
     18 C28         2.4090   -5.3430    5.7680 cg        1 FDU     -0.156300
     19 C29         2.0970   -5.9510    6.7510 c1        1 FDU     -0.106500
     20 H1         -0.1690   -1.3840    1.0590 ho        1 FDU      0.409000
     21 H2          1.6750   -0.1580   -0.6950 h1        1 FDU      0.067700
     22 H3          1.9500   -1.7690    0.1530 h1        1 FDU      0.067700
     23 H4          1.4020    0.9570    1.5800 h1        1 FDU      0.099700
     24 H5          3.9760   -0.3910    0.6280 h1        1 FDU      0.100700
     25 H6          4.6270    1.7050    1.0040 ho        1 FDU      0.416000
     26 H7          4.0480    0.6740    3.5040 h1        1 FDU      0.083700
     27 H8          2.5710   -0.8120    4.4490 h2        1 FDU      0.092700
     28 H9          3.9980   -5.1130    1.5150 hn        1 FDU      0.357500
     29 H10         2.2440   -2.6970    5.3670 h4        1 FDU      0.172000
     30 H11         1.8210   -6.4940    7.6200 ha        1 FDU      0.172500
@<TRIPOS>BOND
     1    1    2 1   
     2    1   20 1   
     3    2    3 1   
     4    2   21 1   
     5    2   22 1   
     6    3    4 1   
     7    3    5 1   
     8    3   23 1   
     9    4    9 1   
    10    5    6 1   
    11    5    7 1   
    12    5   24 1   
    13    6   25 1   
    14    7    8 1   
    15    7    9 1   
    16    7   26 1   
    17    9   10 1   
    18    9   27 1   
    19   10   11 1   
    20   10   17 1   
    21   11   12 2   
    22   11   13 1   
    23   13   14 1   
    24   13   28 1   
    25   14   15 2   
    26   14   16 1   
    27   16   17 2   
    28   16   18 1   
    29   17   29 1   
    30   18   19 3   
    31   19   30 1   
@<TRIPOS>SUBSTRUCTURE
     1 FDU         1 TEMP              0 ****  ****    0 ROOT
