@<TRIPOS>MOLECULE
FDU
   30    31     1     0     0
SMALL
bcc


@<TRIPOS>ATOM
      1 O01         0.0160   -0.8210    0.3390 oh        1 FDU     -0.592800
      2 C03         1.4220   -0.7290    0.2670 c3        1 FDU      0.118400
      3 C06         1.9850    0.0070    1.4810 c3        1 FDU      0.101100
      4 O08         1.6820   -0.7530    2.6660 os        1 FDU     -0.425600
      5 C09         3.5070    0.1920    1.4050 c3        1 FDU      0.094100
      6 O11         3.7650    1.5680    1.2140 oh        1 FDU     -0.585800
      7 C13         4.0350   -0.2700    2.7930 c3        1 FDU      0.120600
      8 F15         5.2450   -0.9170    2.7180 f         1 FDU     -0.210300
      9 C16         2.8610   -1.1240    3.3850 c3        1 FDU      0.292500
     10 N18         3.0420   -2.5710    3.3970 n         1 FDU     -0.379000
     11 C19         3.4450   -3.2860    2.2320 c         1 FDU      0.819500
     12 O20         3.7110   -2.6970    1.1630 o         1 FDU     -0.648500
     13 N21         3.5510   -4.6790    2.3080 ns        1 FDU     -0.584500
     14 C23         3.2370   -5.4270    3.4580 c         1 FDU      0.724700
     15 O24         3.3740   -6.6580    3.4160 o         1 FDU     -0.585500
     16 C25         2.7600   -4.6430    4.6180 cc        1 FDU     -0.100900
     17 C26         2.6730   -3.2800    4.5300 cd        1 FDU      0.064600
     18 C28         2.4050   -5.3270    5.7870 cg        1 FDU     -0.156300
     19 C29         2.1040   -5.9230    6.7810 c1        1 FDU     -0.106500
     20 H1         -0.1950   -1.2980    1.1520 ho        1 FDU      0.409000
     21 H2          1.8820   -1.7500    0.1810 h1        1 FDU      0.067700
     22 H3          1.6290   -0.1330   -0.6620 h1        1 FDU      0.067700
     23 H4          1.4610    0.9950    1.6170 h1        1 FDU      0.100700
     24 H5          3.9620   -0.4330    0.5890 h1        1 FDU      0.100700
     25 H6          4.6880    1.6430    0.9400 ho        1 FDU      0.416000
     26 H7          4.1560    0.6340    3.4590 h1        1 FDU      0.083700
     27 H8          2.6650   -0.8040    4.4540 h2        1 FDU      0.092700
     28 H9          3.8690   -5.1520    1.4880 hn        1 FDU      0.357500
     29 H10         2.3080   -2.6770    5.3860 h4        1 FDU      0.172000
     30 H11         1.8380   -6.4560    7.6590 ha        1 FDU      0.172500
@<TRIPOS>BOND
     1    1    2 1   
     2    1   20 1   
     3    2    3 1   
     4    2   21 1   
     5    2   22 1   
     6    3    4 1   
     7    3    5 1   
     8    3   23 1   
     9    4    9 1   
    10    5    6 1   
    11    5    7 1   
    12    5   24 1   
    13    6   25 1   
    14    7    8 1   
    15    7    9 1   
    16    7   26 1   
    17    9   10 1   
    18    9   27 1   
    19   10   11 1   
    20   10   17 1   
    21   11   12 2   
    22   11   13 1   
    23   13   14 1   
    24   13   28 1   
    25   14   15 2   
    26   14   16 1   
    27   16   17 2   
    28   16   18 1   
    29   17   29 1   
    30   18   19 3   
    31   19   30 1   
@<TRIPOS>SUBSTRUCTURE
     1 FDU         1 TEMP              0 ****  ****    0 ROOT
