@<TRIPOS>MOLECULE
FDU
   30    31     1     0     0
SMALL
bcc


@<TRIPOS>ATOM
      1 O01        -0.0030   -0.7160    0.3290 oh        1 FDU     -0.592800
      2 C03         1.4040   -0.6500    0.2510 c3        1 FDU      0.118400
      3 C06         1.9860    0.0740    1.4630 c3        1 FDU      0.101100
      4 O08         1.6730   -0.6800    2.6490 os        1 FDU     -0.425600
      5 C09         3.5110    0.2310    1.3800 c3        1 FDU      0.094100
      6 O11         3.7940    1.6010    1.1890 oh        1 FDU     -0.585800
      7 C13         4.0350   -0.2420    2.7670 c3        1 FDU      0.120600
      8 F15         5.2320   -0.9110    2.6860 f         1 FDU     -0.210300
      9 C16         2.8480   -1.0730    3.3630 c3        1 FDU      0.292500
     10 N18         3.0020   -2.5230    3.3740 n         1 FDU     -0.379000
     11 C19         3.3860   -3.2450    2.2080 c         1 FDU      0.819500
     12 O20         3.6590   -2.6610    1.1370 o         1 FDU     -0.648500
     13 N21         3.4660   -4.6410    2.2830 n         1 FDU     -0.584500
     14 C23         3.1420   -5.3830    3.4340 c         1 FDU      0.724700
     15 O24         3.2560   -6.6160    3.3910 o         1 FDU     -0.585500
     16 C25         2.6850   -4.5900    4.5960 cc        1 FDU     -0.100900
     17 C26         2.6240   -3.2250    4.5090 cd        1 FDU      0.064600
     18 C28         2.3220   -5.2670    5.7670 cg        1 FDU     -0.156300
     19 C29         2.0140   -5.8580    6.7620 c1        1 FDU     -0.106500
     20 H1         -0.2200   -1.1890    1.1430 ho        1 FDU      0.409000
     21 H2          1.8440   -1.6800    0.1630 h1        1 FDU      0.067700
     22 H3          1.6190   -0.0580   -0.6790 h1        1 FDU      0.067700
     23 H4          1.4810    1.0720    1.6010 h1        1 FDU      0.100700
     24 H5          3.9500   -0.4030    0.5630 h1        1 FDU      0.100700
     25 H6          4.7170    1.6600    0.9110 ho        1 FDU      0.416000
     26 H7          4.1760    0.6600    3.4320 h1        1 FDU      0.083700
     27 H8          2.6620   -0.7500    4.4330 h2        1 FDU      0.092700
     28 H9          3.7720   -5.1190    1.4610 hn        1 FDU      0.357500
     29 H10         2.2740   -2.6160    5.3660 h4        1 FDU      0.172000
     30 H11         1.7420   -6.3860    7.6400 ha        1 FDU      0.172500
@<TRIPOS>BOND
     1    1    2 1   
     2    1   20 1   
     3    2    3 1   
     4    2   21 1   
     5    2   22 1   
     6    3    4 1   
     7    3    5 1   
     8    3   23 1   
     9    4    9 1   
    10    5    6 1   
    11    5    7 1   
    12    5   24 1   
    13    6   25 1   
    14    7    8 1   
    15    7    9 1   
    16    7   26 1   
    17    9   10 1   
    18    9   27 1   
    19   10   11 1   
    20   10   17 1   
    21   11   12 2   
    22   11   13 1   
    23   13   14 1   
    24   13   28 1   
    25   14   15 2   
    26   14   16 1   
    27   16   17 2   
    28   16   18 1   
    29   17   29 1   
    30   18   19 3   
    31   19   30 1   
@<TRIPOS>SUBSTRUCTURE
     1 FDU         1 TEMP              0 ****  ****    0 ROOT
