@<TRIPOS>MOLECULE
FE1
   62    65     1     0     0
SMALL
bcc


@<TRIPOS>ATOM
      1 OAZ         0.8740    1.1370   -1.2920 o         1 FE1     -0.750100
      2 CAU         2.0000    0.7960   -0.8040 c         1 FE1      0.673700
      3 NAV         2.2780    0.8530    0.5170 n         1 FE1     -0.368800
      4 CAW         3.5140    0.3390    1.0930 c3        1 FE1      0.068500
      5 CAX         3.2970   -0.9190    1.9290 c3        1 FE1     -0.101900
      6 CBA         1.2280    1.0970    1.5040 c3        1 FE1      0.068500
      7 CBB         0.9270   -0.1350    2.3540 c3        1 FE1     -0.101900
      8 CBC         2.1900   -0.7360    2.9580 c3        1 FE1     -0.117700
      9 CBD         1.8430   -2.0940    3.5270 c         1 FE1      0.628100
     10 OBG         1.5120   -3.0940    2.8850 o         1 FE1     -0.544000
     11 OBE         1.9230   -2.1450    4.8780 os        1 FE1     -0.414900
     12 CBF         1.6060   -3.3980    5.5030 c3        1 FE1      0.121700
     13 CAT         3.0250    0.3820   -1.8200 ca        1 FE1     -0.101600
     14 CAS         3.1450   -0.9680   -2.1680 ca        1 FE1     -0.089500
     15 CAR         3.8240   -1.3270   -3.3300 ca        1 FE1     -0.101500
     16 CAJ         4.3840   -0.3180   -4.1390 ca        1 FE1     -0.043400
     17 CAK         4.3930    1.0200   -3.7090 ca        1 FE1     -0.101500
     18 CAL         3.7080    1.3630   -2.5450 ca        1 FE1     -0.089500
     19 N10         4.9350   -0.7040   -5.4490 n4        1 FE1     -0.550800
     20 CAB         5.9710    0.2330   -5.9660 c3        1 FE1      0.078100
     21 C9          3.8380   -0.9380   -6.4500 c3        1 FE1      0.055500
     22 C6          2.7990    0.1550   -6.5910 ca        1 FE1      0.335300
     23 N5          1.8700    0.3500   -5.6610 nb        1 FE1     -0.611000
     24 C4A         0.8910    1.2860   -5.9330 ca        1 FE1      0.152000
     25 C8A         0.8760    2.0340   -7.1790 ca        1 FE1      0.600000
     26 N8          1.8760    1.8180   -8.1320 nb        1 FE1     -0.517000
     27 C7          2.7890    0.9140   -7.8430 ca        1 FE1      0.374900
     28 C4         -0.1930    1.5720   -5.0070 ca        1 FE1      0.563900
     29 N4         -0.2570    0.8600   -3.7220 n4        1 FE1     -0.846300
     30 N3         -1.1520    2.4630   -5.2800 nb        1 FE1     -0.655000
     31 C2         -1.0620    3.1190   -6.5100 ca        1 FE1      0.762900
     32 N1         -0.1170    2.9610   -7.4550 nb        1 FE1     -0.542000
     33 N2         -2.1480    4.1020   -6.7990 n4        1 FE1     -0.818300
     34 HAW1        4.2590    0.1240    0.2780 h1        1 FE1      0.082200
     35 HAW2        3.9330    1.1580    1.7480 h1        1 FE1      0.082200
     36 HAX1        4.2610   -1.1570    2.4540 hc        1 FE1      0.081700
     37 HAX2        3.0480   -1.7900    1.2660 hc        1 FE1      0.081700
     38 HBA1        1.5900    1.9380    2.1640 h1        1 FE1      0.082200
     39 HBA2        0.2890    1.4320    0.9790 h1        1 FE1      0.082200
     40 HBB1        0.2300    0.1770    3.1780 hc        1 FE1      0.081700
     41 HBB2        0.4000   -0.9110    1.7390 hc        1 FE1      0.081700
     42 HBC         2.5580   -0.0710    3.7910 hc        1 FE1      0.105700
     43 HBF1        2.3100   -4.1860    5.1440 h1        1 FE1      0.067367
     44 HBF2        0.5520   -3.6810    5.2680 h1        1 FE1      0.067367
     45 HBF3        1.7450   -3.1830    6.5920 h1        1 FE1      0.067367
     46 HAS         2.6990   -1.7540   -1.5290 ha        1 FE1      0.192500
     47 HAR         3.9020   -2.3960   -3.5960 ha        1 FE1      0.173500
     48 HAK         4.9260    1.8120   -4.2630 ha        1 FE1      0.173500
     49 HAL         3.7050    2.4130   -2.2000 ha        1 FE1      0.192500
     50 HAB1        6.5010   -0.2510   -6.8340 hx        1 FE1      0.119033
     51 HAB2        6.7190    0.4450   -5.1510 hx        1 FE1      0.119033
     52 HAB3        5.4950    1.1900   -6.3030 hx        1 FE1      0.119033
     53 H91         4.3310   -1.0990   -7.4580 hx        1 FE1      0.141200
     54 H92         3.3120   -1.8990   -6.1550 hx        1 FE1      0.141200
     55 H7          3.5670    0.7440   -8.6220 h4        1 FE1      0.104100
     56 HN41       -0.3750   -0.1470   -3.8960 hn        1 FE1      0.510133
     57 HN42        0.6290    1.0130   -3.1640 hn        1 FE1      0.510133
     58 HN21       -3.0590    3.6130   -6.8190 hn        1 FE1      0.510800
     59 HN22       -2.1660    4.8260   -6.0620 hn        1 FE1      0.510800
     60 H101        5.4030   -1.6220   -5.3160 hn        1 FE1      0.483800
     61 H43        -1.0350    1.1920   -3.1220 hn        1 FE1      0.510133
     62 H23        -1.9860    4.5560   -7.7180 hn        1 FE1      0.510800
@<TRIPOS>BOND
     1    1    2 2   
     2    2    3 1   
     3    2   13 1   
     4    3    4 1   
     5    3    6 1   
     6    4    5 1   
     7    4   34 1   
     8    4   35 1   
     9    5    8 1   
    10    5   36 1   
    11    5   37 1   
    12    6    7 1   
    13    6   38 1   
    14    6   39 1   
    15    7    8 1   
    16    7   40 1   
    17    7   41 1   
    18    8    9 1   
    19    8   42 1   
    20    9   10 2   
    21    9   11 1   
    22   11   12 1   
    23   12   43 1   
    24   12   44 1   
    25   12   45 1   
    26   13   14 ar  
    27   13   18 ar  
    28   14   15 ar  
    29   14   46 1   
    30   15   16 ar  
    31   15   47 1   
    32   16   17 ar  
    33   16   19 1   
    34   17   18 ar  
    35   17   48 1   
    36   18   49 1   
    37   19   20 1   
    38   19   21 1   
    39   19   60 1   
    40   20   50 1   
    41   20   51 1   
    42   20   52 1   
    43   21   22 1   
    44   21   53 1   
    45   21   54 1   
    46   22   23 ar  
    47   22   27 ar  
    48   23   24 ar  
    49   24   25 ar  
    50   24   28 ar  
    51   25   26 ar  
    52   25   32 ar  
    53   26   27 ar  
    54   27   55 1   
    55   28   29 1   
    56   28   30 ar  
    57   29   56 1   
    58   29   57 1   
    59   29   61 1   
    60   30   31 ar  
    61   31   32 ar  
    62   31   33 1   
    63   33   58 1   
    64   33   59 1   
    65   33   62 1   
@<TRIPOS>SUBSTRUCTURE
     1 FE1         1 TEMP              0 ****  ****    0 ROOT
