@<TRIPOS>MOLECULE
FE1
   59    62     1     0     0
SMALL
bcc


@<TRIPOS>ATOM
      1 OAZ         0.0510    0.1340   -0.2780 o         1 FE1     -0.598100
      2 CAU         1.2940    0.1630   -0.1730 c         1 FE1      0.672700
      3 NAV         1.8920    0.3560    1.0750 n         1 FE1     -0.454800
      4 CAW         3.2810    0.0320    1.3120 c3        1 FE1      0.081000
      5 CAX         3.4980   -1.2350    2.1440 c3        1 FE1     -0.101900
      6 CBA         1.0670    0.3490    2.2660 c3        1 FE1      0.081000
      7 CBB         1.2170   -0.9070    3.1260 c3        1 FE1     -0.101900
      8 CBC         2.6840   -1.1760    3.4290 c3        1 FE1     -0.107700
      9 CBD         2.8140   -2.4810    4.1680 c         1 FE1      0.630100
     10 OBG         2.6010   -3.6250    3.7660 o         1 FE1     -0.536000
     11 OBE         3.2280   -2.3180    5.4630 os        1 FE1     -0.440900
     12 CBF         3.3700   -3.5020    6.2470 c3        1 FE1      0.124700
     13 CAT         2.1570    0.0830   -1.3840 ca        1 FE1     -0.176600
     14 CAS         2.0670   -1.0390   -2.2140 ca        1 FE1     -0.073500
     15 CAR         2.8070   -1.1100   -3.3870 ca        1 FE1     -0.175000
     16 CAJ         3.6480   -0.0400   -3.7800 ca        1 FE1      0.176600
     17 CAK         3.7220    1.0890   -2.9300 ca        1 FE1     -0.175000
     18 CAL         2.9930    1.1400   -1.7470 ca        1 FE1     -0.073500
     19 N10         4.4440   -0.1520   -4.9460 nh        1 FE1     -0.636000
     20 CAB         5.4200    0.8880   -5.1680 c3        1 FE1      0.170100
     21 C9          3.7930   -0.6280   -6.1490 c3        1 FE1      0.157500
     22 C6          2.8010    0.3070   -6.8100 ca        1 FE1      0.201300
     23 N5          1.8290    0.8750   -6.1030 nb        1 FE1     -0.583000
     24 C4A         0.9520    1.6800   -6.7760 ca        1 FE1      0.029000
     25 C8A         1.0560    1.9220   -8.2040 ca        1 FE1      0.630000
     26 N8          2.0960    1.3100   -8.9200 nb        1 FE1     -0.628000
     27 C7          2.9170    0.5420   -8.2340 ca        1 FE1      0.345900
     28 C4         -0.1590    2.3520   -6.0780 ca        1 FE1      0.716900
     29 N4         -0.3120    2.2010   -4.7280 nh        1 FE1     -0.944500
     30 N3         -1.0280    3.1400   -6.7540 nb        1 FE1     -0.850000
     31 C2         -0.8340    3.2830   -8.1300 ca        1 FE1      0.944900
     32 N1          0.1790    2.7270   -8.8790 nb        1 FE1     -0.778000
     33 N2         -1.7840    4.0340   -8.8080 nh        1 FE1     -0.943500
     34 HAW1        3.8270   -0.0830    0.3340 h1        1 FE1      0.064200
     35 HAW2        3.7360    0.9050    1.8650 h1        1 FE1      0.064200
     36 HAX1        3.2030   -2.1440    1.5580 hc        1 FE1      0.065700
     37 HAX2        4.5880   -1.3190    2.3850 hc        1 FE1      0.065700
     38 HBA1        1.3660    1.2470    2.8810 h1        1 FE1      0.064200
     39 HBA2       -0.0160    0.4630    1.9740 h1        1 FE1      0.064200
     40 HBB1        0.7740   -1.7930    2.5990 hc        1 FE1      0.065700
     41 HBB2        0.6510   -0.7550    4.0800 hc        1 FE1      0.065700
     42 HBC         3.0830   -0.3490    4.0830 hc        1 FE1      0.082700
     43 HBF1        3.7070   -3.1220    7.2430 h1        1 FE1      0.051367
     44 HBF2        4.1340   -4.1740    5.7860 h1        1 FE1      0.051367
     45 HBF3        2.3900   -4.0320    6.3200 h1        1 FE1      0.051367
     46 HAS         1.3990   -1.8700   -1.9370 ha        1 FE1      0.143500
     47 HAR         2.7230   -2.0150   -4.0070 ha        1 FE1      0.140000
     48 HAK         4.3480    1.9540   -3.1940 ha        1 FE1      0.140000
     49 HAL         3.0650    2.0300   -1.1020 ha        1 FE1      0.143500
     50 HAB1        6.0540    0.9970   -4.2480 h1        1 FE1      0.041700
     51 HAB2        6.0830    0.5820   -6.0210 h1        1 FE1      0.041700
     52 HAB3        4.9580    1.8830   -5.4140 h1        1 FE1      0.041700
     53 H91         3.2560   -1.5910   -5.9130 h1        1 FE1      0.068200
     54 H92         4.6040   -0.8610   -6.8980 h1        1 FE1      0.068200
     55 H7          3.7320    0.0610   -8.8060 h4        1 FE1      0.031100
     56 HN41        0.2780    1.5810   -4.2290 hn        1 FE1      0.456800
     57 HN42       -1.0860    2.6090   -4.2600 hn        1 FE1      0.456800
     58 HN21       -2.4200    4.5820   -8.2830 hn        1 FE1      0.443800
     59 HN22       -1.6020    4.2870   -9.7490 hn        1 FE1      0.443800
@<TRIPOS>BOND
     1    1    2 2   
     2    2    3 1   
     3    2   13 1   
     4    3    4 1   
     5    3    6 1   
     6    4    5 1   
     7    4   34 1   
     8    4   35 1   
     9    5    8 1   
    10    5   36 1   
    11    5   37 1   
    12    6    7 1   
    13    6   38 1   
    14    6   39 1   
    15    7    8 1   
    16    7   40 1   
    17    7   41 1   
    18    8    9 1   
    19    8   42 1   
    20    9   10 2   
    21    9   11 1   
    22   11   12 1   
    23   12   43 1   
    24   12   44 1   
    25   12   45 1   
    26   13   14 ar  
    27   13   18 ar  
    28   14   15 ar  
    29   14   46 1   
    30   15   16 ar  
    31   15   47 1   
    32   16   17 ar  
    33   16   19 1   
    34   17   18 ar  
    35   17   48 1   
    36   18   49 1   
    37   19   20 1   
    38   19   21 1   
    39   20   50 1   
    40   20   51 1   
    41   20   52 1   
    42   21   22 1   
    43   21   53 1   
    44   21   54 1   
    45   22   23 ar  
    46   22   27 ar  
    47   23   24 ar  
    48   24   25 ar  
    49   24   28 ar  
    50   25   26 ar  
    51   25   32 ar  
    52   26   27 ar  
    53   27   55 1   
    54   28   29 1   
    55   28   30 ar  
    56   29   56 1   
    57   29   57 1   
    58   30   31 ar  
    59   31   32 ar  
    60   31   33 1   
    61   33   58 1   
    62   33   59 1   
@<TRIPOS>SUBSTRUCTURE
     1 FE1         1 TEMP              0 ****  ****    0 ROOT
