@<TRIPOS>MOLECULE
FE1
   59    55     1     0     0
SMALL
bcc


@<TRIPOS>ATOM
      1 OAZ        -0.9820   -1.5250    4.0860 o         1 FE1     -0.351000
      2 CAU        -1.3760   -0.8200    3.1440 c1        1 FE1      0.344000
      3 NAV        -2.5510   -0.0000    3.3040 n2        1 FE1     -0.313000
      4 CAW        -3.3140    0.0410    4.5450 c3        1 FE1     -0.036500
      5 CAX        -4.7950   -0.2040    4.3330 c3        1 FE1     -0.181000
      6 CBA        -3.0520    0.8270    2.2740 c3        1 FE1     -0.036500
      7 CBB        -4.5300    0.6020    2.0050 c3        1 FE1     -0.181000
      8 CBC        -5.3920    0.7000    3.2810 c3        1 FE1     -0.097000
      9 CBD        -6.9200    0.3900    3.0090 c2        1 FE1      0.301000
     10 OBG        -7.2350   -0.4520    2.1820 o         1 FE1     -0.347000
     11 OBE        -7.9330    1.0790    3.7560 os        1 FE1     -0.279000
     12 CBF        -9.2460    0.9550    3.2130 c3        1 FE1     -0.065000
     13 CAT        -0.5790   -0.7870    1.8110 c2        1 FE1     -0.146000
     14 CAS         0.1050    0.3670    1.4390 c2        1 FE1     -0.079000
     15 CAR         0.7920    0.4110    0.2230 c1        1 FE1     -0.165000
     16 CAJ         0.7930   -0.6900   -0.6080 c1        1 FE1      0.081000
     17 CAK         0.1100   -1.8430   -0.2360 c1        1 FE1     -0.193000
     18 CAL        -0.5780   -1.8860    0.9820 c1        1 FE1     -0.058000
     19 N10         1.4300   -0.6210   -1.8660 n3        1 FE1     -0.246000
     20 CAB         0.8010    0.0350   -2.9320 c3        1 FE1     -0.097000
     21 C9          2.6750   -1.2400   -2.0570 c3        1 FE1      0.012000
     22 C6          3.3910   -0.5970   -3.2710 c2        1 FE1     -0.121000
     23 N5          4.5840   -0.6040   -2.6770 n2        1 FE1     -0.046000
     24 C4A         5.6810   -0.0850   -3.3280 c1        1 FE1     -0.237000
     25 C8A         5.5450    0.4380   -4.5880 c1        1 FE1      0.103000
     26 N8          4.3210    0.4440   -5.1970 n1        1 FE1     -0.175500
     27 C7          3.2520   -0.0620   -4.5600 c1        1 FE1     -0.057000
     28 C4          6.9420   -0.1720   -2.7460 c1        1 FE1      0.262000
     29 N4          7.3940   -0.7020   -1.4980 n2        1 FE1     -0.350000
     30 N3          8.0230    0.2570   -3.4170 n2        1 FE1     -0.323000
     31 C2          7.8890    0.7820   -4.6800 c1        1 FE1      0.225000
     32 N1          6.6440    0.8700   -5.2620 n1        1 FE1     -0.175500
     33 N2          9.0590    1.4370   -5.2300 n3        1 FE1     -0.339000
     34 HAW1       -2.9770   -0.6180    5.1290 h1        1 FE1      0.103250
     35 HAW2       -3.1970    0.9070    4.9540 h1        1 FE1      0.103250
     36 HAX1       -5.2800   -0.0480    5.2080 hc        1 FE1      0.104500
     37 HAX2       -4.9280   -1.1510    4.0570 hc        1 FE1      0.104500
     38 HBA1       -2.5480    0.6450    1.4460 h1        1 FE1      0.103250
     39 HBA2       -2.9170    1.7500    2.5240 h1        1 FE1      0.103250
     40 HBB1       -4.6470   -0.2790    1.6150 hc        1 FE1      0.104500
     41 HBB2       -4.8430    1.2810    1.3600 hc        1 FE1      0.104500
     42 HBC        -5.4400    1.6280    3.6010 hc        1 FE1      0.122000
     43 HBF1       -9.2850    1.4010    2.3600 h1        1 FE1      0.090333
     44 HBF2       -9.4700   -0.0160    3.0930 h1        1 FE1      0.090333
     45 HBF3       -9.8790    1.3590    3.8140 h1        1 FE1      0.090333
     46 HAS         0.1030    1.1570    2.0350 ha        1 FE1      0.142000
     47 HAR         1.2660    1.2110   -0.0350 ha        1 FE1      0.143000
     48 HAK         0.1100   -2.6140   -0.8180 ha        1 FE1      0.137000
     49 HAL        -1.0620   -2.7030    1.2470 ha        1 FE1      0.149000
     50 HAB1        0.0540    0.5470   -2.5980 h1        1 FE1      0.079667
     51 HAB2        1.4580    0.6510   -3.3810 h1        1 FE1      0.079667
     52 HAB3        0.4820   -0.6210   -3.5730 h1        1 FE1      0.079667
     53 H91         3.2300   -1.1210   -1.2480 h1        1 FE1      0.093000
     54 H92         2.5410   -2.2060   -2.2260 h1        1 FE1      0.093000
     55 H7          2.3260    0.0000   -4.9880 ha        1 FE1      0.170000
     56 HN41        8.3080   -0.6930   -1.2880 hn        1 FE1      0.250000
     57 HN42        6.7870   -1.0990   -0.9150 hn        1 FE1      0.250000
     58 HN21        9.0190    1.8300   -6.0630 hn        1 FE1      0.238500
     59 HN22        9.8410    1.4580   -4.7490 hn        1 FE1      0.238500
@<TRIPOS>BOND
     1    1    2 1   
     2    2   13 1   
     3    3    4 1   
     4    3    6 1   
     5    4    5 1   
     6    4   34 1   
     7    4   35 1   
     8    5    8 1   
     9    5   36 1   
    10    5   37 1   
    11    6    7 1   
    12    6   38 1   
    13    6   39 1   
    14    7    8 1   
    15    7   40 1   
    16    7   41 1   
    17    8    9 1   
    18    8   42 1   
    19    9   10 1   
    20    9   11 1   
    21   11   12 1   
    22   12   43 1   
    23   12   44 1   
    24   12   45 1   
    25   13   14 1   
    26   13   18 1   
    27   14   15 1   
    28   14   46 1   
    29   15   47 1   
    30   16   17 1   
    31   16   19 1   
    32   17   48 1   
    33   18   49 1   
    34   19   20 1   
    35   19   21 1   
    36   20   50 1   
    37   20   51 1   
    38   20   52 1   
    39   21   22 1   
    40   21   53 1   
    41   21   54 1   
    42   22   23 1   
    43   22   27 1   
    44   23   24 1   
    45   24   28 1   
    46   25   26 1   
    47   25   32 1   
    48   27   55 1   
    49   28   30 1   
    50   29   56 1   
    51   29   57 1   
    52   30   31 1   
    53   31   33 1   
    54   33   58 1   
    55   33   59 1   
@<TRIPOS>SUBSTRUCTURE
     1 FE1         1 TEMP              0 ****  ****    0 ROOT
