@<TRIPOS>MOLECULE
FE1
   59    62     1     0     0
SMALL
bcc


@<TRIPOS>ATOM
      1 OAZ         0.0510    0.1450   -0.2810 o         1 FE1     -0.598100
      2 CAU         1.2940    0.1650   -0.1750 c         1 FE1      0.672700
      3 NAV         1.8940    0.3520    1.0730 n         1 FE1     -0.454800
      4 CAW         3.2800    0.0170    1.3110 c3        1 FE1      0.081000
      5 CAX         3.4870   -1.2520    2.1420 c3        1 FE1     -0.101900
      6 CBA         1.0680    0.3480    2.2640 c3        1 FE1      0.081000
      7 CBB         1.2080   -0.9100    3.1220 c3        1 FE1     -0.101900
      8 CBC         2.6740   -1.1890    3.4260 c3        1 FE1     -0.107700
      9 CBD         2.7940   -2.4950    4.1640 c         1 FE1      0.630100
     10 OBG         2.5760   -3.6380    3.7590 o         1 FE1     -0.536000
     11 OBE         3.2060   -2.3360    5.4590 os        1 FE1     -0.440900
     12 CBF         3.3410   -3.5230    6.2430 c3        1 FE1      0.124700
     13 CAT         2.1580    0.0820   -1.3860 ca        1 FE1     -0.176600
     14 CAS         2.0610   -1.0380   -2.2190 ca        1 FE1     -0.073500
     15 CAR         2.7990   -1.1110   -3.3920 ca        1 FE1     -0.175000
     16 CAJ         3.6490   -0.0460   -3.7820 ca        1 FE1      0.176600
     17 CAK         3.7310    1.0800   -2.9290 ca        1 FE1     -0.175000
     18 CAL         3.0020    1.1330   -1.7460 ca        1 FE1     -0.073500
     19 N10         4.4440   -0.1620   -4.9480 nh        1 FE1     -0.636000
     20 CAB         5.4270    0.8730   -5.1680 c3        1 FE1      0.170100
     21 C9          3.7890   -0.6290   -6.1520 c3        1 FE1      0.157500
     22 C6          2.8040    0.3130   -6.8100 ca        1 FE1      0.201300
     23 N5          1.8340    0.8840   -6.1010 nb        1 FE1     -0.583000
     24 C4A         0.9620    1.6970   -6.7720 ca        1 FE1      0.029000
     25 C8A         1.0680    1.9430   -8.1990 ca        1 FE1      0.630000
     26 N8          2.1050    1.3270   -8.9170 nb        1 FE1     -0.628000
     27 C7          2.9210    0.5520   -8.2330 ca        1 FE1      0.345900
     28 C4         -0.1450    2.3730   -6.0720 ca        1 FE1      0.716900
     29 N4         -0.2990    2.2190   -4.7220 nv        1 FE1     -0.944500
     30 N3         -1.0090    3.1690   -6.7450 nb        1 FE1     -0.850000
     31 C2         -0.8140    3.3150   -8.1200 ca        1 FE1      0.944900
     32 N1          0.1960    2.7550   -8.8710 nb        1 FE1     -0.778000
     33 N2         -1.7600    4.0740   -8.7960 nv        1 FE1     -0.943500
     34 HAW1        3.7410    0.8870    1.8650 h1        1 FE1      0.064200
     35 HAW2        3.8260   -0.1000    0.3330 h1        1 FE1      0.064200
     36 HAX1        4.5770   -1.3430    2.3820 hc        1 FE1      0.065700
     37 HAX2        3.1870   -2.1590    1.5540 hc        1 FE1      0.065700
     38 HBA1        1.3720    1.2430    2.8800 h1        1 FE1      0.064200
     39 HBA2       -0.0140    0.4700    1.9710 h1        1 FE1      0.064200
     40 HBB1        0.6430   -0.7550    4.0770 hc        1 FE1      0.065700
     41 HBB2        0.7600   -1.7920    2.5940 hc        1 FE1      0.065700
     42 HBC         3.0780   -0.3660    4.0820 hc        1 FE1      0.082700
     43 HBF1        4.1010   -4.1990    5.7820 h1        1 FE1      0.051367
     44 HBF2        2.3570   -4.0460    6.3130 h1        1 FE1      0.051367
     45 HBF3        3.6770   -3.1460    7.2390 h1        1 FE1      0.051367
     46 HAS         1.3860   -1.8640   -1.9440 ha        1 FE1      0.143500
     47 HAR         2.7100   -2.0140   -4.0140 ha        1 FE1      0.140000
     48 HAK         4.3640    1.9420   -3.1900 ha        1 FE1      0.140000
     49 HAL         3.0810    2.0210   -1.0990 ha        1 FE1      0.143500
     50 HAB1        6.0620    0.9750   -4.2480 h1        1 FE1      0.041700
     51 HAB2        6.0880    0.5640   -6.0210 h1        1 FE1      0.041700
     52 HAB3        4.9720    1.8710   -5.4120 h1        1 FE1      0.041700
     53 H91         4.5990   -0.8660   -6.9020 h1        1 FE1      0.068200
     54 H92         3.2470   -1.5910   -5.9190 h1        1 FE1      0.068200
     55 H7          3.7330    0.0680   -8.8070 h4        1 FE1      0.031100
     56 HN41        0.2870    1.5930   -4.2250 hn        1 FE1      0.456800
     57 HN42       -1.0700    2.6290   -4.2530 hn        1 FE1      0.456800
     58 HN21       -2.3920    4.6250   -8.2700 hn        1 FE1      0.443800
     59 HN22       -1.5750    4.3300   -9.7360 hn        1 FE1      0.443800
@<TRIPOS>BOND
     1    1    2 2   
     2    2    3 1   
     3    2   13 1   
     4    3    4 1   
     5    3    6 1   
     6    4    5 1   
     7    4   34 1   
     8    4   35 1   
     9    5    8 1   
    10    5   36 1   
    11    5   37 1   
    12    6    7 1   
    13    6   38 1   
    14    6   39 1   
    15    7    8 1   
    16    7   40 1   
    17    7   41 1   
    18    8    9 1   
    19    8   42 1   
    20    9   10 2   
    21    9   11 1   
    22   11   12 1   
    23   12   43 1   
    24   12   44 1   
    25   12   45 1   
    26   13   14 ar  
    27   13   18 ar  
    28   14   15 ar  
    29   14   46 1   
    30   15   16 ar  
    31   15   47 1   
    32   16   17 ar  
    33   16   19 1   
    34   17   18 ar  
    35   17   48 1   
    36   18   49 1   
    37   19   20 1   
    38   19   21 1   
    39   20   50 1   
    40   20   51 1   
    41   20   52 1   
    42   21   22 1   
    43   21   53 1   
    44   21   54 1   
    45   22   23 ar  
    46   22   27 ar  
    47   23   24 ar  
    48   24   25 ar  
    49   24   28 ar  
    50   25   26 ar  
    51   25   32 ar  
    52   26   27 ar  
    53   27   55 1   
    54   28   29 1   
    55   28   30 ar  
    56   29   56 1   
    57   29   57 1   
    58   30   31 ar  
    59   31   32 ar  
    60   31   33 1   
    61   33   58 1   
    62   33   59 1   
@<TRIPOS>SUBSTRUCTURE
     1 FE1         1 TEMP              0 ****  ****    0 ROOT
