@<TRIPOS>MOLECULE
FE1
   59    62     1     0     0
SMALL
bcc


@<TRIPOS>ATOM
      1 OAZ        -1.8290   -2.3510    0.3420 o         1 FE1     -0.598100
      2 CAU        -2.1380   -1.2520   -0.1620 c         1 FE1      0.672700
      3 NAV        -3.3430   -1.1070   -0.8550 n         1 FE1     -0.454800
      4 CAW        -3.9130    0.1930   -1.1260 c3        1 FE1      0.081000
      5 CAX        -5.1330    0.5370   -0.2670 c3        1 FE1     -0.101900
      6 CBA        -4.3070   -2.1880   -0.8360 c3        1 FE1      0.081000
      7 CBB        -5.5370   -1.9170    0.0320 c3        1 FE1     -0.101900
      8 CBC        -6.1660   -0.5790   -0.3340 c3        1 FE1     -0.107700
      9 CBD        -7.2960   -0.2790    0.6140 c         1 FE1      0.630100
     10 OBG        -7.2510   -0.0210    1.8180 o         1 FE1     -0.536000
     11 OBE        -8.5210   -0.3090    0.0040 os        1 FE1     -0.440900
     12 CBF        -9.6570   -0.0450    0.8290 c3        1 FE1      0.124700
     13 CAT        -1.1900   -0.1040   -0.1120 ca        1 FE1     -0.176600
     14 CAS        -0.7630    0.3760    1.1300 ca        1 FE1     -0.073500
     15 CAR         0.1750    1.3960    1.2080 ca        1 FE1     -0.175000
     16 CAJ         0.7370    1.9560    0.0340 ca        1 FE1      0.176600
     17 CAK         0.2950    1.4540   -1.2140 ca        1 FE1     -0.175000
     18 CAL        -0.6600    0.4470   -1.2800 ca        1 FE1     -0.073500
     19 N10         1.6450    3.0380    0.1270 nh        1 FE1     -0.636000
     20 CAB         2.0170    3.6820   -1.1110 c3        1 FE1      0.170100
     21 C9          2.7260    2.9160    1.0840 c3        1 FE1      0.157500
     22 C6          3.8130    1.9100    0.7690 ca        1 FE1      0.201300
     23 N5          3.5060    0.6560    0.4480 nb        1 FE1     -0.583000
     24 C4A         4.5440   -0.2020    0.2100 ca        1 FE1      0.029000
     25 C8A         5.9330    0.2120    0.2970 ca        1 FE1      0.630000
     26 N8          6.2220    1.5430    0.6360 nb        1 FE1     -0.628000
     27 C7          5.1940    2.3350    0.8580 ca        1 FE1      0.345900
     28 C4          4.3020   -1.6110   -0.1510 ca        1 FE1      0.716900
     29 N4          3.0230   -2.0760   -0.2840 nh        1 FE1     -0.944500
     30 N3          5.3350   -2.4570   -0.3770 nb        1 FE1     -0.850000
     31 C2          6.6280   -1.9450   -0.2460 ca        1 FE1      0.944900
     32 N1          6.9720   -0.6470    0.0600 nb        1 FE1     -0.778000
     33 N2          7.6660   -2.8530   -0.4070 nh        1 FE1     -0.943500
     34 HAW1       -4.2280    0.1980   -2.2110 h1        1 FE1      0.064200
     35 HAW2       -3.1370    0.9970   -0.9860 h1        1 FE1      0.064200
     36 HAX1       -5.5770    1.4920   -0.6470 hc        1 FE1      0.065700
     37 HAX2       -4.8280    0.6990    0.8000 hc        1 FE1      0.065700
     38 HBA1       -4.6430   -2.3510   -1.9000 h1        1 FE1      0.064200
     39 HBA2       -3.8070   -3.1310   -0.4730 h1        1 FE1      0.064200
     40 HBB1       -5.2530   -1.9140    1.1170 hc        1 FE1      0.065700
     41 HBB2       -6.2760   -2.7430   -0.1290 hc        1 FE1      0.065700
     42 HBC        -6.5790   -0.6410   -1.3810 hc        1 FE1      0.082700
     43 HBF1       -9.7200   -0.8040    1.6450 h1        1 FE1      0.051367
     44 HBF2       -9.5800    0.9800    1.2650 h1        1 FE1      0.051367
     45 HBF3      -10.5200   -0.1270    0.1240 h1        1 FE1      0.051367
     46 HAS        -1.1710   -0.0660    2.0540 ha        1 FE1      0.143500
     47 HAR         0.4750    1.7590    2.2020 ha        1 FE1      0.140000
     48 HAK         0.7090    1.8430   -2.1570 ha        1 FE1      0.140000
     49 HAL        -0.9870    0.0710   -2.2620 ha        1 FE1      0.143500
     50 HAB1        1.0850    3.9760   -1.6640 h1        1 FE1      0.041700
     51 HAB2        2.5960    4.6130   -0.8720 h1        1 FE1      0.041700
     52 HAB3        2.6470    3.0310   -1.7760 h1        1 FE1      0.041700
     53 H91         3.2070    3.9320    1.1760 h1        1 FE1      0.068200
     54 H92         2.2890    2.6510    2.0900 h1        1 FE1      0.068200
     55 H7          5.4310    3.3820    1.1270 h4        1 FE1      0.031100
     56 HN41        2.8530   -3.0330   -0.4780 hn        1 FE1      0.456800
     57 HN42        2.2570   -1.4870   -0.0660 hn        1 FE1      0.456800
     58 HN21        8.5910   -2.5040   -0.4760 hn        1 FE1      0.443800
     59 HN22        7.4640   -3.7430   -0.7920 hn        1 FE1      0.443800
@<TRIPOS>BOND
     1    1    2 2   
     2    2    3 1   
     3    2   13 1   
     4    3    4 1   
     5    3    6 1   
     6    4    5 1   
     7    4   34 1   
     8    4   35 1   
     9    5    8 1   
    10    5   36 1   
    11    5   37 1   
    12    6    7 1   
    13    6   38 1   
    14    6   39 1   
    15    7    8 1   
    16    7   40 1   
    17    7   41 1   
    18    8    9 1   
    19    8   42 1   
    20    9   10 2   
    21    9   11 1   
    22   11   12 1   
    23   12   43 1   
    24   12   44 1   
    25   12   45 1   
    26   13   14 ar  
    27   13   18 ar  
    28   14   15 ar  
    29   14   46 1   
    30   15   16 ar  
    31   15   47 1   
    32   16   17 ar  
    33   16   19 1   
    34   17   18 ar  
    35   17   48 1   
    36   18   49 1   
    37   19   20 1   
    38   19   21 1   
    39   20   50 1   
    40   20   51 1   
    41   20   52 1   
    42   21   22 1   
    43   21   53 1   
    44   21   54 1   
    45   22   23 ar  
    46   22   27 ar  
    47   23   24 ar  
    48   24   25 ar  
    49   24   28 ar  
    50   25   26 ar  
    51   25   32 ar  
    52   26   27 ar  
    53   27   55 1   
    54   28   29 1   
    55   28   30 ar  
    56   29   56 1   
    57   29   57 1   
    58   30   31 ar  
    59   31   32 ar  
    60   31   33 1   
    61   33   58 1   
    62   33   59 1   
@<TRIPOS>SUBSTRUCTURE
     1 FE1         1 TEMP              0 ****  ****    0 ROOT
