@<TRIPOS>MOLECULE
FE3
   23    23     1     0     0
SMALL
bcc


@<TRIPOS>ATOM
      1 N           1.6050    0.6790   -0.3920 n4        1 FE3     -0.858600
      2 CA          1.0620   -0.5120    0.3210 c3        1 FE3      0.109800
      3 CB          1.7380   -0.7260    1.6810 c3        1 FE3     -0.043100
      4 CG          3.1830   -0.3870    1.6270 ca        1 FE3     -0.193300
      5 CD1         3.6390    0.9390    1.7480 ca        1 FE3     -0.045600
      6 CLD1        2.5120    2.2190    2.0250 cl        1 FE3     -0.148400
      7 CD2         4.1300   -1.3980    1.4270 ca        1 FE3     -0.125000
      8 CE1         4.9880    1.2560    1.6320 ca        1 FE3     -0.084000
      9 CE2         5.4840   -1.0870    1.3000 ca        1 FE3     -0.096000
     10 CZ          5.9150    0.2380    1.3720 ca        1 FE3     -0.099600
     11 CF          7.3880    0.6000    1.1210 c         1 FE3      0.912200
     12 OF1         8.1840   -0.3590    0.9690 o         1 FE3     -0.789300
     13 OF2         7.6570    1.8270    1.0620 o         1 FE3     -0.789300
     14 HN          1.6330    1.4910    0.2710 hn        1 FE3      0.463133
     15 H1A        -0.0450   -0.3600    0.4620 hx        1 FE3      0.092700
     16 H2A         1.2290   -1.4100   -0.3390 hx        1 FE3      0.092700
     17 H1B         1.5970   -1.8060    1.9560 hc        1 FE3      0.085700
     18 H2B         1.2160   -0.1120    2.4620 hc        1 FE3      0.085700
     19 HD2         3.8000   -2.4460    1.3690 ha        1 FE3      0.127000
     20 HE1         5.3660    2.2910    1.7240 ha        1 FE3      0.193000
     21 HE2         6.2430   -1.8730    1.1340 ha        1 FE3      0.183000
     22 HNA         1.0460    0.9020   -1.2120 hn        1 FE3      0.463133
     23 HN3         2.5770    0.4910   -0.6700 hn        1 FE3      0.463133
@<TRIPOS>BOND
     1    1    2 1   
     2    1   14 1   
     3    1   22 1   
     4    1   23 1   
     5    2    3 1   
     6    2   15 1   
     7    2   16 1   
     8    3    4 1   
     9    3   17 1   
    10    3   18 1   
    11    4    5 ar  
    12    4    7 ar  
    13    5    6 1   
    14    5    8 ar  
    15    7    9 ar  
    16    7   19 1   
    17    8   10 ar  
    18    8   20 1   
    19    9   10 ar  
    20    9   21 1   
    21   10   11 1   
    22   11   12 1   
    23   11   13 1   
@<TRIPOS>SUBSTRUCTURE
     1 FE3         1 TEMP              0 ****  ****    0 ROOT
