@<TRIPOS>MOLECULE
FE3
   22    22     1     0     0
SMALL
bcc


@<TRIPOS>ATOM
      1 N          -4.5790    1.0560    0.5700 n3        1 FE3     -0.914800
      2 CA         -3.1450    0.9180    0.7070 c3        1 FE3      0.149800
      3 CB         -2.4120    0.7890   -0.6320 c3        1 FE3     -0.026100
      4 CG         -0.9570    0.5700   -0.4120 ca        1 FE3     -0.110300
      5 CD1        -0.4150   -0.7000   -0.1640 ca        1 FE3      0.005400
      6 CLD1       -1.4310   -2.0830   -0.0900 cl        1 FE3     -0.161400
      7 CD2        -0.0800    1.6620   -0.4610 ca        1 FE3     -0.148000
      8 CE1         0.9570   -0.8780    0.0280 ca        1 FE3     -0.101000
      9 CE2         1.2870    1.4910   -0.2690 ca        1 FE3     -0.106000
     10 CZ          1.8170    0.2210   -0.0230 ca        1 FE3     -0.116600
     11 CF          3.3150    0.0370    0.1880 c         1 FE3      0.909200
     12 OF1         3.7400   -1.1310    0.4110 o         1 FE3     -0.825300
     13 OF2         4.0460    1.0650    0.1290 o         1 FE3     -0.825300
     14 HN         -4.9380    0.3800   -0.0760 hn        1 FE3      0.336800
     15 H1A        -2.7700    1.8410    1.2350 h1        1 FE3      0.035200
     16 H2A        -2.8590    0.0300    1.3450 h1        1 FE3      0.035200
     17 H1B        -2.8420   -0.0630   -1.2240 hc        1 FE3      0.044700
     18 H2B        -2.5690    1.7240   -1.2340 hc        1 FE3      0.044700
     19 HD2        -0.4870    2.6650   -0.6550 ha        1 FE3      0.113000
     20 HE1         1.3900   -1.8740    0.2220 ha        1 FE3      0.168000
     21 HE2         1.9820    2.3460   -0.3060 ha        1 FE3      0.156000
     22 HNA        -5.0180    0.9110    1.4580 hn        1 FE3      0.336800
@<TRIPOS>BOND
     1    1    2 1   
     2    1   14 1   
     3    1   22 1   
     4    2    3 1   
     5    2   15 1   
     6    2   16 1   
     7    3    4 1   
     8    3   17 1   
     9    3   18 1   
    10    4    5 ar  
    11    4    7 ar  
    12    5    6 1   
    13    5    8 ar  
    14    7    9 ar  
    15    7   19 1   
    16    8   10 ar  
    17    8   20 1   
    18    9   10 ar  
    19    9   21 1   
    20   10   11 1   
    21   11   12 1   
    22   11   13 1   
@<TRIPOS>SUBSTRUCTURE
     1 FE3         1 TEMP              0 ****  ****    0 ROOT
