@<TRIPOS>MOLECULE
FE3
   23    23     1     0     0
SMALL
bcc


@<TRIPOS>ATOM
      1 N           1.6040    0.7100   -0.3760 nz        1 FE3     -0.858600
      2 CA          1.0540   -0.4810    0.3290 c3        1 FE3      0.109800
      3 CB          1.7350   -0.7140    1.6840 c3        1 FE3     -0.043100
      4 CG          3.1820   -0.3890    1.6260 ca        1 FE3     -0.193300
      5 CD1         3.6520    0.9320    1.7560 ca        1 FE3     -0.045600
      6 ClD1        2.5390    2.2200    2.0490 cl        1 FE3     -0.148400
      7 CD2         4.1190   -1.4070    1.4120 ca        1 FE3     -0.125000
      8 CE1         5.0030    1.2370    1.6360 ca        1 FE3     -0.084000
      9 CE2         5.4740   -1.1080    1.2810 ca        1 FE3     -0.096000
     10 CZ          5.9190    0.2120    1.3620 ca        1 FE3     -0.099600
     11 CF          7.3940    0.5620    1.1070 c         1 FE3      0.912200
     12 OF1         8.1800   -0.4040    0.9420 o         1 FE3     -0.789300
     13 OF2         7.6750    1.7870    1.0570 o         1 FE3     -0.789300
     14 HN          2.5740    0.5150   -0.6610 hn        1 FE3      0.463133
     15 H1A        -0.0510   -0.3200    0.4770 hx        1 FE3      0.092700
     16 H2A         1.2090   -1.3750   -0.3390 hx        1 FE3      0.092700
     17 H1B         1.2220   -0.1010    2.4730 hc        1 FE3      0.085700
     18 H2B         1.5840   -1.7950    1.9500 hc        1 FE3      0.085700
     19 HD2         3.7770   -2.4510    1.3470 ha        1 FE3      0.127000
     20 HE1         5.3920    2.2680    1.7340 ha        1 FE3      0.193000
     21 HE2         6.2250   -1.9000    1.1050 ha        1 FE3      0.183000
     22 HNA         1.0440    0.9460   -1.1920 hn        1 FE3      0.463133
     23 HN3         1.6440    1.5160    0.2940 hn        1 FE3      0.463133
@<TRIPOS>BOND
     1    1    2 1   
     2    1   14 1   
     3    1   22 1   
     4    1   23 1   
     5    2    3 1   
     6    2   15 1   
     7    2   16 1   
     8    3    4 1   
     9    3   17 1   
    10    3   18 1   
    11    4    5 ar  
    12    4    7 ar  
    13    5    6 1   
    14    5    8 ar  
    15    7    9 ar  
    16    7   19 1   
    17    8   10 ar  
    18    8   20 1   
    19    9   10 ar  
    20    9   21 1   
    21   10   11 1   
    22   11   12 1   
    23   11   13 1   
@<TRIPOS>SUBSTRUCTURE
     1 FE3         1 TEMP              0 ****  ****    0 ROOT
