@<TRIPOS>MOLECULE
FE3
   22    20     1     0     0
SMALL
bcc


@<TRIPOS>ATOM
      1 N          -3.8390    0.1050   -0.9600 n3        1 FE3     -0.346000
      2 CA         -2.3310    0.0670   -1.0150 c3        1 FE3     -0.087000
      3 CB         -1.7610   -0.0750    0.4150 c3        1 FE3     -0.111000
      4 CG         -0.2420   -0.0410    0.3610 c2        1 FE3     -0.103000
      5 CD1         0.4680   -1.2010    0.1860 c2        1 FE3     -0.072000
      6 CLD1       -0.3180   -2.6420    0.0870 cl        1 FE3     -0.075000
      7 CD2         0.4150    1.1260    0.5900 c1        1 FE3     -0.152000
      8 CE1         1.8370   -1.1780    0.2440 c1        1 FE3     -0.101000
      9 CE2         1.7930    1.1430    0.6470 c1        1 FE3     -0.107000
     10 CZ          2.4940    0.0030    0.4760 c2        1 FE3     -0.096000
     11 CF          4.0540    0.0510    0.4270 c2        1 FE3      0.358000
     12 OF1         4.6830   -0.1150    1.4220 o         1 FE3     -0.560500
     13 OF2         4.6790    0.1990   -0.7360 o         1 FE3     -0.560500
     14 HN         -4.1460   -0.3810   -1.5490 hn        1 FE3      0.131500
     15 H1A        -1.9880    0.9210   -1.4300 h1        1 FE3      0.074500
     16 H2A        -2.0670   -0.6360   -1.5140 h1        1 FE3      0.074500
     17 H1B        -2.0400   -0.8900    0.7870 hc        1 FE3      0.084000
     18 H2B        -2.0930    0.6860    0.9820 hc        1 FE3      0.084000
     19 HD2        -0.0730    1.9170    0.7640 ha        1 FE3      0.109000
     20 HE1         2.3700   -2.0420    0.1140 DU        1 FE3      0.168000
     21 HE2         2.2500    1.9600    0.8060 ha        1 FE3      0.155000
     22 HNA        -4.1460    1.0230   -1.1040 hn        1 FE3      0.131500
@<TRIPOS>BOND
     1    1    2 1   
     2    1   14 1   
     3    1   22 1   
     4    2    3 1   
     5    2   15 1   
     6    2   16 1   
     7    3    4 1   
     8    3   17 1   
     9    3   18 1   
    10    4    5 1   
    11    4    7 1   
    12    5    6 1   
    13    5    8 1   
    14    7   19 1   
    15    8   10 1   
    16    9   10 1   
    17    9   21 1   
    18   10   11 1   
    19   11   12 1   
    20   11   13 1   
@<TRIPOS>SUBSTRUCTURE
     1 FE3         1 TEMP              0 ****  ****    0 ROOT
