@<TRIPOS>MOLECULE
FE3
   23    23     1     0     0
SMALL
bcc


@<TRIPOS>ATOM
      1 N           1.5420    0.6440   -0.3160 n4        1 FE3     -0.858600
      2 CA          1.0550   -0.5690    0.4000 c3        1 FE3      0.109800
      3 CB          1.7820   -0.7820    1.7320 c3        1 FE3     -0.043100
      4 CG          3.2150   -0.4050    1.6350 ca        1 FE3     -0.193300
      5 CD1         3.6410    0.9310    1.7570 ca        1 FE3     -0.045600
      6 CLD1        2.4910    2.1780    2.0890 cl        1 FE3     -0.148400
      7 CD2         4.1810   -1.3870    1.3900 ca        1 FE3     -0.125000
      8 CE1         4.9760    1.2850    1.6000 ca        1 FE3     -0.084000
      9 CE2         5.5200   -1.0400    1.2210 ca        1 FE3     -0.096000
     10 CZ          5.9200    0.2950    1.2960 ca        1 FE3     -0.099600
     11 CF          7.3740    0.6990    1.0000 c         1 FE3      0.912200
     12 OF1         8.1880   -0.2380    0.8070 o         1 FE3     -0.789300
     13 OF2         7.6090    1.9330    0.9490 o         1 FE3     -0.789300
     14 HN          2.5090    0.4840   -0.6300 hn        1 FE3      0.463133
     15 H1A        -0.0500   -0.4480    0.5790 hx        1 FE3      0.092700
     16 H2A         1.2220   -1.4540   -0.2780 hx        1 FE3      0.092700
     17 H1B         1.2720   -0.1910    2.5390 hc        1 FE3      0.085700
     18 H2B         1.6780   -1.8690    1.9980 hc        1 FE3      0.085700
     19 HD2         3.8750   -2.4430    1.3290 ha        1 FE3      0.127000
     20 HE1         5.3310    2.3290    1.6930 ha        1 FE3      0.193000
     21 HE2         6.2940   -1.8040    1.0190 ha        1 FE3      0.183000
     22 HNA         0.9500    0.8620   -1.1140 hn        1 FE3      0.463133
     23 HN3         1.5720    1.4490    0.3560 hn        1 FE3      0.463133
@<TRIPOS>BOND
     1    1    2 1   
     2    1   14 1   
     3    1   22 1   
     4    1   23 1   
     5    2    3 1   
     6    2   15 1   
     7    2   16 1   
     8    3    4 1   
     9    3   17 1   
    10    3   18 1   
    11    4    5 ar  
    12    4    7 ar  
    13    5    6 1   
    14    5    8 ar  
    15    7    9 ar  
    16    7   19 1   
    17    8   10 ar  
    18    8   20 1   
    19    9   10 ar  
    20    9   21 1   
    21   10   11 1   
    22   11   12 1   
    23   11   13 1   
@<TRIPOS>SUBSTRUCTURE
     1 FE3         1 TEMP              0 ****  ****    0 ROOT
