@<TRIPOS>MOLECULE
FEB
   90    89     1     0     0
SMALL
bcc


@<TRIPOS>ATOM
      1 N1         -5.9340    0.0390   -0.3230 n         1 FEB     -0.543900
      2 C2         -6.8330    1.1700   -0.3190 c3        1 FEB      0.101700
      3 C3         -8.3100    0.7210   -0.2040 c3        1 FEB      0.109400
      4 O4         -8.6100   -0.0970   -1.3230 oh        1 FEB     -0.607800
      5 C5         -6.6980    2.0620   -1.5620 c3        1 FEB     -0.086400
      6 C6         -5.3180    2.6700   -1.7480 c3        1 FEB     -0.066700
      7 C7         -5.2880    3.4700   -3.0360 c3        1 FEB     -0.095600
      8 C8         -4.9260    3.5470   -0.5780 c3        1 FEB     -0.095600
      9 N9         -2.9090   -1.3840    1.2730 n         1 FEB     -0.547900
     10 C10        -4.1410   -1.4700    0.5290 c3        1 FEB      0.026700
     11 C11        -4.9650   -0.1550    0.6250 c         1 FEB      0.642100
     12 O12        -4.7400    0.6880    1.5240 o         1 FEB     -0.661100
     13 C13        -5.0450   -2.6140    1.0140 c3        1 FEB     -0.078400
     14 C14        -4.3750   -3.9590    0.8400 c3        1 FEB     -0.149400
     15 C15        -5.3680   -5.0840    1.0630 c         1 FEB      0.656100
     16 O16        -6.6000   -4.8890    1.1270 o         1 FEB     -0.622100
     17 N17        -4.8710   -6.3590    1.1810 n         1 FEB     -0.676000
     18 N18         0.7540   -0.7870    0.9080 n         1 FEB     -0.550900
     19 C19        -0.5110   -0.7660    1.5860 c3        1 FEB      0.060700
     20 O21        -1.5970   -1.1450   -0.5940 o         1 FEB     -0.585100
     21 C22        -0.7800    0.5780    2.2830 c3        1 FEB     -0.166400
     22 C23        -0.9500    1.7050    1.2800 c         1 FEB      0.649100
     23 O24         0.0120    2.0890    0.5790 o         1 FEB     -0.621100
     24 N25        -2.1700    2.3200    1.1880 n         1 FEB     -0.662000
     25 C26         5.0420   -1.1370   -0.4230 c3        1 FEB     -0.111400
     26 C27         3.7060   -0.8660    0.2630 c3        1 FEB      0.138100
     27 C28         7.3940   -0.3530   -0.7270 c3        1 FEB     -0.078400
     28 C30        14.4600    1.9920   -1.6030 c3        1 FEB     -0.092100
     29 C31        13.1680    2.1820   -0.8500 c3        1 FEB     -0.080400
     30 C32        12.1060    1.2070   -1.3140 c3        1 FEB     -0.079400
     31 C33        10.8110    1.4020   -0.5560 c3        1 FEB     -0.079400
     32 C34         9.7500    0.4270   -1.0210 c3        1 FEB     -0.078400
     33 C35         8.4550    0.6220   -0.2630 c3        1 FEB     -0.079400
     34 C36         2.6870   -1.9230   -0.1520 c3        1 FEB     -0.186400
     35 O37         3.2320    0.4410   -0.0140 oh        1 FEB     -0.589800
     36 O49         1.1180   -3.0140    1.3150 o         1 FEB     -0.626100
     37 HN1        -6.1070   -0.6580   -1.0100 hn        1 FEB      0.328500
     38 H2         -6.6090    1.7930    0.6010 h1        1 FEB      0.089700
     39 H3         -8.4740    0.1510    0.7490 h1        1 FEB      0.034700
     40 H3A        -8.9690    1.6300   -0.2080 h1        1 FEB      0.034700
     41 HO4        -9.4980   -0.4460   -1.1820 ho        1 FEB      0.408000
     42 H5         -6.9680    1.4640   -2.4730 hc        1 FEB      0.054700
     43 H5A        -7.4530    2.8870   -1.4650 hc        1 FEB      0.054700
     44 H6         -4.5620    1.8390   -1.8370 hc        1 FEB      0.053700
     45 H7         -6.0140    4.3170   -2.9890 hc        1 FEB      0.036367
     46 H7A        -4.2670    3.8880   -3.2060 hc        1 FEB      0.036367
     47 H7B        -5.5550    2.8210   -3.9050 hc        1 FEB      0.036367
     48 H8         -5.6980    4.3350   -0.4000 hc        1 FEB      0.036367
     49 H8A        -4.8190    2.9350    0.3520 hc        1 FEB      0.036367
     50 H8B        -3.9510    4.0520   -0.7850 hc        1 FEB      0.036367
     51 HN9        -3.0120   -1.1310    2.2300 hn        1 FEB      0.311500
     52 H10        -3.8730   -1.6500   -0.5580 h1        1 FEB      0.106700
     53 H13        -5.3220   -2.4650    2.0910 hc        1 FEB      0.071200
     54 H13A       -6.0000   -2.5990    0.4220 hc        1 FEB      0.071200
     55 H14        -3.9620   -4.0530   -0.2000 hc        1 FEB      0.074700
     56 H14A       -3.5160   -4.0580    1.5560 hc        1 FEB      0.074700
     57 HN17       -3.9020   -6.5350    1.1370 hn        1 FEB      0.313500
     58 HN1A       -5.4920   -7.1160    1.3190 hn        1 FEB      0.313500
     59 HN18        1.0320    0.0420    0.4210 hn        1 FEB      0.360500
     60 H19        -0.4860   -1.5800    2.3780 h1        1 FEB      0.101700
     61 H22        -1.6710    0.4690    2.9530 hc        1 FEB      0.081200
     62 H22A        0.0990    0.8430    2.9320 hc        1 FEB      0.081200
     63 HN25       -2.9700    1.9440    1.6390 hn        1 FEB      0.322500
     64 HN2A       -2.3100    3.0120    0.4930 hn        1 FEB      0.322500
     65 H26         5.3700   -2.1820   -0.1870 hc        1 FEB      0.047200
     66 H26A        4.9090   -1.0670   -1.5350 hc        1 FEB      0.047200
     67 H27         3.8370   -0.8700    1.3830 h1        1 FEB      0.086700
     68 H28         7.7590   -1.4040   -0.5780 hc        1 FEB      0.038700
     69 H28A        7.2150   -0.2180   -1.8260 hc        1 FEB      0.038700
     70 H29         5.7210    0.8930   -0.1280 hc        1 FEB      0.050200
     71 H29A        6.2790   -0.2760    1.1290 hc        1 FEB      0.050200
     72 H30        14.3060    2.1510   -2.6970 hc        1 FEB      0.032700
     73 H30A       15.2280    2.7200   -1.2450 hc        1 FEB      0.032700
     74 H30B       14.8560    0.9590   -1.4520 hc        1 FEB      0.032700
     75 H31        13.3480    2.0430    0.2480 hc        1 FEB      0.038700
     76 H31A       12.7990    3.2320   -0.9940 hc        1 FEB      0.038700
     77 H32        11.9240    1.3460   -2.4130 hc        1 FEB      0.039200
     78 H32A       12.4730    0.1570   -1.1700 hc        1 FEB      0.039200
     79 H33        10.9930    1.2640    0.5420 hc        1 FEB      0.040200
     80 H33A       10.4450    2.4530   -0.7010 hc        1 FEB      0.040200
     81 H34         9.5680    0.5650   -2.1190 hc        1 FEB      0.039200
     82 H34A       10.1160   -0.6240   -0.8760 hc        1 FEB      0.039200
     83 H35         8.0880    1.6730   -0.4080 hc        1 FEB      0.041700
     84 H35A        8.6370    0.4850    0.8360 hc        1 FEB      0.041700
     85 H36         2.3520   -1.7380   -1.2070 hc        1 FEB      0.079700
     86 H36A        3.1620   -2.9380   -0.1080 hc        1 FEB      0.079700
     87 HO37        3.2100    0.5500   -0.9730 ho        1 FEB      0.402000
     88 C20        -1.7050   -1.0870    0.6440 c         1 FEB      0.625100
     89 C38         1.4640   -1.9590    0.7430 c         1 FEB      0.671100
     90 C29         6.0990   -0.1530    0.0290 c3        1 FEB     -0.080400
@<TRIPOS>BOND
     1    1    2 1   
     2    1   11 1   
     3    1   37 1   
     4    2    3 1   
     5    2    5 1   
     6    2   38 1   
     7    3    4 1   
     8    3   39 1   
     9    3   40 1   
    10    4   41 1   
    11    5    6 1   
    12    5   42 1   
    13    5   43 1   
    14    6    7 1   
    15    6    8 1   
    16    6   44 1   
    17    7   45 1   
    18    7   46 1   
    19    7   47 1   
    20    8   48 1   
    21    8   49 1   
    22    8   50 1   
    23    9   10 1   
    24    9   51 1   
    25    9   88 1   
    26   10   11 1   
    27   10   13 1   
    28   10   52 1   
    29   11   12 2   
    30   13   14 1   
    31   13   53 1   
    32   13   54 1   
    33   14   15 1   
    34   14   55 1   
    35   14   56 1   
    36   15   16 2   
    37   15   17 1   
    38   17   57 1   
    39   17   58 1   
    40   18   19 1   
    41   18   59 1   
    42   18   89 1   
    43   19   21 1   
    44   19   60 1   
    45   19   88 1   
    46   20   88 2   
    47   21   22 1   
    48   21   61 1   
    49   21   62 1   
    50   22   23 2   
    51   22   24 1   
    52   24   63 1   
    53   24   64 1   
    54   25   26 1   
    55   25   65 1   
    56   25   66 1   
    57   25   90 1   
    58   26   34 1   
    59   26   35 1   
    60   26   67 1   
    61   27   33 1   
    62   27   68 1   
    63   27   69 1   
    64   27   90 1   
    65   28   29 1   
    66   28   72 1   
    67   28   73 1   
    68   28   74 1   
    69   29   30 1   
    70   29   75 1   
    71   29   76 1   
    72   30   31 1   
    73   30   77 1   
    74   30   78 1   
    75   31   32 1   
    76   31   79 1   
    77   31   80 1   
    78   32   33 1   
    79   32   81 1   
    80   32   82 1   
    81   33   83 1   
    82   33   84 1   
    83   34   85 1   
    84   34   86 1   
    85   34   89 1   
    86   35   87 1   
    87   36   89 2   
    88   70   90 1   
    89   71   90 1   
@<TRIPOS>SUBSTRUCTURE
     1 FEB         1 TEMP              0 ****  ****    0 ROOT
