@<TRIPOS>MOLECULE
FEB
   90    89     1     0     0
SMALL
bcc


@<TRIPOS>ATOM
      1 N1          5.3360    4.5300    0.9700 n         1 FEB     -0.560900
      2 C2          6.7050    4.6210    1.3370 c3        1 FEB      0.062700
      3 C3          6.8120    4.8770    2.8240 c3        1 FEB      0.115400
      4 O4          7.4380    3.7770    3.4470 oh        1 FEB     -0.605800
      5 C5          7.3560    5.7580    0.5820 c3        1 FEB     -0.084400
      6 C6          8.8110    5.4290    0.3310 c3        1 FEB     -0.065700
      7 C7          9.0930    5.4900   -1.1540 c3        1 FEB     -0.096600
      8 C8          9.6860    6.4310    1.0520 c3        1 FEB     -0.096600
      9 N9          2.7100    1.9010    1.0070 n         1 FEB     -0.541900
     10 C10         3.1570    3.2350    0.8210 c3        1 FEB      0.035700
     11 C11         4.6050    3.3460    1.2450 c         1 FEB      0.641100
     12 O12         5.1470    2.4130    1.8040 o         1 FEB     -0.656100
     13 C13         2.3140    4.1710    1.6580 c3        1 FEB     -0.083400
     14 C14         1.5320    5.0940    0.7490 c3        1 FEB     -0.147400
     15 C15         0.6920    6.0330    1.5860 c         1 FEB      0.656100
     16 O16         0.6970    5.9370    2.7970 o         1 FEB     -0.624100
     17 N17        -0.1080    7.0220    0.9560 n         1 FEB     -0.672000
     18 N18         0.4960   -0.4430   -0.6690 n         1 FEB     -0.547900
     19 C19         1.6550   -0.2330    0.1220 c3        1 FEB      0.036700
     20 C20         2.1570    1.1790   -0.0820 c         1 FEB      0.629100
     21 O21         2.0750    1.7000   -1.1770 o         1 FEB     -0.617100
     22 C22         2.7300   -1.2140   -0.2880 c3        1 FEB     -0.164400
     23 C23         3.0730   -2.1060    0.8840 c         1 FEB      0.644100
     24 O24         2.5080   -1.9550    1.9490 o         1 FEB     -0.633100
     25 N25         4.0470   -3.1280    0.7380 n         1 FEB     -0.613000
     26 C26        -3.7030   -3.0510   -1.4160 c3        1 FEB     -0.076400
     27 C27        -2.5120   -2.7670   -0.5290 c3        1 FEB      0.159100
     28 C28        -5.8680   -4.2320   -1.5690 c3        1 FEB     -0.078400
     29 C29        -4.6860   -3.9300   -0.6740 c3        1 FEB     -0.078400
     30 C30       -12.3660   -7.7620   -2.0240 c3        1 FEB     -0.092100
     31 C31       -11.1040   -7.5970   -1.2050 c3        1 FEB     -0.080400
     32 C32       -10.1840   -6.6100   -1.8900 c3        1 FEB     -0.079400
     33 C33        -8.9560   -6.3900   -1.0340 c3        1 FEB     -0.079400
     34 C34        -8.0590   -5.3670   -1.6950 c3        1 FEB     -0.078400
     35 C35        -6.8230   -5.1580   -0.8480 c3        1 FEB     -0.078400
     36 C36        -1.6880   -1.6520   -1.1330 c3        1 FEB     -0.193400
     37 O37        -1.7220   -3.9270   -0.4200 oh        1 FEB     -0.605800
     38 C38        -0.4790   -1.3910   -0.2630 c         1 FEB      0.661100
     39 O49        -0.3390   -1.9960    0.7810 o         1 FEB     -0.615100
     40 HN1         4.9300    5.2300    0.5500 hn        1 FEB      0.318500
     41 H2          7.1570    3.7820    1.1180 h1        1 FEB      0.084700
     42 H3          5.9160    4.9990    3.2000 h1        1 FEB      0.052200
     43 H3A         7.3430    5.6850    2.9790 h1        1 FEB      0.052200
     44 HO4         7.7540    4.0260    4.2400 ho        1 FEB      0.420000
     45 H5          6.8980    5.8850   -0.2740 hc        1 FEB      0.049200
     46 H5A         7.2930    6.5780    1.1100 hc        1 FEB      0.049200
     47 H6          9.0030    4.5310    0.6620 hc        1 FEB      0.051700
     48 H7          8.5120    4.8560   -1.6240 hc        1 FEB      0.038533
     49 H7A        10.0310    5.2580   -1.3190 hc        1 FEB      0.038533
     50 H7B         8.9190    6.3970   -1.4830 hc        1 FEB      0.038533
     51 H8         10.5980    6.3830    0.6970 hc        1 FEB      0.038533
     52 H8A         9.3290    7.3340    0.9160 hc        1 FEB      0.038533
     53 H8B         9.6960    6.2250    2.0100 hc        1 FEB      0.038533
     54 HN9         2.7680    1.5110    1.8290 hn        1 FEB      0.340500
     55 H10         3.0750    3.4780   -0.1230 h1        1 FEB      0.100700
     56 H13         1.6930    3.6490    2.2050 hc        1 FEB      0.074200
     57 H13A        2.8950    4.7010    2.2390 hc        1 FEB      0.074200
     58 H14         2.1530    5.6130    0.2000 hc        1 FEB      0.072700
     59 H14A        0.9490    4.5640    0.1690 hc        1 FEB      0.072700
     60 HN17       -0.6150    7.5900    1.4620 hn        1 FEB      0.314500
     61 HN1A       -0.1150    7.0910    0.0450 hn        1 FEB      0.314500
     62 HN18        0.3830    0.0230   -1.4460 hn        1 FEB      0.320500
     63 H19         1.4350   -0.3670    1.0650 h1        1 FEB      0.136700
     64 H22         3.5290   -0.7240   -0.5690 hc        1 FEB      0.082700
     65 H22A        2.4060   -1.7620   -1.0310 hc        1 FEB      0.082700
     66 HN25        4.4680   -3.2460   -0.0650 hn        1 FEB      0.307500
     67 HN2A        4.2530   -3.6680    1.4460 hn        1 FEB      0.307500
     68 H26        -3.4040   -3.5080   -2.2270 hc        1 FEB      0.048200
     69 H26A       -4.1370   -2.2080   -1.6580 hc        1 FEB      0.048200
     70 H27        -2.8220   -2.4990    0.3580 h1        1 FEB      0.045700
     71 H28        -6.3280   -3.3980   -1.7930 hc        1 FEB      0.038700
     72 H28A       -5.5540   -4.6610   -2.3900 hc        1 FEB      0.038700
     73 H29        -4.9950   -3.4670    0.1300 hc        1 FEB      0.049200
     74 H29A       -4.2470   -4.7670   -0.4200 hc        1 FEB      0.049200
     75 H30       -12.1340   -8.0850   -2.9200 hc        1 FEB      0.032367
     76 H30A      -12.8240   -6.8980   -2.0960 hc        1 FEB      0.032367
     77 H30B      -12.9570   -8.4100   -1.5870 hc        1 FEB      0.032367
     78 H31       -11.3350   -7.2650   -0.3150 hc        1 FEB      0.038200
     79 H31A      -10.6530   -8.4610   -1.1240 hc        1 FEB      0.038200
     80 H32        -9.9150   -6.9650   -2.7610 hc        1 FEB      0.039200
     81 H32A      -10.6520   -5.7610   -2.0140 hc        1 FEB      0.039200
     82 H33        -9.2270   -6.0640   -0.1530 hc        1 FEB      0.039700
     83 H33A       -8.4710   -7.2330   -0.9360 hc        1 FEB      0.039700
     84 H34        -8.5400   -4.5200   -1.7840 hc        1 FEB      0.039200
     85 H34A       -7.7960   -5.6870   -2.5810 hc        1 FEB      0.039200
     86 H35        -7.0780   -4.7610    0.0080 hc        1 FEB      0.040700
     87 H35A       -6.3860   -6.0190   -0.6910 hc        1 FEB      0.040700
     88 H36        -2.2310   -0.8400   -1.1900 hc        1 FEB      0.079700
     89 H36A       -1.3950   -1.9120   -2.0300 hc        1 FEB      0.079700
     90 HO37       -1.8110   -4.2700    0.3960 ho        1 FEB      0.427000
@<TRIPOS>BOND
     1    1    2 1   
     2    1   11 1   
     3    1   40 1   
     4    2    3 1   
     5    2    5 1   
     6    2   41 1   
     7    3    4 1   
     8    3   42 1   
     9    3   43 1   
    10    4   44 1   
    11    5    6 1   
    12    5   45 1   
    13    5   46 1   
    14    6    7 1   
    15    6    8 1   
    16    6   47 1   
    17    7   48 1   
    18    7   49 1   
    19    7   50 1   
    20    8   51 1   
    21    8   52 1   
    22    8   53 1   
    23    9   10 1   
    24    9   20 1   
    25    9   54 1   
    26   10   11 1   
    27   10   13 1   
    28   10   55 1   
    29   11   12 2   
    30   13   14 1   
    31   13   56 1   
    32   13   57 1   
    33   14   15 1   
    34   14   58 1   
    35   14   59 1   
    36   15   16 2   
    37   15   17 1   
    38   17   60 1   
    39   17   61 1   
    40   18   19 1   
    41   18   38 1   
    42   18   62 1   
    43   19   20 1   
    44   19   22 1   
    45   19   63 1   
    46   20   21 2   
    47   22   23 1   
    48   22   64 1   
    49   22   65 1   
    50   23   24 2   
    51   23   25 1   
    52   25   66 1   
    53   25   67 1   
    54   26   27 1   
    55   26   29 1   
    56   26   68 1   
    57   26   69 1   
    58   27   36 1   
    59   27   37 1   
    60   27   70 1   
    61   28   29 1   
    62   28   35 1   
    63   28   71 1   
    64   28   72 1   
    65   29   73 1   
    66   29   74 1   
    67   30   31 1   
    68   30   75 1   
    69   30   76 1   
    70   30   77 1   
    71   31   32 1   
    72   31   78 1   
    73   31   79 1   
    74   32   33 1   
    75   32   80 1   
    76   32   81 1   
    77   33   34 1   
    78   33   82 1   
    79   33   83 1   
    80   34   35 1   
    81   34   84 1   
    82   34   85 1   
    83   35   86 1   
    84   35   87 1   
    85   36   38 1   
    86   36   88 1   
    87   36   89 1   
    88   37   90 1   
    89   38   39 2   
@<TRIPOS>SUBSTRUCTURE
     1 FEB         1 TEMP              0 ****  ****    0 ROOT
