@<TRIPOS>MOLECULE
FEE
  127   127     1     0     0
SMALL
bcc


@<TRIPOS>ATOM
      1 N2          0.3720    1.6150    1.5070 ny        1 FEE     -0.680800
      2 C3          0.8720   -0.0440   -0.3070 c3        1 FEE      0.136100
      3 C4          1.9780   -0.8600   -1.0050 c3        1 FEE      0.118100
      4 C5          1.4260   -1.4970   -2.2750 c3        1 FEE     -0.118400
      5 C6          2.3380   -2.5900   -2.7910 c3        1 FEE     -0.082400
      6 C7          1.7960   -3.1880   -4.0710 c3        1 FEE     -0.080400
      7 C8          2.7030   -4.2860   -4.5880 c3        1 FEE     -0.079400
      8 C9          2.1670   -4.8850   -5.8630 c3        1 FEE     -0.095100
      9 C1          2.4650    0.2750    1.6810 c3        1 FEE      0.111400
     10 CAX       -23.6170    6.4010  -15.8680 c3        1 FEE     -0.093100
     11 CAW       -22.2120    6.8280  -15.5320 c3        1 FEE     -0.080400
     12 CAV       -21.6310    5.9940  -14.4100 c3        1 FEE     -0.079400
     13 CAU       -20.2200    6.4270  -14.0750 c3        1 FEE     -0.079400
     14 CAT       -19.6400    5.5920  -12.9540 c3        1 FEE     -0.079400
     15 CAS       -18.2290    6.0260  -12.6190 c3        1 FEE     -0.079400
     16 CAR       -17.6490    5.1910  -11.4960 c3        1 FEE     -0.079400
     17 CAQ       -16.2390    5.6250  -11.1610 c3        1 FEE     -0.079400
     18 CAP       -15.6600    4.7920  -10.0370 c3        1 FEE     -0.079400
     19 CAO       -14.2500    5.2270   -9.7010 c3        1 FEE     -0.079400
     20 CAN       -13.6720    4.3950   -8.5760 c3        1 FEE     -0.079400
     21 CAM       -12.2630    4.8320   -8.2380 c3        1 FEE     -0.079400
     22 CAL       -11.6860    4.0010   -7.1120 c3        1 FEE     -0.079400
     23 CAK       -10.2780    4.4390   -6.7720 c3        1 FEE     -0.079400
     24 CAJ        -9.7020    3.6110   -5.6430 c3        1 FEE     -0.079400
     25 CAI        -8.2950    4.0510   -5.3020 c3        1 FEE     -0.079400
     26 CAH        -7.7210    3.2240   -4.1710 c3        1 FEE     -0.079400
     27 CAG        -6.3150    3.6660   -3.8280 c3        1 FEE     -0.079400
     28 CAF        -5.7430    2.8420   -2.6950 c3        1 FEE     -0.079400
     29 CAE        -4.3370    3.2880   -2.3510 c3        1 FEE     -0.079400
     30 CAD        -3.7680    2.4630   -1.2150 c3        1 FEE     -0.080400
     31 CAC        -2.3650    2.9180   -0.8730 c3        1 FEE     -0.081400
     32 CAB        -1.8020    2.0780    0.2590 c3        1 FEE     -0.158400
     33 CAA        -0.4440    2.5710    0.6590 c         1 FEE      0.551100
     34 OAA         0.0900    3.6420    0.4170 o         1 FEE     -0.413100
     35 C2          1.4760    0.9550    0.7200 c3        1 FEE      0.096500
     36 O3         -0.0850   -0.8690    0.3190 oh        1 FEE     -0.622800
     37 O4          3.0490    0.0400   -1.2520 oh        1 FEE     -0.626800
     38 O1A         1.7520   -0.7740    2.3260 os        1 FEE     -0.485600
     39 C1A         2.5850   -1.7630    2.9270 c3        1 FEE      0.343900
     40 O6A         2.7570   -1.3370    4.2520 os        1 FEE     -0.415600
     41 C5M         1.5930   -1.4050    5.0850 c3        1 FEE      0.113100
     42 C6A         2.0670   -0.9780    6.4800 c3        1 FEE      0.140400
     43 O5A         2.5410    0.3490    6.4440 oh        1 FEE     -0.595800
     44 C4A         0.9690   -2.8050    5.0990 c3        1 FEE      0.090100
     45 O4A         1.8900   -3.6980    5.6960 oh        1 FEE     -0.579800
     46 C3A         0.6340   -3.2180    3.6570 c3        1 FEE      0.067100
     47 O3A         0.2300   -4.5770    3.6050 oh        1 FEE     -0.600800
     48 C2A         1.8930   -3.1300    2.7820 c3        1 FEE      0.128100
     49 O2A         1.5630   -3.2760    1.4120 oh        1 FEE     -0.618800
     50 HN2        -0.2310    0.8620    1.8680 hn        1 FEE      0.464800
     51 H3          0.2920    0.5390   -1.0810 h1        1 FEE      0.084700
     52 H4          2.3430   -1.6620   -0.2950 h1        1 FEE      0.075700
     53 H5          0.4150   -1.9270   -2.0460 hc        1 FEE      0.065700
     54 H5A         1.2930   -0.7080   -3.0610 hc        1 FEE      0.065700
     55 H6          3.3650   -2.1760   -2.9760 hc        1 FEE      0.044700
     56 H6A         2.4410   -3.3930   -2.0140 hc        1 FEE      0.044700
     57 H7          0.7700   -3.6030   -3.8880 hc        1 FEE      0.045200
     58 H7A         1.6960   -2.3870   -4.8500 hc        1 FEE      0.045200
     59 H8          3.7290   -3.8700   -4.7700 hc        1 FEE      0.041200
     60 H8A         2.8040   -5.0860   -3.8080 hc        1 FEE      0.041200
     61 H9          2.8490   -5.6910   -6.2270 hc        1 FEE      0.039033
     62 H9A         2.0830   -4.1080   -6.6610 hc        1 FEE      0.039033
     63 H9B         1.1550   -5.3280   -5.6970 hc        1 FEE      0.039033
     64 H1          2.8530    0.9880    2.4580 h1        1 FEE      0.085200
     65 H1A         3.3270   -0.1180    1.0740 h1        1 FEE      0.085200
     66 HAX       -24.2860    6.5100  -14.9800 hc        1 FEE      0.033033
     67 HAXA      -23.6370    5.3320  -16.1920 hc        1 FEE      0.033033
     68 HAXB      -24.0260    7.0280  -16.6970 hc        1 FEE      0.033033
     69 HAW       -22.2080    7.9100  -15.2330 hc        1 FEE      0.038700
     70 HAWA      -21.5610    6.7350  -16.4420 hc        1 FEE      0.038700
     71 HAV       -22.2790    6.0870  -13.4990 hc        1 FEE      0.039700
     72 HAVA      -21.6320    4.9120  -14.7070 hc        1 FEE      0.039700
     73 HAU       -20.2190    7.5090  -13.7780 hc        1 FEE      0.039700
     74 HAUA      -19.5720    6.3340  -14.9870 hc        1 FEE      0.039700
     75 HAT       -19.6400    4.5100  -13.2510 hc        1 FEE      0.039700
     76 HATA      -20.2880    5.6850  -12.0430 hc        1 FEE      0.039700
     77 HAS       -17.5810    5.9330  -13.5300 hc        1 FEE      0.039700
     78 HASA      -18.2280    7.1080  -12.3220 hc        1 FEE      0.039700
     79 HAR       -18.2980    5.2840  -10.5860 hc        1 FEE      0.039700
     80 HARA      -17.6500    4.1090  -11.7930 hc        1 FEE      0.039700
     81 HAQ       -16.2390    6.7080  -10.8650 hc        1 FEE      0.039700
     82 HAQA      -15.5900    5.5320  -12.0710 hc        1 FEE      0.039700
     83 HAP       -15.6590    3.7100  -10.3340 hc        1 FEE      0.039700
     84 HAPA      -16.3100    4.8850   -9.1270 hc        1 FEE      0.039700
     85 HAO       -13.6000    5.1330  -10.6110 hc        1 FEE      0.039700
     86 HAOA      -14.2510    6.3100   -9.4060 hc        1 FEE      0.039700
     87 HAN       -13.6710    3.3130   -8.8720 hc        1 FEE      0.039700
     88 HANA      -14.3230    4.4880   -7.6670 hc        1 FEE      0.039700
     89 HAM       -12.2650    5.9140   -7.9440 hc        1 FEE      0.040200
     90 HAMA      -11.6120    4.7370   -9.1470 hc        1 FEE      0.040200
     91 HAL       -11.6830    2.9180   -7.4060 hc        1 FEE      0.039700
     92 HALA      -12.3380    4.0950   -6.2040 hc        1 FEE      0.039700
     93 HAK        -9.6250    4.3430   -7.6800 hc        1 FEE      0.040200
     94 HAKA      -10.2810    5.5220   -6.4800 hc        1 FEE      0.040200
     95 HAJ        -9.6980    2.5270   -5.9360 hc        1 FEE      0.040200
     96 HAJA      -10.3560    3.7050   -4.7370 hc        1 FEE      0.040200
     97 HAI        -8.3000    5.1340   -5.0110 hc        1 FEE      0.041200
     98 HAIA       -7.6410    3.9540   -6.2080 hc        1 FEE      0.041200
     99 HAH        -7.7150    2.1410   -4.4630 hc        1 FEE      0.041200
    100 HAHA       -8.3770    3.3190   -3.2660 hc        1 FEE      0.041200
    101 HAG        -5.6590    3.5700   -4.7330 hc        1 FEE      0.042700
    102 HAGA       -6.3220    4.7500   -3.5390 hc        1 FEE      0.042700
    103 HAF        -5.7340    1.7580   -2.9850 hc        1 FEE      0.042700
    104 HAFA       -6.4010    2.9380   -1.7910 hc        1 FEE      0.042700
    105 HAE        -4.3460    4.3720   -2.0620 hc        1 FEE      0.047700
    106 HAEA       -3.6800    3.1900   -3.2550 hc        1 FEE      0.047700
    107 HAD        -4.4290    2.5610   -0.3130 hc        1 FEE      0.048200
    108 HADA       -3.7570    1.3790   -1.5050 hc        1 FEE      0.048200
    109 HAC        -1.7040    2.8270   -1.7750 hc        1 FEE      0.068200
    110 HACA       -2.3740    4.0000   -0.5750 hc        1 FEE      0.068200
    111 HAB        -2.4760    2.1470    1.1580 hc        1 FEE      0.108200
    112 HABA       -1.7490    0.9950   -0.0510 hc        1 FEE      0.108200
    113 H2          2.0350    1.7580    0.1500 hx        1 FEE      0.140700
    114 HO3         0.3800   -1.5930    0.7770 ho        1 FEE      0.459000
    115 HO4         3.4900   -0.2350   -2.0670 ho        1 FEE      0.437000
    116 H1AA        3.6200   -1.7880    2.4810 h2        1 FEE      0.106700
    117 H5M         0.8320   -0.6780    4.6880 h1        1 FEE      0.045700
    118 H6AA        1.1900   -0.9660    7.1810 h1        1 FEE      0.077200
    119 H6AB        2.8500   -1.6910    6.8490 h1        1 FEE      0.077200
    120 HO5A        3.4110    0.3270    6.0240 ho        1 FEE      0.412000
    121 H4A         0.0240   -2.7840    5.7140 h1        1 FEE      0.055700
    122 HO4A        1.5820   -4.5950    5.5010 ho        1 FEE      0.424000
    123 H3A        -0.1690   -2.5520    3.2380 h1        1 FEE      0.056700
    124 HO3A       -0.6230   -4.6410    4.0530 ho        1 FEE      0.423000
    125 H2A         2.6210   -3.9300    3.1030 h1        1 FEE      0.095700
    126 HO2A        1.1790   -4.1600    1.3180 ho        1 FEE      0.441000
    127 H22         0.7930    2.1200    2.2950 hn        1 FEE      0.464800
@<TRIPOS>BOND
     1    1   33 1   
     2    1   35 1   
     3    1   50 1   
     4    1  127 1   
     5    2    3 1   
     6    2   35 1   
     7    2   36 1   
     8    2   51 1   
     9    3    4 1   
    10    3   37 1   
    11    3   52 1   
    12    4    5 1   
    13    4   53 1   
    14    4   54 1   
    15    5    6 1   
    16    5   55 1   
    17    5   56 1   
    18    6    7 1   
    19    6   57 1   
    20    6   58 1   
    21    7    8 1   
    22    7   59 1   
    23    7   60 1   
    24    8   61 1   
    25    8   62 1   
    26    8   63 1   
    27    9   35 1   
    28    9   38 1   
    29    9   64 1   
    30    9   65 1   
    31   10   11 1   
    32   10   66 1   
    33   10   67 1   
    34   10   68 1   
    35   11   12 1   
    36   11   69 1   
    37   11   70 1   
    38   12   13 1   
    39   12   71 1   
    40   12   72 1   
    41   13   14 1   
    42   13   73 1   
    43   13   74 1   
    44   14   15 1   
    45   14   75 1   
    46   14   76 1   
    47   15   16 1   
    48   15   77 1   
    49   15   78 1   
    50   16   17 1   
    51   16   79 1   
    52   16   80 1   
    53   17   18 1   
    54   17   81 1   
    55   17   82 1   
    56   18   19 1   
    57   18   83 1   
    58   18   84 1   
    59   19   20 1   
    60   19   85 1   
    61   19   86 1   
    62   20   21 1   
    63   20   87 1   
    64   20   88 1   
    65   21   22 1   
    66   21   89 1   
    67   21   90 1   
    68   22   23 1   
    69   22   91 1   
    70   22   92 1   
    71   23   24 1   
    72   23   93 1   
    73   23   94 1   
    74   24   25 1   
    75   24   95 1   
    76   24   96 1   
    77   25   26 1   
    78   25   97 1   
    79   25   98 1   
    80   26   27 1   
    81   26   99 1   
    82   26  100 1   
    83   27   28 1   
    84   27  101 1   
    85   27  102 1   
    86   28   29 1   
    87   28  103 1   
    88   28  104 1   
    89   29   30 1   
    90   29  105 1   
    91   29  106 1   
    92   30   31 1   
    93   30  107 1   
    94   30  108 1   
    95   31   32 1   
    96   31  109 1   
    97   31  110 1   
    98   32   33 1   
    99   32  111 1   
   100   32  112 1   
   101   33   34 2   
   102   35  113 1   
   103   36  114 1   
   104   37  115 1   
   105   38   39 1   
   106   39   40 1   
   107   39   48 1   
   108   39  116 1   
   109   40   41 1   
   110   41   42 1   
   111   41   44 1   
   112   41  117 1   
   113   42   43 1   
   114   42  118 1   
   115   42  119 1   
   116   43  120 1   
   117   44   45 1   
   118   44   46 1   
   119   44  121 1   
   120   45  122 1   
   121   46   47 1   
   122   46   48 1   
   123   46  123 1   
   124   47  124 1   
   125   48   49 1   
   126   48  125 1   
   127   49  126 1   
@<TRIPOS>SUBSTRUCTURE
     1 FEE         1 TEMP              0 ****  ****    0 ROOT
