@<TRIPOS>MOLECULE
FEE
  127   127     1     0     0
SMALL
bcc


@<TRIPOS>ATOM
      1 N2          0.4250    1.6440    1.4820 n4        1 FEE     -0.680800
      2 C3          0.8490   -0.0400   -0.3280 c3        1 FEE      0.136100
      3 C4          1.9230   -0.8820   -1.0470 c3        1 FEE      0.118100
      4 C5          1.3270   -1.5190   -2.2960 c3        1 FEE     -0.118400
      5 C6          2.2060   -2.6330   -2.8250 c3        1 FEE     -0.082400
      6 C7          1.6200   -3.2330   -4.0850 c3        1 FEE     -0.080400
      7 C8          2.4930   -4.3510   -4.6150 c3        1 FEE     -0.079400
      8 C9          1.9130   -4.9530   -5.8700 c3        1 FEE     -0.095100
      9 C1          2.4980    0.2680    1.6160 c3        1 FEE      0.111400
     10 CAX       -23.5830    6.3040  -15.8900 c3        1 FEE     -0.093100
     11 CAW       -22.1720    6.7240  -15.5680 c3        1 FEE     -0.080400
     12 CAV       -21.6030    5.9230  -14.4160 c3        1 FEE     -0.079400
     13 CAU       -20.1860    6.3480  -14.0950 c3        1 FEE     -0.079400
     14 CAT       -19.6190    5.5460  -12.9440 c3        1 FEE     -0.079400
     15 CAS       -18.2020    5.9710  -12.6230 c3        1 FEE     -0.079400
     16 CAR       -17.6350    5.1690  -11.4720 c3        1 FEE     -0.079400
     17 CAQ       -16.2180    5.5950  -11.1520 c3        1 FEE     -0.079400
     18 CAP       -15.6510    4.7930  -10.0000 c3        1 FEE     -0.079400
     19 CAO       -14.2340    5.2180   -9.6800 c3        1 FEE     -0.079400
     20 CAN       -13.6670    4.4160   -8.5280 c3        1 FEE     -0.079400
     21 CAM       -12.2490    4.8410   -8.2080 c3        1 FEE     -0.079400
     22 CAL       -11.6820    4.0390   -7.0560 c3        1 FEE     -0.079400
     23 CAK       -10.2650    4.4640   -6.7370 c3        1 FEE     -0.079400
     24 CAJ        -9.6980    3.6620   -5.5850 c3        1 FEE     -0.079400
     25 CAI        -8.2800    4.0870   -5.2660 c3        1 FEE     -0.079400
     26 CAH        -7.7130    3.2840   -4.1150 c3        1 FEE     -0.079400
     27 CAG        -6.2960    3.7090   -3.7970 c3        1 FEE     -0.079400
     28 CAF        -5.7290    2.9060   -2.6460 c3        1 FEE     -0.079400
     29 CAE        -4.3110    3.3320   -2.3290 c3        1 FEE     -0.079400
     30 CAD        -3.7450    2.5260   -1.1790 c3        1 FEE     -0.080400
     31 CAC        -2.3280    2.9580   -0.8670 c3        1 FEE     -0.081400
     32 CAB        -1.7670    2.1330    0.2760 c3        1 FEE     -0.158400
     33 CAA        -0.3940    2.6080    0.6470 c         1 FEE      0.551100
     34 OAA         0.1510    3.6700    0.3900 o         1 FEE     -0.413100
     35 C2          1.4970    0.9570    0.6740 c3        1 FEE      0.096500
     36 O3         -0.1050   -0.8420    0.3300 oh        1 FEE     -0.622800
     37 O4          3.0030   -0.0030   -1.3290 oh        1 FEE     -0.626800
     38 O1A         1.7840   -0.7630    2.2880 os        1 FEE     -0.485600
     39 C1A         2.6150   -1.7620    2.8770 c3        1 FEE      0.343900
     40 O6A         2.8280   -1.3270    4.1930 os        1 FEE     -0.415600
     41 C5M         1.6860   -1.3670    5.0560 c3        1 FEE      0.113100
     42 C6A         2.2030   -0.9370    6.4340 c3        1 FEE      0.140400
     43 O5A         2.7000    0.3810    6.3730 oh        1 FEE     -0.595800
     44 C4A         1.0370   -2.7550    5.0990 c3        1 FEE      0.090100
     45 O4A         1.9570   -3.6590    5.6800 oh        1 FEE     -0.579800
     46 C3A         0.6570   -3.1750    3.6700 c3        1 FEE      0.067100
     47 O3A         0.2280   -4.5270    3.6410 oh        1 FEE     -0.600800
     48 C2A         1.8950   -3.1170    2.7620 c3        1 FEE      0.128100
     49 O2A         1.5270   -3.2690    1.4020 oh        1 FEE     -0.618800
     50 HN2         0.8750    2.1470    2.2550 hn        1 FEE      0.464800
     51 H3          0.2610    0.5470   -1.0920 h1        1 FEE      0.084700
     52 H4          2.2920   -1.6840   -0.3390 h1        1 FEE      0.075700
     53 H5          1.1880   -0.7350   -3.0850 hc        1 FEE      0.065700
     54 H5A         0.3150   -1.9290   -2.0380 hc        1 FEE      0.065700
     55 H6          2.3150   -3.4310   -2.0440 hc        1 FEE      0.044700
     56 H6A         3.2350   -2.2390   -3.0420 hc        1 FEE      0.044700
     57 H7          0.5920   -3.6280   -3.8720 hc        1 FEE      0.045200
     58 H7A         1.5130   -2.4370   -4.8690 hc        1 FEE      0.045200
     59 H8          2.6000   -5.1460   -3.8310 hc        1 FEE      0.041200
     60 H8A         3.5210   -3.9560   -4.8280 hc        1 FEE      0.041200
     61 H9          0.8980   -5.3760   -5.6730 hc        1 FEE      0.039033
     62 H9A         2.5710   -5.7750   -6.2430 hc        1 FEE      0.039033
     63 H9B         1.8220   -4.1820   -6.6730 hc        1 FEE      0.039033
     64 H1          2.9190    0.9800    2.3760 h1        1 FEE      0.085200
     65 H1A         3.3370   -0.1450    0.9910 h1        1 FEE      0.085200
     66 HAX       -24.2510    6.4540  -15.0080 hc        1 FEE      0.033033
     67 HAXA      -23.9820    6.9070  -16.7410 hc        1 FEE      0.033033
     68 HAXB      -23.6180    5.2250  -16.1750 hc        1 FEE      0.033033
     69 HAW       -21.5230    6.5900  -16.4730 hc        1 FEE      0.038700
     70 HAWA      -22.1540    7.8160  -15.3080 hc        1 FEE      0.038700
     71 HAV       -22.2510    6.0570  -13.5090 hc        1 FEE      0.039700
     72 HAVA      -21.6190    4.8310  -14.6740 hc        1 FEE      0.039700
     73 HAU       -20.1710    7.4400  -13.8370 hc        1 FEE      0.039700
     74 HAUA      -19.5390    6.2140  -15.0020 hc        1 FEE      0.039700
     75 HAT       -20.2660    5.6810  -12.0370 hc        1 FEE      0.039700
     76 HATA      -19.6350    4.4540  -13.2020 hc        1 FEE      0.039700
     77 HAS       -18.1860    7.0630  -12.3660 hc        1 FEE      0.039700
     78 HASA      -17.5550    5.8370  -13.5300 hc        1 FEE      0.039700
     79 HAR       -18.2820    5.3040  -10.5650 hc        1 FEE      0.039700
     80 HARA      -17.6510    4.0780  -11.7300 hc        1 FEE      0.039700
     81 HAQ       -15.5710    5.4600  -12.0580 hc        1 FEE      0.039700
     82 HAQA      -16.2020    6.6860  -10.8940 hc        1 FEE      0.039700
     83 HAP       -15.6670    3.7010  -10.2580 hc        1 FEE      0.039700
     84 HAPA      -16.2980    4.9280   -9.0930 hc        1 FEE      0.039700
     85 HAO       -14.2180    6.3100   -9.4220 hc        1 FEE      0.039700
     86 HAOA      -13.5870    5.0830  -10.5870 hc        1 FEE      0.039700
     87 HAN       -14.3130    4.5510   -7.6210 hc        1 FEE      0.039700
     88 HANA      -13.6830    3.3240   -8.7860 hc        1 FEE      0.039700
     89 HAM       -12.2330    5.9330   -7.9500 hc        1 FEE      0.040200
     90 HAMA      -11.6030    4.7060   -9.1150 hc        1 FEE      0.040200
     91 HAL       -12.3290    4.1740   -6.1500 hc        1 FEE      0.039700
     92 HALA      -11.6990    2.9470   -7.3140 hc        1 FEE      0.039700
     93 HAK        -9.6180    4.3290   -7.6440 hc        1 FEE      0.040200
     94 HAKA      -10.2490    5.5560   -6.4790 hc        1 FEE      0.040200
     95 HAJ       -10.3450    3.7970   -4.6790 hc        1 FEE      0.040200
     96 HAJA       -9.7150    2.5700   -5.8430 hc        1 FEE      0.040200
     97 HAI        -7.6340    3.9520   -6.1740 hc        1 FEE      0.041200
     98 HAIA       -8.2640    5.1790   -5.0080 hc        1 FEE      0.041200
     99 HAH        -7.7300    2.1920   -4.3740 hc        1 FEE      0.041200
    100 HAHA       -8.3600    3.4200   -3.2080 hc        1 FEE      0.041200
    101 HAG        -5.6500    3.5750   -4.7050 hc        1 FEE      0.042700
    102 HAGA       -6.2800    4.8010   -3.5380 hc        1 FEE      0.042700
    103 HAF        -5.7460    1.8140   -2.9050 hc        1 FEE      0.042700
    104 HAFA       -6.3750    3.0410   -1.7390 hc        1 FEE      0.042700
    105 HAE        -4.2950    4.4230   -2.0690 hc        1 FEE      0.047700
    106 HAEA       -3.6660    3.1980   -3.2380 hc        1 FEE      0.047700
    107 HAD        -4.3920    2.6610   -0.2720 hc        1 FEE      0.048200
    108 HADA       -3.7610    1.4350   -1.4410 hc        1 FEE      0.048200
    109 HAC        -1.6820    2.8330   -1.7750 hc        1 FEE      0.067700
    110 HACA       -2.3110    4.0470   -0.5930 hc        1 FEE      0.067700
    111 HAB        -1.7420    1.0430   -0.0090 hc        1 FEE      0.108200
    112 HABA       -2.4260    2.2370    1.1840 hc        1 FEE      0.108200
    113 H2          2.0560    1.7450    0.0830 hx        1 FEE      0.140700
    114 HO3         0.3580   -1.5700    0.7820 ho        1 FEE      0.459000
    115 HO4         3.4190   -0.2940   -2.1510 ho        1 FEE      0.437000
    116 H1AA        3.6370   -1.8090    2.4040 h2        1 FEE      0.106700
    117 H5M         0.9270   -0.6300    4.6720 h1        1 FEE      0.045700
    118 H6AA        1.3450   -0.9020    7.1570 h1        1 FEE      0.077200
    119 H6AB        2.9830   -1.6600    6.7890 h1        1 FEE      0.077200
    120 HO5A        3.5580    0.3390    5.9320 ho        1 FEE      0.412000
    121 H4A         0.1100   -2.7120    5.7380 h1        1 FEE      0.055700
    122 HO4A        1.6290   -4.5530    5.5010 ho        1 FEE      0.424000
    123 H3A        -0.1440   -2.4980    3.2660 h1        1 FEE      0.056700
    124 HO3A       -0.6140   -4.5710    4.1120 ho        1 FEE      0.423000
    125 H2A         2.6160   -3.9270    3.0710 h1        1 FEE      0.095700
    126 HO2A        1.1250   -4.1470    1.3260 ho        1 FEE      0.441000
    127 H22        -0.1810    0.9050    1.8650 hn        1 FEE      0.464800
@<TRIPOS>BOND
     1    1   33 1   
     2    1   35 1   
     3    1   50 1   
     4    1  127 1   
     5    2    3 1   
     6    2   35 1   
     7    2   36 1   
     8    2   51 1   
     9    3    4 1   
    10    3   37 1   
    11    3   52 1   
    12    4    5 1   
    13    4   53 1   
    14    4   54 1   
    15    5    6 1   
    16    5   55 1   
    17    5   56 1   
    18    6    7 1   
    19    6   57 1   
    20    6   58 1   
    21    7    8 1   
    22    7   59 1   
    23    7   60 1   
    24    8   61 1   
    25    8   62 1   
    26    8   63 1   
    27    9   35 1   
    28    9   38 1   
    29    9   64 1   
    30    9   65 1   
    31   10   11 1   
    32   10   66 1   
    33   10   67 1   
    34   10   68 1   
    35   11   12 1   
    36   11   69 1   
    37   11   70 1   
    38   12   13 1   
    39   12   71 1   
    40   12   72 1   
    41   13   14 1   
    42   13   73 1   
    43   13   74 1   
    44   14   15 1   
    45   14   75 1   
    46   14   76 1   
    47   15   16 1   
    48   15   77 1   
    49   15   78 1   
    50   16   17 1   
    51   16   79 1   
    52   16   80 1   
    53   17   18 1   
    54   17   81 1   
    55   17   82 1   
    56   18   19 1   
    57   18   83 1   
    58   18   84 1   
    59   19   20 1   
    60   19   85 1   
    61   19   86 1   
    62   20   21 1   
    63   20   87 1   
    64   20   88 1   
    65   21   22 1   
    66   21   89 1   
    67   21   90 1   
    68   22   23 1   
    69   22   91 1   
    70   22   92 1   
    71   23   24 1   
    72   23   93 1   
    73   23   94 1   
    74   24   25 1   
    75   24   95 1   
    76   24   96 1   
    77   25   26 1   
    78   25   97 1   
    79   25   98 1   
    80   26   27 1   
    81   26   99 1   
    82   26  100 1   
    83   27   28 1   
    84   27  101 1   
    85   27  102 1   
    86   28   29 1   
    87   28  103 1   
    88   28  104 1   
    89   29   30 1   
    90   29  105 1   
    91   29  106 1   
    92   30   31 1   
    93   30  107 1   
    94   30  108 1   
    95   31   32 1   
    96   31  109 1   
    97   31  110 1   
    98   32   33 1   
    99   32  111 1   
   100   32  112 1   
   101   33   34 2   
   102   35  113 1   
   103   36  114 1   
   104   37  115 1   
   105   38   39 1   
   106   39   40 1   
   107   39   48 1   
   108   39  116 1   
   109   40   41 1   
   110   41   42 1   
   111   41   44 1   
   112   41  117 1   
   113   42   43 1   
   114   42  118 1   
   115   42  119 1   
   116   43  120 1   
   117   44   45 1   
   118   44   46 1   
   119   44  121 1   
   120   45  122 1   
   121   46   47 1   
   122   46   48 1   
   123   46  123 1   
   124   47  124 1   
   125   48   49 1   
   126   48  125 1   
   127   49  126 1   
@<TRIPOS>SUBSTRUCTURE
     1 FEE         1 TEMP              0 ****  ****    0 ROOT
