@<TRIPOS>MOLECULE
FEE
  126   126     1     0     0
SMALL
bcc


@<TRIPOS>ATOM
      1 N2          6.1110   -0.1020    1.1160 n         1 FEE     -0.559900
      2 C3          7.7780    1.4910    0.1640 c3        1 FEE      0.089100
      3 C4          9.0080    2.3560    0.5040 c3        1 FEE      0.110100
      4 C5          9.1720    3.4540   -0.5420 c3        1 FEE     -0.111400
      5 C6         10.4930    4.1730   -0.3840 c3        1 FEE     -0.079400
      6 C7         10.6070    5.3300   -1.3530 c3        1 FEE     -0.079400
      7 C8         11.9370    6.0390   -1.2070 c3        1 FEE     -0.079400
      8 C9         12.0540    7.1960   -2.1660 c3        1 FEE     -0.093100
      9 C1          8.4610   -0.3120    1.8560 c3        1 FEE      0.130400
     10 CAX       -23.7740   -0.3650   -0.8370 c3        1 FEE     -0.092100
     11 CAW       -22.5530    0.4170   -0.4280 c3        1 FEE     -0.080400
     12 CAV       -21.2810   -0.3640   -0.6820 c3        1 FEE     -0.079400
     13 CAU       -20.0580    0.4260   -0.2700 c3        1 FEE     -0.079400
     14 CAT       -18.7870   -0.3550   -0.5240 c3        1 FEE     -0.079400
     15 CAS       -17.5640    0.4350   -0.1130 c3        1 FEE     -0.079400
     16 CAR       -16.2930   -0.3470   -0.3670 c3        1 FEE     -0.079400
     17 CAQ       -15.0690    0.4430    0.0450 c3        1 FEE     -0.079400
     18 CAP       -13.7990   -0.3390   -0.2090 c3        1 FEE     -0.079400
     19 CAO       -12.5750    0.4520    0.2030 c3        1 FEE     -0.079400
     20 CAN       -11.3040   -0.3300   -0.0520 c3        1 FEE     -0.079400
     21 CAM       -10.0810    0.4600    0.3600 c3        1 FEE     -0.079400
     22 CAL        -8.8100   -0.3220    0.1050 c3        1 FEE     -0.079400
     23 CAK        -7.5870    0.4680    0.5180 c3        1 FEE     -0.079400
     24 CAJ        -6.3160   -0.3130    0.2630 c3        1 FEE     -0.079400
     25 CAI        -5.0930    0.4770    0.6760 c3        1 FEE     -0.079400
     26 CAH        -3.8220   -0.3050    0.4200 c3        1 FEE     -0.078400
     27 CAG        -2.5980    0.4850    0.8340 c3        1 FEE     -0.079400
     28 CAF        -1.3270   -0.2960    0.5780 c3        1 FEE     -0.079400
     29 CAE        -0.1050    0.4940    0.9930 c3        1 FEE     -0.078400
     30 CAD         1.1670   -0.2870    0.7360 c3        1 FEE     -0.079400
     31 CAC         2.3860    0.5060    1.1540 c3        1 FEE     -0.072400
     32 CAB         3.6540   -0.2750    0.8880 c3        1 FEE     -0.149400
     33 CAA         4.8790    0.5070    1.3190 c         1 FEE      0.655100
     34 OAA         4.8020    1.6210    1.8770 o         1 FEE     -0.623100
     35 C2          7.3350    0.6180    1.3670 c3        1 FEE      0.049700
     36 O3          8.0170    0.7260   -1.0010 oh        1 FEE     -0.597800
     37 O4          8.9200    2.8840    1.8160 oh        1 FEE     -0.597800
     38 O1A         8.9300   -1.1720    0.8200 os        1 FEE     -0.484600
     39 C1A         8.6650   -2.5540    0.9840 c3        1 FEE      0.315900
     40 O6A         7.4070   -2.8040    0.4050 os        1 FEE     -0.435600
     41 C5M         7.3260   -2.6580   -1.0180 c3        1 FEE      0.097100
     42 C6A         5.9140   -3.1290   -1.3850 c3        1 FEE      0.139400
     43 O5A         4.9520   -2.5070   -0.5580 oh        1 FEE     -0.608800
     44 C4A         8.3940   -3.4610   -1.7690 c3        1 FEE      0.126100
     45 O4A         8.1280   -4.8430   -1.6080 oh        1 FEE     -0.596800
     46 C3A         9.7810   -3.0940   -1.2180 c3        1 FEE      0.078100
     47 O3A        10.7160   -3.9310   -1.8770 oh        1 FEE     -0.604800
     48 C2A         9.8140   -3.3190    0.3010 c3        1 FEE      0.087100
     49 O2A        11.0680   -2.9470    0.8300 oh        1 FEE     -0.590800
     50 HN2         6.1680   -0.8610    0.4720 hn        1 FEE      0.327500
     51 H3          6.9180    2.1650   -0.1240 h1        1 FEE      0.087700
     52 H4          9.9320    1.7100    0.5320 h1        1 FEE      0.071700
     53 H5          9.1020    2.9860   -1.5590 hc        1 FEE      0.055200
     54 H5A         8.3270    4.1860   -0.4480 hc        1 FEE      0.055200
     55 H6         10.5850    4.5470    0.6710 hc        1 FEE      0.045200
     56 H6A        11.3360    3.4540   -0.5540 hc        1 FEE      0.045200
     57 H7         10.4950    4.9530   -2.4040 hc        1 FEE      0.040200
     58 H7A         9.7730    6.0580   -1.1720 hc        1 FEE      0.040200
     59 H8         12.0490    6.4100   -0.1530 hc        1 FEE      0.038700
     60 H8A        12.7710    5.3110   -1.3900 hc        1 FEE      0.038700
     61 H9         11.9690    6.8430   -3.2220 hc        1 FEE      0.033367
     62 H9A        11.2470    7.9450   -1.9810 hc        1 FEE      0.033367
     63 H9B        13.0410    7.7030   -2.0420 hc        1 FEE      0.033367
     64 H1          9.3490    0.3240    2.1320 h1        1 FEE      0.065700
     65 H1A         8.1210   -0.8940    2.7510 h1        1 FEE      0.065700
     66 HAX       -23.8400   -1.3210   -0.2630 hc        1 FEE      0.032700
     67 HAXA      -24.6990    0.2280   -0.6420 hc        1 FEE      0.032700
     68 HAXB      -23.7370   -0.6140   -1.9260 hc        1 FEE      0.032700
     69 HAW       -22.5170    1.3840   -0.9970 hc        1 FEE      0.038700
     70 HAWA      -22.6200    0.6780    0.6610 hc        1 FEE      0.038700
     71 HAV       -21.3140   -1.3300   -0.1130 hc        1 FEE      0.039700
     72 HAVA      -21.2120   -0.6240   -1.7710 hc        1 FEE      0.039700
     73 HAU       -20.0250    1.3930   -0.8390 hc        1 FEE      0.039700
     74 HAUA      -20.1280    0.6870    0.8190 hc        1 FEE      0.039700
     75 HAT       -18.8200   -1.3220    0.0450 hc        1 FEE      0.039700
     76 HATA      -18.7170   -0.6160   -1.6140 hc        1 FEE      0.039700
     77 HAS       -17.5310    1.4010   -0.6820 hc        1 FEE      0.039700
     78 HASA      -17.6330    0.6950    0.9770 hc        1 FEE      0.039700
     79 HAR       -16.3260   -1.3130    0.2020 hc        1 FEE      0.039700
     80 HARA      -16.2230   -0.6080   -1.4560 hc        1 FEE      0.039700
     81 HAQ       -15.0370    1.4090   -0.5240 hc        1 FEE      0.039700
     82 HAQA      -15.1390    0.7040    1.1340 hc        1 FEE      0.039700
     83 HAP       -13.8310   -1.3050    0.3590 hc        1 FEE      0.039700
     84 HAPA      -13.7290   -0.5990   -1.2990 hc        1 FEE      0.039700
     85 HAO       -12.5430    1.4180   -0.3660 hc        1 FEE      0.039700
     86 HAOA      -12.6450    0.7120    1.2920 hc        1 FEE      0.039700
     87 HAN       -11.3370   -1.2970    0.5160 hc        1 FEE      0.039700
     88 HANA      -11.2350   -0.5900   -1.1410 hc        1 FEE      0.039700
     89 HAM       -10.0480    1.4270   -0.2080 hc        1 FEE      0.039700
     90 HAMA      -10.1500    0.7200    1.4490 hc        1 FEE      0.039700
     91 HAL        -8.8430   -1.2880    0.6730 hc        1 FEE      0.039700
     92 HALA       -8.7400   -0.5810   -0.9840 hc        1 FEE      0.039700
     93 HAK        -7.5540    1.4350   -0.0510 hc        1 FEE      0.039700
     94 HAKA       -7.6560    0.7280    1.6070 hc        1 FEE      0.039700
     95 HAJ        -6.3480   -1.2800    0.8310 hc        1 FEE      0.039700
     96 HAJA       -6.2460   -0.5720   -0.8270 hc        1 FEE      0.039700
     97 HAI        -5.0600    1.4440    0.1080 hc        1 FEE      0.039700
     98 HAIA       -5.1620    0.7360    1.7650 hc        1 FEE      0.039700
     99 HAH        -3.8540   -1.2720    0.9880 hc        1 FEE      0.039200
    100 HAHA       -3.7520   -0.5630   -0.6690 hc        1 FEE      0.039200
    101 HAG        -2.5660    1.4530    0.2660 hc        1 FEE      0.039700
    102 HAGA       -2.6680    0.7440    1.9230 hc        1 FEE      0.039700
    103 HAF        -1.3600   -1.2630    1.1450 hc        1 FEE      0.039200
    104 HAFA       -1.2570   -0.5540   -0.5110 hc        1 FEE      0.039200
    105 HAE        -0.0720    1.4620    0.4260 hc        1 FEE      0.041700
    106 HAEA       -0.1740    0.7520    2.0820 hc        1 FEE      0.041700
    107 HAD         1.1330   -1.2550    1.3020 hc        1 FEE      0.039200
    108 HADA        1.2380   -0.5430   -0.3540 hc        1 FEE      0.039200
    109 HAC         2.4230    1.4780    0.5960 hc        1 FEE      0.055700
    110 HACA        2.3250    0.7610    2.2450 hc        1 FEE      0.055700
    111 HAB         3.6320   -1.2500    1.4450 hc        1 FEE      0.073200
    112 HABA        3.7370   -0.5230   -0.2050 hc        1 FEE      0.073200
    113 H2          7.1390    1.3410    2.2220 h1        1 FEE      0.104700
    114 HO3         8.7860    0.1650   -0.8290 ho        1 FEE      0.409000
    115 HO4         8.1870    3.5130    1.8270 ho        1 FEE      0.409000
    116 H1AA        8.5550   -2.8530    2.0640 h2        1 FEE      0.096700
    117 H5M         7.4600   -1.5660   -1.2660 h1        1 FEE      0.079700
    118 H6AA        5.6690   -2.7990   -2.4280 h1        1 FEE      0.068700
    119 H6AB        5.8480   -4.2460   -1.3030 h1        1 FEE      0.068700
    120 HO5A        5.0690   -2.8640    0.3330 ho        1 FEE      0.416000
    121 H4A         8.3510   -3.2010   -2.8640 h1        1 FEE      0.061700
    122 HO4A        8.8820   -5.3140   -1.9910 ho        1 FEE      0.425000
    123 H3A        10.0120   -2.0160   -1.4470 h1        1 FEE      0.056700
    124 HO3A       11.5340   -3.8980   -1.3610 ho        1 FEE      0.426000
    125 H2A         9.7100   -4.4190    0.5250 h1        1 FEE      0.111700
    126 HO2A       11.1290   -1.9830    0.7820 ho        1 FEE      0.417000
@<TRIPOS>BOND
     1    1   33 1   
     2    1   35 1   
     3    1   50 1   
     4    2    3 1   
     5    2   35 1   
     6    2   36 1   
     7    2   51 1   
     8    3    4 1   
     9    3   37 1   
    10    3   52 1   
    11    4    5 1   
    12    4   53 1   
    13    4   54 1   
    14    5    6 1   
    15    5   55 1   
    16    5   56 1   
    17    6    7 1   
    18    6   57 1   
    19    6   58 1   
    20    7    8 1   
    21    7   59 1   
    22    7   60 1   
    23    8   61 1   
    24    8   62 1   
    25    8   63 1   
    26    9   35 1   
    27    9   38 1   
    28    9   64 1   
    29    9   65 1   
    30   10   11 1   
    31   10   66 1   
    32   10   67 1   
    33   10   68 1   
    34   11   12 1   
    35   11   69 1   
    36   11   70 1   
    37   12   13 1   
    38   12   71 1   
    39   12   72 1   
    40   13   14 1   
    41   13   73 1   
    42   13   74 1   
    43   14   15 1   
    44   14   75 1   
    45   14   76 1   
    46   15   16 1   
    47   15   77 1   
    48   15   78 1   
    49   16   17 1   
    50   16   79 1   
    51   16   80 1   
    52   17   18 1   
    53   17   81 1   
    54   17   82 1   
    55   18   19 1   
    56   18   83 1   
    57   18   84 1   
    58   19   20 1   
    59   19   85 1   
    60   19   86 1   
    61   20   21 1   
    62   20   87 1   
    63   20   88 1   
    64   21   22 1   
    65   21   89 1   
    66   21   90 1   
    67   22   23 1   
    68   22   91 1   
    69   22   92 1   
    70   23   24 1   
    71   23   93 1   
    72   23   94 1   
    73   24   25 1   
    74   24   95 1   
    75   24   96 1   
    76   25   26 1   
    77   25   97 1   
    78   25   98 1   
    79   26   27 1   
    80   26   99 1   
    81   26  100 1   
    82   27   28 1   
    83   27  101 1   
    84   27  102 1   
    85   28   29 1   
    86   28  103 1   
    87   28  104 1   
    88   29   30 1   
    89   29  105 1   
    90   29  106 1   
    91   30   31 1   
    92   30  107 1   
    93   30  108 1   
    94   31   32 1   
    95   31  109 1   
    96   31  110 1   
    97   32   33 1   
    98   32  111 1   
    99   32  112 1   
   100   33   34 2   
   101   35  113 1   
   102   36  114 1   
   103   37  115 1   
   104   38   39 1   
   105   39   40 1   
   106   39   48 1   
   107   39  116 1   
   108   40   41 1   
   109   41   42 1   
   110   41   44 1   
   111   41  117 1   
   112   42   43 1   
   113   42  118 1   
   114   42  119 1   
   115   43  120 1   
   116   44   45 1   
   117   44   46 1   
   118   44  121 1   
   119   45  122 1   
   120   46   47 1   
   121   46   48 1   
   122   46  123 1   
   123   47  124 1   
   124   48   49 1   
   125   48  125 1   
   126   49  126 1   
@<TRIPOS>SUBSTRUCTURE
     1 FEE         1 TEMP              0 ****  ****    0 ROOT
