@<TRIPOS>MOLECULE
FEF
   46    49     1     0     0
SMALL
bcc


@<TRIPOS>ATOM
      1 OAV        -0.2490   -0.4440   -0.0880 o         1 FEF     -0.650500
      2 CAT         0.9860   -0.3090   -0.1310 c         1 FEF      0.709700
      3 CAR         1.9840   -0.2630    1.0040 cc        1 FEF     -0.190400
      4 CAS         3.2920   -0.1400    0.3600 ca        1 FEF     -0.060800
      5 CAX         4.6010   -0.1430    0.8090 ca        1 FEF     -0.079000
      6 CAY         5.6530   -0.0140   -0.1100 ca        1 FEF     -0.169000
      7 CAZ         5.4150    0.1030   -1.4730 ca        1 FEF     -0.098000
      8 CBA         4.1090    0.0770   -1.9760 ca        1 FEF     -0.170000
      9 CAW         3.0620   -0.0510   -1.0690 ca        1 FEF      0.048600
     10 NAU         1.6870   -0.1300   -1.3350 n         1 FEF     -0.470100
     11 CAI         1.5690   -0.3030    2.3010 cd        1 FEF      0.068300
     12 CAG         2.3320   -0.0530    3.5870 cd        1 FEF      0.442200
     13 CAD         1.3260   -0.1490    4.6650 ca        1 FEF     -0.219900
     14 CAC         1.4210   -0.0060    6.0360 ca        1 FEF     -0.046000
     15 CAA         0.2590   -0.1560    6.8060 ca        1 FEF     -0.172000
     16 CAB        -0.9650   -0.4430    6.2060 ca        1 FEF     -0.082000
     17 CAF        -1.0870   -0.5950    4.8200 ca        1 FEF     -0.168000
     18 CAE         0.0660   -0.4490    4.0510 ca        1 FEF      0.028800
     19 NAH         0.2390   -0.5860    2.6650 na        1 FEF     -0.238400
     20 NAJ         3.6060    0.2220    3.6330 n2        1 FEF     -0.399200
     21 OAK         4.1100    0.4600    4.8250 os        1 FEF     -0.176300
     22 CAL         5.5450    0.6990    4.8280 c3        1 FEF      0.146400
     23 CAM         6.3110   -0.5910    4.6250 c3        1 FEF     -0.110400
     24 CAN         7.7970   -0.3680    4.8710 c3        1 FEF      0.146100
     25 OAQ         7.9540    0.0040    6.2330 oh        1 FEF     -0.605800
     26 CAO         8.5780   -1.6520    4.5690 c3        1 FEF      0.091400
     27 OAP         9.9390   -1.3590    4.8440 oh        1 FEF     -0.612800
     28 HAU         1.2880   -0.1600   -2.2360 hn        1 FEF      0.341500
     29 HAX         4.8520   -0.2570    1.8720 ha        1 FEF      0.153000
     30 HAY         6.6870   -0.0060    0.2650 ha        1 FEF      0.128000
     31 HAZ         6.2560    0.2100   -2.1730 ha        1 FEF      0.131000
     32 HBA         3.9240    0.1530   -3.0550 ha        1 FEF      0.138000
     33 HAC         2.3880    0.2230    6.5110 ha        1 FEF      0.154000
     34 HAA         0.3190   -0.0440    7.8980 ha        1 FEF      0.137000
     35 HAB        -1.8640   -0.5550    6.8320 ha        1 FEF      0.135000
     36 HAF        -2.0590   -0.8220    4.3620 ha        1 FEF      0.145000
     37 HAL1        5.7020    1.1020    5.8660 h1        1 FEF      0.075200
     38 HAL2        5.8200    1.4690    4.0640 h1        1 FEF      0.075200
     39 HAM1        5.9230   -1.3680    5.3330 hc        1 FEF      0.065200
     40 HAM2        6.1690   -0.9690    3.5800 hc        1 FEF      0.065200
     41 HAN         8.1870    0.4630    4.2170 h1        1 FEF      0.048700
     42 HAQ         8.9050    0.0190    6.4070 ho        1 FEF      0.422000
     43 HAO1        8.4550   -1.9390    3.4920 h1        1 FEF      0.038200
     44 HAO2        8.2200   -2.4880    5.2260 h1        1 FEF      0.038200
     45 HAP        10.4280   -2.1830    4.7480 ho        1 FEF      0.411000
     46 HN1        -0.5090   -0.5920    2.0090 hn        1 FEF      0.333700
@<TRIPOS>BOND
     1    1    2 2   
     2    2    3 1   
     3    2   10 1   
     4    3    4 1   
     5    3   11 2   
     6    4    5 ar  
     7    4    9 ar  
     8    5    6 ar  
     9    5   29 1   
    10    6    7 ar  
    11    6   30 1   
    12    7    8 ar  
    13    7   31 1   
    14    8    9 ar  
    15    8   32 1   
    16    9   10 1   
    17   10   28 1   
    18   11   12 1   
    19   11   19 1   
    20   12   13 1   
    21   12   20 2   
    22   13   14 ar  
    23   13   18 ar  
    24   14   15 ar  
    25   14   33 1   
    26   15   16 ar  
    27   15   34 1   
    28   16   17 ar  
    29   16   35 1   
    30   17   18 ar  
    31   17   36 1   
    32   18   19 1   
    33   19   46 1   
    34   20   21 1   
    35   21   22 1   
    36   22   23 1   
    37   22   37 1   
    38   22   38 1   
    39   23   24 1   
    40   23   39 1   
    41   23   40 1   
    42   24   25 1   
    43   24   26 1   
    44   24   41 1   
    45   25   42 1   
    46   26   27 1   
    47   26   43 1   
    48   26   44 1   
    49   27   45 1   
@<TRIPOS>SUBSTRUCTURE
     1 FEF         1 TEMP              0 ****  ****    0 ROOT
