@<TRIPOS>MOLECULE
FEF
   46    49     1     0     0
SMALL
bcc


@<TRIPOS>ATOM
      1 OAV        -0.2310   -0.3540   -0.1160 o         1 FEF     -0.650500
      2 CAT         1.0050   -0.2260   -0.1480 c         1 FEF      0.709700
      3 CAR         1.9960   -0.2140    0.9930 cc        1 FEF     -0.190400
      4 CAS         3.3100   -0.0860    0.3610 ca        1 FEF     -0.060800
      5 CAX         4.6150   -0.1100    0.8180 ca        1 FEF     -0.078000
      6 CAY         5.6740    0.0320   -0.0920 ca        1 FEF     -0.169000
      7 CAZ         5.4450    0.1840   -1.4530 ca        1 FEF     -0.098000
      8 CBA         4.1420    0.1800   -1.9640 ca        1 FEF     -0.170000
      9 CAW         3.0890    0.0390   -1.0670 ca        1 FEF      0.048600
     10 NAU         1.7140   -0.0230   -1.3440 ns        1 FEF     -0.470100
     11 CAI         1.5730   -0.2790    2.2870 cd        1 FEF      0.068300
     12 CAG         2.3290   -0.0600    3.5820 cd        1 FEF      0.442200
     13 CAD         1.3160   -0.1750    4.6520 ca        1 FEF     -0.219900
     14 CAC         1.4030   -0.0620    6.0260 ca        1 FEF     -0.046000
     15 CAA         0.2350   -0.2230    6.7850 ca        1 FEF     -0.172000
     16 CAB        -0.9860   -0.4910    6.1730 ca        1 FEF     -0.082000
     17 CAF        -1.1000   -0.6120    4.7820 ca        1 FEF     -0.168000
     18 CAE         0.0580   -0.4550    4.0240 ca        1 FEF      0.028800
     19 NAH         0.2390   -0.5630    2.6360 na        1 FEF     -0.238400
     20 NAJ         3.6040    0.2090    3.6410 n2        1 FEF     -0.399200
     21 OAK         4.1010    0.4200    4.8410 os        1 FEF     -0.176300
     22 CAL         5.5370    0.6560    4.8590 c3        1 FEF      0.146400
     23 CAM         6.3010   -0.6310    4.6340 c3        1 FEF     -0.110400
     24 CAN         7.7870   -0.4160    4.8930 c3        1 FEF      0.146100
     25 OAQ         7.9360   -0.0720    6.2630 oh        1 FEF     -0.605800
     26 CAO         8.5670   -1.6960    4.5710 c3        1 FEF      0.091400
     27 OAP         9.9260   -1.4100    4.8600 oh        1 FEF     -0.612800
     28 HAU         1.3210   -0.0300   -2.2470 hn        1 FEF      0.341500
     29 HAX         4.8590   -0.2520    1.8790 ha        1 FEF      0.153000
     30 HAY         6.7060    0.0220    0.2890 ha        1 FEF      0.128000
     31 HAZ         6.2920    0.3010   -2.1460 ha        1 FEF      0.131000
     32 HBA         3.9640    0.2840   -3.0430 ha        1 FEF      0.138000
     33 HAC         2.3680    0.1520    6.5120 ha        1 FEF      0.154000
     34 HAA         0.2890   -0.1340    7.8800 ha        1 FEF      0.137000
     35 HAB        -1.8900   -0.6110    6.7900 ha        1 FEF      0.135000
     36 HAF        -2.0700   -0.8240    4.3140 ha        1 FEF      0.145000
     37 HAL1        5.6870    1.0380    5.9050 h1        1 FEF      0.075200
     38 HAL2        5.8180    1.4410    4.1120 h1        1 FEF      0.075200
     39 HAM1        5.9080   -1.4220    5.3240 hc        1 FEF      0.065200
     40 HAM2        6.1650   -0.9880    3.5810 hc        1 FEF      0.065200
     41 HAN         8.1810    0.4270    4.2580 h1        1 FEF      0.048700
     42 HAQ         8.8860   -0.0610    6.4430 ho        1 FEF      0.422000
     43 HAO1        8.2030   -2.5440    5.2090 h1        1 FEF      0.038200
     44 HAO2        8.4500   -1.9610    3.4880 h1        1 FEF      0.038200
     45 HAP        10.4150   -2.2340    4.7500 ho        1 FEF      0.411000
     46 HN1        -0.5050   -0.5500    1.9760 hn        1 FEF      0.333700
@<TRIPOS>BOND
     1    1    2 2   
     2    2    3 1   
     3    2   10 1   
     4    3    4 1   
     5    3   11 2   
     6    4    5 ar  
     7    4    9 ar  
     8    5    6 ar  
     9    5   29 1   
    10    6    7 ar  
    11    6   30 1   
    12    7    8 ar  
    13    7   31 1   
    14    8    9 ar  
    15    8   32 1   
    16    9   10 1   
    17   10   28 1   
    18   11   12 1   
    19   11   19 1   
    20   12   13 1   
    21   12   20 2   
    22   13   14 ar  
    23   13   18 ar  
    24   14   15 ar  
    25   14   33 1   
    26   15   16 ar  
    27   15   34 1   
    28   16   17 ar  
    29   16   35 1   
    30   17   18 ar  
    31   17   36 1   
    32   18   19 1   
    33   19   46 1   
    34   20   21 1   
    35   21   22 1   
    36   22   23 1   
    37   22   37 1   
    38   22   38 1   
    39   23   24 1   
    40   23   39 1   
    41   23   40 1   
    42   24   25 1   
    43   24   26 1   
    44   24   41 1   
    45   25   42 1   
    46   26   27 1   
    47   26   43 1   
    48   26   44 1   
    49   27   45 1   
@<TRIPOS>SUBSTRUCTURE
     1 FEF         1 TEMP              0 ****  ****    0 ROOT
