@<TRIPOS>MOLECULE
FEF
   46    49     1     0     0
SMALL
bcc


@<TRIPOS>ATOM
      1 OAV        52.4170   58.9300   20.8240 o         1 FEF     -0.648500
      2 CAT        52.3420   60.1520   20.6090 c         1 FEF      0.709700
      3 CAR        52.4730   60.8980   19.3030 cc        1 FEF     -0.192400
      4 CAS        52.3880   62.3140   19.6570 ca        1 FEF     -0.062800
      5 CAX        52.5770   63.4970   18.9660 ca        1 FEF     -0.081000
      6 CAY        52.4270   64.7230   19.6330 ca        1 FEF     -0.167000
      7 CAZ        52.1200   64.7750   20.9860 ca        1 FEF     -0.101000
      8 CBA        51.9720   63.6020   21.7360 ca        1 FEF     -0.169000
      9 CAW        52.1160   62.3860   21.0790 ca        1 FEF      0.045600
     10 NAU        52.0530   61.0890   21.6180 n         1 FEF     -0.468100
     11 CAI        52.5860   60.2320   18.1210 cd        1 FEF      0.066300
     12 CAG        52.4280   60.7330   16.6990 cd        1 FEF      0.442200
     13 CAD        52.6060   59.5410   15.8440 ca        1 FEF     -0.220900
     14 CAC        52.5830   59.3730   14.4730 ca        1 FEF     -0.047000
     15 CAA        52.7770   58.0850   13.9540 ca        1 FEF     -0.172000
     16 CAB        52.9890   56.9970   14.7970 ca        1 FEF     -0.081000
     17 CAF        53.0200   57.1410   16.1890 ca        1 FEF     -0.167000
     18 CAE        52.8320   58.4200   16.7110 ca        1 FEF      0.029800
     19 NAH        52.8590   58.8540   18.0450 na        1 FEF     -0.237400
     20 NAJ        52.1230   61.9650   16.4000 n2        1 FEF     -0.397200
     21 OAK        51.9710   62.2340   15.1210 os        1 FEF     -0.182300
     22 CAL        51.6450   63.6240   14.8330 c3        1 FEF      0.145400
     23 CAM        50.2190   63.9630   15.2160 c3        1 FEF     -0.134400
     24 CAN        50.1500   64.7830   16.4990 c3        1 FEF      0.091100
     25 OAQ        50.7690   66.0490   16.3360 oh        1 FEF     -0.604800
     26 CAO        48.6950   64.9620   16.9570 c3        1 FEF      0.095400
     27 OAP        48.4140   66.3240   17.2090 oh        1 FEF     -0.601800
     28 HAU        52.0090   60.8870   22.5820 hn        1 FEF      0.340500
     29 HAX        52.8720   63.5130   17.9070 ha        1 FEF      0.154000
     30 HAY        52.5600   65.6550   19.0630 ha        1 FEF      0.139000
     31 HAZ        52.0020   65.7480   21.4870 ha        1 FEF      0.132000
     32 HBA        51.7560   63.6500   22.8120 ha        1 FEF      0.138000
     33 HAC        52.4130   60.2310   13.8060 ha        1 FEF      0.151000
     34 HAA        52.7600   57.9360   12.8640 ha        1 FEF      0.137000
     35 HAB        53.1370   55.9950   14.3650 ha        1 FEF      0.136000
     36 HAF        53.1900   56.2740   16.8410 ha        1 FEF      0.146000
     37 HAL1       52.3780   64.3130   15.3270 h1        1 FEF      0.073200
     38 HAL2       51.7850   63.6400   13.7180 h1        1 FEF      0.073200
     39 HAM1       49.7500   64.5490   14.3820 hc        1 FEF      0.063200
     40 HAM2       49.6260   63.0210   15.3500 hc        1 FEF      0.063200
     41 HAN        50.7620   64.2900   17.3110 h1        1 FEF      0.098700
     42 HAQ        50.2100   66.5710   15.7440 ho        1 FEF      0.410000
     43 HAO1       47.9680   64.6690   16.1530 h1        1 FEF      0.054700
     44 HAO2       48.5010   64.3460   17.8740 h1        1 FEF      0.054700
     45 HAP        49.0580   66.6350   17.8590 ho        1 FEF      0.412000
     46 HN1        52.7960   58.2490   18.8320 hn        1 FEF      0.334700
@<TRIPOS>BOND
     1    1    2 2   
     2    2    3 1   
     3    2   10 1   
     4    3    4 1   
     5    3   11 2   
     6    4    5 ar  
     7    4    9 ar  
     8    5    6 ar  
     9    5   29 1   
    10    6    7 ar  
    11    6   30 1   
    12    7    8 ar  
    13    7   31 1   
    14    8    9 ar  
    15    8   32 1   
    16    9   10 1   
    17   10   28 1   
    18   11   12 1   
    19   11   19 1   
    20   12   13 1   
    21   12   20 2   
    22   13   14 ar  
    23   13   18 ar  
    24   14   15 ar  
    25   14   33 1   
    26   15   16 ar  
    27   15   34 1   
    28   16   17 ar  
    29   16   35 1   
    30   17   18 ar  
    31   17   36 1   
    32   18   19 1   
    33   19   46 1   
    34   20   21 1   
    35   21   22 1   
    36   22   23 1   
    37   22   37 1   
    38   22   38 1   
    39   23   24 1   
    40   23   39 1   
    41   23   40 1   
    42   24   25 1   
    43   24   26 1   
    44   24   41 1   
    45   25   42 1   
    46   26   27 1   
    47   26   43 1   
    48   26   44 1   
    49   27   45 1   
@<TRIPOS>SUBSTRUCTURE
     1 FEF         1 TEMP              0 ****  ****    0 ROOT
