@<TRIPOS>MOLECULE
FEF
   46    49     1     0     0
SMALL
bcc


@<TRIPOS>ATOM
      1 OAV        -0.2400   -0.3920   -0.1030 o         1 FEF     -0.650500
      2 CAT         0.9960   -0.2610   -0.1400 c         1 FEF      0.709700
      3 CAR         1.9900   -0.2350    0.9980 cc        1 FEF     -0.190400
      4 CAS         3.3010   -0.1090    0.3610 ca        1 FEF     -0.060800
      5 CAX         4.6080   -0.1250    0.8140 ca        1 FEF     -0.078000
      6 CAY         5.6640    0.0120   -0.1000 ca        1 FEF     -0.169000
      7 CAZ         5.4300    0.1480   -1.4620 ca        1 FEF     -0.098000
      8 CBA         4.1260    0.1360   -1.9700 ca        1 FEF     -0.170000
      9 CAW         3.0760    0.0000   -1.0680 ca        1 FEF      0.048600
     10 NAU         1.7010   -0.0680   -1.3400 n         1 FEF     -0.470100
     11 CAI         1.5700   -0.2900    2.2930 cd        1 FEF      0.068300
     12 CAG         2.3310   -0.0570    3.5840 cd        1 FEF      0.442200
     13 CAD         1.3210   -0.1640    4.6590 ca        1 FEF     -0.219900
     14 CAC         1.4120   -0.0380    6.0320 ca        1 FEF     -0.046000
     15 CAA         0.2470   -0.1940    6.7960 ca        1 FEF     -0.172000
     16 CAB        -0.9760   -0.4700    6.1890 ca        1 FEF     -0.082000
     17 CAF        -1.0940   -0.6040    4.8000 ca        1 FEF     -0.168000
     18 CAE         0.0610   -0.4530    4.0370 ca        1 FEF      0.028800
     19 NAH         0.2390   -0.5730    2.6500 na        1 FEF     -0.238400
     20 NAJ         3.6050    0.2140    3.6380 n2        1 FEF     -0.399200
     21 OAK         4.1060    0.4360    4.8340 os        1 FEF     -0.176300
     22 CAL         5.5410    0.6750    4.8450 c3        1 FEF      0.146400
     23 CAM         6.3060   -0.6140    4.6290 c3        1 FEF     -0.110400
     24 CAN         7.7920   -0.3950    4.8820 c3        1 FEF      0.146100
     25 OAQ         7.9450   -0.0390    6.2480 oh        1 FEF     -0.605800
     26 CAO         8.5720   -1.6770    4.5690 c3        1 FEF      0.091400
     27 OAP         9.9330   -1.3880    4.8510 oh        1 FEF     -0.612800
     28 HAU         1.3050   -0.0850   -2.2420 hn        1 FEF      0.341500
     29 HAX         4.8560   -0.2550    1.8750 ha        1 FEF      0.153000
     30 HAY         6.6970    0.0090    0.2780 ha        1 FEF      0.128000
     31 HAZ         6.2740    0.2610   -2.1590 ha        1 FEF      0.131000
     32 HBA         3.9440    0.2280   -3.0490 ha        1 FEF      0.138000
     33 HAC         2.3770    0.1830    6.5120 ha        1 FEF      0.154000
     34 HAA         0.3040   -0.0950    7.8890 ha        1 FEF      0.137000
     35 HAB        -1.8770   -0.5870    6.8110 ha        1 FEF      0.135000
     36 HAF        -2.0650   -0.8230    4.3360 ha        1 FEF      0.145000
     37 HAL1        5.8190    1.4530    4.0900 h1        1 FEF      0.075200
     38 HAL2        5.6940    1.0650    5.8880 h1        1 FEF      0.075200
     39 HAM1        6.1670   -0.9800    3.5800 hc        1 FEF      0.065200
     40 HAM2        5.9160   -1.3990    5.3280 hc        1 FEF      0.065200
     41 HAN         8.1840    0.4430    4.2390 h1        1 FEF      0.048700
     42 HAQ         8.8960   -0.0260    6.4260 ho        1 FEF      0.422000
     43 HAO1        8.4520   -1.9520    3.4880 h1        1 FEF      0.038200
     44 HAO2        8.2120   -2.5200    5.2160 h1        1 FEF      0.038200
     45 HAP        10.4210   -2.2120    4.7480 ho        1 FEF      0.411000
     46 HN1        -0.5070   -0.5680    1.9920 hn        1 FEF      0.333700
@<TRIPOS>BOND
     1    1    2 2   
     2    2    3 1   
     3    2   10 1   
     4    3    4 1   
     5    3   11 2   
     6    4    5 ar  
     7    4    9 ar  
     8    5    6 ar  
     9    5   29 1   
    10    6    7 ar  
    11    6   30 1   
    12    7    8 ar  
    13    7   31 1   
    14    8    9 ar  
    15    8   32 1   
    16    9   10 1   
    17   10   28 1   
    18   11   12 1   
    19   11   19 1   
    20   12   13 1   
    21   12   20 2   
    22   13   14 ar  
    23   13   18 ar  
    24   14   15 ar  
    25   14   33 1   
    26   15   16 ar  
    27   15   34 1   
    28   16   17 ar  
    29   16   35 1   
    30   17   18 ar  
    31   17   36 1   
    32   18   19 1   
    33   19   46 1   
    34   20   21 1   
    35   21   22 1   
    36   22   23 1   
    37   22   37 1   
    38   22   38 1   
    39   23   24 1   
    40   23   39 1   
    41   23   40 1   
    42   24   25 1   
    43   24   26 1   
    44   24   41 1   
    45   25   42 1   
    46   26   27 1   
    47   26   43 1   
    48   26   44 1   
    49   27   45 1   
@<TRIPOS>SUBSTRUCTURE
     1 FEF         1 TEMP              0 ****  ****    0 ROOT
