@<TRIPOS>MOLECULE
FEF
   46    42     1     0     0
SMALL
bcc


@<TRIPOS>ATOM
      1 OAV        -2.6490   -0.0540   -2.3570 o         1 FEF     -0.321000
      2 CAT        -1.6240   -0.7310   -2.4190 c1        1 FEF      0.365000
      3 CAR        -0.9960   -1.4220   -1.3170 c1        1 FEF     -0.165000
      4 CAS         0.1370   -2.2010   -1.8560 c2        1 FEF     -0.085000
      5 CAX         1.0560   -3.0320   -1.2460 c2        1 FEF     -0.088000
      6 CAY         2.0570   -3.6670   -2.0150 c1        1 FEF     -0.167000
      7 CAZ         2.1170   -3.4560   -3.3840 c1        1 FEF     -0.128500
      8 CBA         1.1960   -2.6210   -4.0010 c1        1 FEF     -0.128500
      9 CAW         0.1970   -1.9880   -3.2340 c1        1 FEF      0.073000
     10 NAU        -0.9120   -1.0650   -3.6080 n3        1 FEF     -0.341000
     11 CAI        -1.4290   -1.4350   -0.0410 c1        1 FEF      0.158000
     12 CAG        -1.1150   -0.4530    0.9710 c1        1 FEF     -0.041000
     13 CAD        -1.8350   -0.8380    2.2200 c2        1 FEF     -0.113000
     14 CAC        -1.8240   -0.2900    3.5220 c2        1 FEF     -0.055000
     15 CAA        -2.5230   -0.9180    4.5460 c1        1 FEF     -0.159000
     16 CAB        -3.2520   -2.1150    4.2830 c1        1 FEF     -0.128500
     17 CAF        -3.2630   -2.6580    2.9920 c1        1 FEF     -0.128500
     18 CAE        -2.5570   -2.0240    1.9580 c1        1 FEF      0.038000
     19 NAH        -2.3150   -2.4090    0.5420 n3        1 FEF     -0.234000
     20 NAJ        -0.3920    0.6660    0.7880 n1        1 FEF      0.037000
     21 OAK        -0.1670    1.5220    1.8410 o         1 FEF     -0.205000
     22 CAL         0.2070    2.8080    1.3430 c3        1 FEF     -0.003000
     23 CAM         1.6300    2.7830    0.9210 c3        1 FEF     -0.193000
     24 CAN         1.9410    4.0280    0.1720 c3        1 FEF      0.038000
     25 OAQ         2.8040    4.8070    0.9180 oh        1 FEF     -0.329000
     26 CAO         2.6130    3.6650   -1.2010 c3        1 FEF     -0.062000
     27 OAP         2.2140    4.5920   -2.1850 oh        1 FEF     -0.343000
     28 HAU        -1.0240   -0.6840   -4.4030 hn        1 FEF      0.253000
     29 HAX         1.0130   -3.1790   -0.2950 ha        1 FEF      0.135000
     30 HAY         2.7240   -4.2710   -1.5730 ha        1 FEF      0.133000
     31 HAZ         2.8540   -3.9240   -3.9460 ha        1 FEF      0.137250
     32 HBA         1.2370   -2.4810   -4.9190 ha        1 FEF      0.137250
     33 HAC        -1.3200    0.5390    3.7050 ha        1 FEF      0.154000
     34 HAA        -2.5140   -0.5130    5.5070 ha        1 FEF      0.138000
     35 HAB        -3.7430   -2.5540    5.0010 ha        1 FEF      0.137250
     36 HAF        -3.7670   -3.4850    2.8100 ha        1 FEF      0.137250
     37 HAL1        0.0860    3.4810    2.0490 h1        1 FEF      0.107500
     38 HAL2       -0.3670    3.0430    0.5580 h1        1 FEF      0.107500
     39 HAM1        2.2020    2.7260    1.7080 hc        1 FEF      0.115000
     40 HAM2        1.7920    1.9790    0.3240 hc        1 FEF      0.115000
     41 HAN         1.1180    4.5210    0.0080 h1        1 FEF      0.083000
     42 HAQ         2.6690    5.6430    0.7340 ho        1 FEF      0.217000
     43 HAO1        3.5770    3.6930   -1.1060 h1        1 FEF      0.081000
     44 HAO2        2.3520    2.8090   -1.4570 h1        1 FEF      0.081000
     45 HAP         2.4430    4.2880   -2.9880 ho        1 FEF      0.208000
     46 HN1        -2.6480   -3.1250    0.1320 hn        1 FEF      0.233000
@<TRIPOS>BOND
     1    1    2 1   
     2    2   10 1   
     3    3    4 1   
     4    3   11 1   
     5    4    5 1   
     6    4    9 1   
     7    5    6 1   
     8    5   29 1   
     9    6   30 1   
    10    7    8 1   
    11    7   31 1   
    12    8   32 1   
    13    9   10 1   
    14   10   28 1   
    15   11   19 1   
    16   12   13 1   
    17   12   20 1   
    18   13   14 1   
    19   13   18 1   
    20   14   15 1   
    21   14   33 1   
    22   15   34 1   
    23   16   17 1   
    24   16   35 1   
    25   17   36 1   
    26   18   19 1   
    27   19   46 1   
    28   21   22 1   
    29   22   23 1   
    30   22   37 1   
    31   22   38 1   
    32   23   24 1   
    33   23   39 1   
    34   23   40 1   
    35   24   25 1   
    36   24   26 1   
    37   24   41 1   
    38   25   42 1   
    39   26   27 1   
    40   26   43 1   
    41   26   44 1   
    42   27   45 1   
@<TRIPOS>SUBSTRUCTURE
     1 FEF         1 TEMP              0 ****  ****    0 ROOT
