@<TRIPOS>MOLECULE
FEG
   59    62     1     0     0
SMALL
bcc


@<TRIPOS>ATOM
      1 N1          0.0000    0.0000    0.0000 nb        1 FEG     -0.692000
      2 C2          1.3240    0.0000    0.0000 ca        1 FEG      0.606600
      3 O2          1.9950   -0.0000   -1.1790 oh        1 FEG     -0.624300
      4 C3          2.0320    0.0000    1.1930 ca        1 FEG     -0.287600
      5 C3M         3.5390    0.0020    1.1860 c3        1 FEG      0.089200
      6 C4          1.3320    0.0000    2.3930 ca        1 FEG      0.289100
      7 C5         -0.0620   -0.0000    2.3470 ca        1 FEG     -0.246600
      8 C5M        -0.8670   -0.0010    3.6200 c3        1 FEG      0.068200
      9 C6         -0.6950    0.0000    1.1230 ca        1 FEG      0.473600
     10 C7         -2.2010   -0.0000    1.0630 c3        1 FEG     -0.179700
     11 C8         -2.7020   -1.4220    1.0440 c         1 FEG      0.989600
     12 O28        -4.0220   -1.6670    0.9930 o         1 FEG     -0.848800
     13 O18        -1.9180   -2.3390    1.0750 o         1 FEG     -0.848800
     14 O3P         1.9880    0.0000    3.5810 os        1 FEG     -0.372500
     15 P1          2.3050    1.4710    4.1540 p5        1 FEG      0.914800
     16 O1P         0.9230    2.2220    4.4970 o         1 FEG     -0.649500
     17 O2P         3.0480    2.2470    3.1380 o         1 FEG     -0.649500
     18 O5S         3.1940    1.3460    5.4900 os        1 FEG     -0.500200
     19 C5S         3.7270    2.4800    6.1790 c3        1 FEG      0.316400
     20 C4S         4.5170    2.0070    7.4010 c3        1 FEG      0.147100
     21 C3S         4.9980    3.2190    8.2310 c3        1 FEG      0.134100
     22 O3S         4.1230    3.4470    9.3380 oh        1 FEG     -0.553800
     23 C2S         6.4010    2.8010    8.7280 c3        1 FEG      0.118100
     24 O2S         6.4340    2.7580   10.1550 oh        1 FEG     -0.560800
     25 C1S         6.6010    1.3880    8.1390 c3        1 FEG      0.113800
     26 O4S         5.7300    1.3400    6.9880 os        1 FEG     -0.363600
     27 N9A         7.9960    1.1990    7.7300 na        1 FEG      0.338100
     28 C8A         8.5030    1.3890    6.4770 cc        1 FEG      0.329400
     29 N7A         9.7780    1.1300    6.4730 nd        1 FEG     -0.522000
     30 C5A        10.1640    0.7610    7.7180 cd        1 FEG      0.247800
     31 C4A         9.0290    0.8070    8.5360 cc        1 FEG     -0.224200
     32 C6A        11.3980    0.3750    8.2930 c         1 FEG      0.536000
     33 O6A        12.4130    0.3270    7.6190 o         1 FEG     -0.610500
     34 N1A        11.4240    0.0630    9.6080 ns        1 FEG     -0.013400
     35 C2A        10.2840    0.1210   10.3510 cd        1 FEG     -0.107200
     36 N3A         9.1330    0.4890    9.8320 nc        1 FEG     -0.341100
     37 N2A        10.3400   -0.2020   11.6840 nz        1 FEG      0.251400
     38 H3M         3.8980    1.0100    1.0220 hc        1 FEG      0.000367
     39 H3MA        3.9050   -0.3620    2.1390 hc        1 FEG      0.000367
     40 H3MB        3.8970   -0.6430    0.3920 hc        1 FEG      0.000367
     41 H5M        -1.3330    0.9680    3.7540 hc        1 FEG      0.013033
     42 H5MA       -1.6330   -0.7650    3.5630 hc        1 FEG      0.013033
     43 H5MB       -0.2140   -0.2060    4.4600 hc        1 FEG      0.013033
     44 H7         -2.5970    0.5100    1.9330 hc        1 FEG      0.024700
     45 H7A        -2.5270    0.5100    0.1650 hc        1 FEG      0.024700
     46 H5S         4.3830    3.0300    5.5160 h1        1 FEG     -0.003300
     47 H5SA        2.9150    3.1220    6.5000 h1        1 FEG     -0.003300
     48 H4S         3.9160    1.3470    8.0150 h1        1 FEG      0.051700
     49 H3S         5.0670    4.1010    7.6060 h1        1 FEG      0.026700
     50 HO3S        3.8640    4.3530    9.3520 ho        1 FEG      0.390000
     51 H2S         7.1540    3.4790    8.3450 h1        1 FEG      0.009700
     52 HO2S        6.8470    3.5400   10.4830 ho        1 FEG      0.385000
     53 H8A         7.9290    1.7070    5.6150 h5        1 FEG      0.069100
     54 HN1A       12.2840   -0.2210   10.0350 hn        1 FEG      0.171500
     55 HN2A       10.8870    0.4810   12.1700 hn        1 FEG      0.195800
     56 HN2B       10.7600   -1.1040   11.7910 hn        1 FEG      0.195800
     57 H23         6.3090    0.6360    8.8620 h2        1 FEG      0.062700
     58 H25         1.4120   -0.2620   -1.8720 ho        1 FEG      0.397000
     59 H2A3        9.4140   -0.2180   12.0630 hn        1 FEG      0.195800
@<TRIPOS>BOND
     1    1    2 ar  
     2    1    9 ar  
     3    2    3 1   
     4    2    4 ar  
     5    3   58 1   
     6    4    5 1   
     7    4    6 ar  
     8    5   38 1   
     9    5   39 1   
    10    5   40 1   
    11    6    7 ar  
    12    6   14 1   
    13    7    8 1   
    14    7    9 ar  
    15    8   41 1   
    16    8   42 1   
    17    8   43 1   
    18    9   10 1   
    19   10   11 1   
    20   10   44 1   
    21   10   45 1   
    22   11   12 1   
    23   11   13 1   
    24   14   15 1   
    25   15   16 1   
    26   15   17 1   
    27   15   18 1   
    28   18   19 1   
    29   19   20 1   
    30   19   46 1   
    31   19   47 1   
    32   20   21 1   
    33   20   26 1   
    34   20   48 1   
    35   21   22 1   
    36   21   23 1   
    37   21   49 1   
    38   22   50 1   
    39   23   24 1   
    40   23   25 1   
    41   23   51 1   
    42   24   52 1   
    43   25   26 1   
    44   25   27 1   
    45   25   57 1   
    46   27   28 1   
    47   27   31 1   
    48   28   29 2   
    49   28   53 1   
    50   29   30 1   
    51   30   31 2   
    52   30   32 1   
    53   31   36 1   
    54   32   33 2   
    55   32   34 1   
    56   34   35 1   
    57   34   54 1   
    58   35   36 2   
    59   35   37 1   
    60   37   55 1   
    61   37   56 1   
    62   37   59 1   
@<TRIPOS>SUBSTRUCTURE
     1 FEG         1 TEMP              0 ****  ****    0 ROOT
