@<TRIPOS>MOLECULE
FEG
   58    61     1     0     0
SMALL
bcc


@<TRIPOS>ATOM
      1 N1          6.4770   -1.1720    0.7430 nb        1 FEG     -0.765000
      2 C2          5.4220   -1.8660    0.2550 ca        1 FEG      0.610600
      3 O2          5.5870   -3.2300    0.0500 oh        1 FEG     -0.650300
      4 C3          4.1560   -1.3260   -0.0620 ca        1 FEG     -0.267600
      5 C3M         3.0780   -2.1750   -0.6030 c3        1 FEG     -0.021800
      6 C4          4.0010    0.0630    0.1660 ca        1 FEG      0.251100
      7 C5          5.1120    0.8330    0.5840 ca        1 FEG     -0.243600
      8 C5M         5.0240    2.3070    0.6750 c3        1 FEG     -0.064800
      9 C6          6.3290    0.1660    0.8960 ca        1 FEG      0.508600
     10 C7          7.4870    0.9330    1.4610 c3        1 FEG     -0.259700
     11 C8          8.4120    1.5650    0.3930 c         1 FEG      0.920600
     12 O28         8.1810    2.7590    0.0420 o         1 FEG     -0.845300
     13 O18         9.3960    0.8930   -0.0230 o         1 FEG     -0.845300
     14 O3P         2.8330    0.6750   -0.1600 os        1 FEG     -0.492500
     15 P1          1.5440    0.8490    0.8550 p5        1 FEG      1.467800
     16 O1P         1.8700    0.6040    2.2630 o         1 FEG     -0.832000
     17 O2P         0.7550    1.9940    0.3430 o         1 FEG     -0.832000
     18 O5S         0.6600   -0.4510    0.2890 os        1 FEG     -0.563200
     19 C5S        -0.7120   -0.3790    0.4680 c3        1 FEG      0.206400
     20 C4S        -1.4170    0.1190   -0.8090 c3        1 FEG      0.062100
     21 C3S        -1.8250    1.6060   -0.7530 c3        1 FEG      0.119100
     22 O3S        -1.1350    2.3530   -1.7280 oh        1 FEG     -0.643800
     23 C2S        -3.3310    1.6400   -1.0890 c3        1 FEG      0.111100
     24 O2S        -3.6490    2.1710   -2.3540 oh        1 FEG     -0.597800
     25 C1S        -3.7730    0.1370   -1.0570 c3        1 FEG      0.211800
     26 O4S        -2.6030   -0.6710   -1.0350 os        1 FEG     -0.418600
     27 N9A        -4.6200   -0.2010    0.0770 na        1 FEG     -0.192900
     28 C8A        -4.2210   -0.5530    1.3860 cc        1 FEG      0.429400
     29 N7A        -5.2550   -0.8570    2.1970 nd        1 FEG     -0.612000
     30 C5A        -6.3890   -0.7150    1.3970 cd        1 FEG      0.187800
     31 C4A        -6.0120   -0.3120    0.0620 cc        1 FEG      0.083800
     32 C6A        -7.7910   -0.8960    1.7090 c         1 FEG      0.648000
     33 O6A        -8.3120   -1.2280    2.7870 o         1 FEG     -0.626500
     34 N1A        -8.6630   -0.6650    0.6120 n         1 FEG     -0.502400
     35 C2A        -8.1970   -0.2590   -0.6550 cd        1 FEG      0.627800
     36 N3A        -6.9020   -0.1010   -0.9800 nc        1 FEG     -0.633100
     37 N2A        -9.2020    0.0440   -1.6310 nh        1 FEG     -0.872800
     38 H3M         2.3760   -2.4880    0.2110 hc        1 FEG      0.037367
     39 H3MA        2.4850   -1.6150   -1.3690 hc        1 FEG      0.037367
     40 H3MB        3.5000   -3.0960   -1.0770 hc        1 FEG      0.037367
     41 H5M         4.7250    2.6150    1.7080 hc        1 FEG      0.055367
     42 H5MA        6.0180    2.7740    0.4310 hc        1 FEG      0.055367
     43 H5MB        4.2700    2.7040   -0.0480 hc        1 FEG      0.055367
     44 H7          7.0870    1.7540    2.1110 hc        1 FEG      0.042200
     45 H7A         8.1260    0.2630    2.0940 hc        1 FEG      0.042200
     46 H5S        -1.0850   -1.4200    0.6910 h1        1 FEG      0.022200
     47 H5SA       -0.9570    0.2960    1.3350 h1        1 FEG      0.022200
     48 H4S        -0.7570   -0.0760   -1.7000 h1        1 FEG      0.099700
     49 H3S        -1.6390    2.0400    0.2670 h1        1 FEG      0.097700
     50 HO3S       -0.2570    2.5560   -1.3490 ho        1 FEG      0.491000
     51 H2S        -3.9010    2.2660   -0.3530 h1        1 FEG      0.082700
     52 HO2S       -2.8660    2.1000   -2.9190 ho        1 FEG      0.432000
     53 H8A        -3.1550   -0.5770    1.6590 h5        1 FEG      0.090100
     54 HN1A       -9.6420   -0.7050    0.7890 hn        1 FEG      0.327500
     55 HN2A       -9.8030   -0.7370   -1.8020 hn        1 FEG      0.395300
     56 HN2B       -8.8070    0.3940   -2.4820 hn        1 FEG      0.395300
     57 H23        -4.3360   -0.1320   -2.0000 h2        1 FEG      0.102700
     58 H25         6.5090   -3.4540    0.2460 ho        1 FEG      0.419000
@<TRIPOS>BOND
     1    1    2 ar  
     2    1    9 ar  
     3    2    3 1   
     4    2    4 ar  
     5    3   58 1   
     6    4    5 1   
     7    4    6 ar  
     8    5   38 1   
     9    5   39 1   
    10    5   40 1   
    11    6    7 ar  
    12    6   14 1   
    13    7    8 1   
    14    7    9 ar  
    15    8   41 1   
    16    8   42 1   
    17    8   43 1   
    18    9   10 1   
    19   10   11 1   
    20   10   44 1   
    21   10   45 1   
    22   11   12 1   
    23   11   13 1   
    24   14   15 1   
    25   15   16 1   
    26   15   17 1   
    27   15   18 1   
    28   18   19 1   
    29   19   20 1   
    30   19   46 1   
    31   19   47 1   
    32   20   21 1   
    33   20   26 1   
    34   20   48 1   
    35   21   22 1   
    36   21   23 1   
    37   21   49 1   
    38   22   50 1   
    39   23   24 1   
    40   23   25 1   
    41   23   51 1   
    42   24   52 1   
    43   25   26 1   
    44   25   27 1   
    45   25   57 1   
    46   27   28 1   
    47   27   31 1   
    48   28   29 2   
    49   28   53 1   
    50   29   30 1   
    51   30   31 2   
    52   30   32 1   
    53   31   36 1   
    54   32   33 2   
    55   32   34 1   
    56   34   35 1   
    57   34   54 1   
    58   35   36 2   
    59   35   37 1   
    60   37   55 1   
    61   37   56 1   
@<TRIPOS>SUBSTRUCTURE
     1 FEG         1 TEMP              0 ****  ****    0 ROOT
