@<TRIPOS>MOLECULE
FEH
   20    20     1     0     0
SMALL
bcc


@<TRIPOS>ATOM
      1 C4          0.0730    0.2060   -0.0590 ca        1 FEH     -0.112500
      2 C5          1.4660    0.1550   -0.0290 ca        1 FEH     -0.134000
      3 C6          2.1350   -0.0580    1.1750 ca        1 FEH     -0.126000
      4 C7          1.4080   -0.2180    2.3550 ca        1 FEH     -0.134000
      5 C8          0.0160   -0.1640    2.3310 ca        1 FEH     -0.112500
      6 C2         -0.6580    0.0440    1.1220 ca        1 FEH     -0.092300
      7 C1         -2.1560    0.0970    1.1280 c3        1 FEH      0.192400
      8 O1         -2.6090    0.6540   -0.0990 oh        1 FEH     -0.600800
      9 C3         -2.7370   -1.3140    1.3130 c3        1 FEH      0.092400
     10 O2         -4.1460   -1.1520    1.3680 oh        1 FEH     -0.615800
     11 H1         -0.4600    0.3830   -1.0070 ha        1 FEH      0.142000
     12 H2          2.0370    0.2860   -0.9610 ha        1 FEH      0.132000
     13 H3          3.2340   -0.0990    1.1960 ha        1 FEH      0.131000
     14 H4          1.9330   -0.3830    3.3070 ha        1 FEH      0.132000
     15 H5         -0.5560   -0.2830    3.2640 ha        1 FEH      0.142000
     16 H6         -2.5110    0.7510    1.9770 h1        1 FEH      0.054700
     17 H7         -3.5740    0.5920   -0.0800 ho        1 FEH      0.420000
     18 H8         -2.3610   -1.7640    2.2690 h1        1 FEH      0.039700
     19 H9         -2.4540   -1.9680    0.4480 h1        1 FEH      0.039700
     20 H10        -4.5280   -2.0360    1.3840 ho        1 FEH      0.409000
@<TRIPOS>BOND
     1    1    2 ar  
     2    1    6 ar  
     3    1   11 1   
     4    2    3 ar  
     5    2   12 1   
     6    3    4 ar  
     7    3   13 1   
     8    4    5 ar  
     9    4   14 1   
    10    5    6 ar  
    11    5   15 1   
    12    6    7 1   
    13    7    8 1   
    14    7    9 1   
    15    7   16 1   
    16    8   17 1   
    17    9   10 1   
    18    9   18 1   
    19    9   19 1   
    20   10   20 1   
@<TRIPOS>SUBSTRUCTURE
     1 FEH         1 TEMP              0 ****  ****    0 ROOT
