@<TRIPOS>MOLECULE
FEH
   20    20     1     0     0
SMALL
bcc


@<TRIPOS>ATOM
      1 C4         -0.0670    0.0590   -0.0050 ca        1 FEH     -0.117500
      2 C5          1.3230    0.1530   -0.0320 ca        1 FEH     -0.130000
      3 C6          2.0480    0.1330    1.1600 ca        1 FEH     -0.123000
      4 C7          1.3800    0.0200    2.3790 ca        1 FEH     -0.130000
      5 C8         -0.0110   -0.0710    2.4090 ca        1 FEH     -0.117500
      6 C2         -0.7410   -0.0520    1.2150 ca        1 FEH     -0.130300
      7 C1         -2.2350   -0.1590    1.2590 c3        1 FEH      0.144400
      8 O1         -2.8590    0.4480    0.1330 oh        1 FEH     -0.609800
      9 C3         -2.6860   -1.6280    1.2320 c3        1 FEH      0.142400
     10 O2         -4.0820   -1.7280    1.4080 oh        1 FEH     -0.599800
     11 H1         -0.6450    0.0690   -0.9430 ha        1 FEH      0.139500
     12 H2          1.8480    0.2400   -0.9940 ha        1 FEH      0.134000
     13 H3          3.1460    0.2050    1.1390 ha        1 FEH      0.133000
     14 H4          1.9500    0.0030    3.3200 ha        1 FEH      0.134000
     15 H5         -0.5360   -0.1590    3.3720 ha        1 FEH      0.139500
     16 H6         -2.6270    0.3330    2.1960 h1        1 FEH      0.053700
     17 H7         -2.5490    1.3600    0.0950 ho        1 FEH      0.411000
     18 H8         -2.3770   -2.1010    0.2630 h1        1 FEH      0.056200
     19 H9         -2.2360   -2.1810    2.0970 h1        1 FEH      0.056200
     20 H10        -4.4940   -1.2120    0.7030 ho        1 FEH      0.415000
@<TRIPOS>BOND
     1    1    2 ar  
     2    1    6 ar  
     3    1   11 1   
     4    2    3 ar  
     5    2   12 1   
     6    3    4 ar  
     7    3   13 1   
     8    4    5 ar  
     9    4   14 1   
    10    5    6 ar  
    11    5   15 1   
    12    6    7 1   
    13    7    8 1   
    14    7    9 1   
    15    7   16 1   
    16    8   17 1   
    17    9   10 1   
    18    9   18 1   
    19    9   19 1   
    20   10   20 1   
@<TRIPOS>SUBSTRUCTURE
     1 FEH         1 TEMP              0 ****  ****    0 ROOT
