@<TRIPOS>MOLECULE
FEN
   62    56     1     0     0
SMALL
bcc


@<TRIPOS>ATOM
      1 C1          4.5320    0.3290   -2.1070 c3        1 FEN     -0.009000
      2 C2          5.7710   -0.1640   -1.1490 c3        1 FEN     -0.150000
      3 C3          5.6260    0.0180    0.0310 c3        1 FEN     -0.155000
      4 C4          4.2930   -0.6630    0.7050 c3        1 FEN     -0.127000
      5 C5          3.1110   -0.3370   -0.0210 c2        1 FEN     -0.083000
      6 C6          3.2880   -0.1720   -1.6690 c2        1 FEN     -0.088000
      7 C7          2.4260   -1.0070   -2.6230 c2        1 FEN     -0.099000
      8 C8          1.1200   -0.6150   -2.9010 c1        1 FEN     -0.146000
      9 C9          0.5490    0.6420   -2.2540 c1        1 FEN     -0.015500
     10 C10        -0.5420    0.5390   -1.3270 c1        1 FEN     -0.201500
     11 C11        -1.1480   -0.8630   -0.9830 c1        1 FEN     -0.149250
     12 C12        -2.5530   -1.0390   -0.9430 c1        1 FEN     -0.149250
     13 C13        -3.4590    0.1110   -1.2280 c1        1 FEN     -0.015500
     14 C14        -4.2710    0.5920   -0.2500 c1        1 FEN     -0.201500
     15 C15        -4.2530   -0.0510    1.1510 c1        1 FEN      0.353000
     16 C16         4.5030    1.8270   -2.2600 c3        1 FEN     -0.204500
     17 C17         4.7860   -0.0960   -3.5680 c3        1 FEN     -0.204500
     18 C18         1.7550   -0.6630    0.5690 c3        1 FEN     -0.188000
     19 C19         1.1180    1.9670   -2.5790 c3        1 FEN     -0.192000
     20 C20        -3.4790    0.7440   -2.6370 c3        1 FEN     -0.192000
     21 C1'        -5.0690   -0.1020    3.4500 c1        1 FEN      0.046000
     22 C2'        -4.6630    0.6890    4.5170 c1        1 FEN     -0.149250
     23 C3'        -4.7710    0.2150    5.8170 c1        1 FEN     -0.149250
     24 C4'        -5.2840   -1.0450    6.0560 c1        1 FEN      0.050000
     25 C5'        -5.6890   -1.8360    5.0020 c1        1 FEN     -0.131000
     26 C6'        -5.5790   -1.3560    3.6820 c1        1 FEN     -0.121000
     27 O          -3.4860   -0.9260    1.3930 o         1 FEN     -0.352000
     28 N          -5.1180    0.4390    2.1690 n3        1 FEN     -0.323000
     29 O4'        -5.3310   -1.5520    7.3850 oh        1 FEN     -0.252000
     30 H21         6.6070    0.3240   -1.4380 hc        1 FEN      0.082000
     31 H22         5.9080   -1.1110   -1.2950 hc        1 FEN      0.082000
     32 H31         5.5910    0.9650    0.1880 hc        1 FEN      0.081000
     33 H32         6.3710   -0.3210    0.4650 hc        1 FEN      0.081000
     34 H41         4.4950   -1.6000    0.9720 hc        1 FEN      0.088000
     35 H42         4.1270   -0.2700    1.5920 hc        1 FEN      0.088000
     36 H7          2.7920   -1.8110   -3.0310 ha        1 FEN      0.126000
     37 H8          0.5380   -1.1750   -3.5480 ha        1 FEN      0.126000
     38 H10        -0.9060    1.3420   -0.9120 ha        1 FEN      0.135000
     39 H11        -0.5570   -1.6160   -0.7990 ha        1 FEN      0.137000
     40 H12        -2.9100   -1.8660   -0.7410 ha        1 FEN      0.137000
     41 H14        -4.8850    1.3690   -0.4430 ha        1 FEN      0.135000
     42 H161        5.3840    2.1730   -2.1760 hc        1 FEN      0.075667
     43 H162        3.9410    2.2130   -1.5740 hc        1 FEN      0.075667
     44 H163        4.1490    2.0530   -3.1310 hc        1 FEN      0.075667
     45 H171        4.0410    0.1600   -4.1080 hc        1 FEN      0.075667
     46 H172        4.8930   -1.0160   -3.6070 hc        1 FEN      0.075667
     47 H173        5.5980    0.3440   -3.9030 hc        1 FEN      0.075667
     48 H181        1.3640   -1.4790    0.0970 hc        1 FEN      0.085333
     49 H182        1.8580   -0.8650    1.5600 hc        1 FEN      0.085333
     50 H183        1.1560    0.1020    0.4510 hc        1 FEN      0.085333
     51 H191        0.4230    2.5540   -2.8280 hc        1 FEN      0.090333
     52 H192        1.7280    1.8830   -3.2910 hc        1 FEN      0.090333
     53 H193        1.5780    2.3210   -1.7940 hc        1 FEN      0.090333
     54 H201       -2.9780    0.2100   -3.2260 hc        1 FEN      0.090333
     55 H202       -3.0980    1.6160   -2.5980 hc        1 FEN      0.090333
     56 H203       -4.4540    0.8070   -2.9720 hc        1 FEN      0.090333
     57 H2'        -4.2970    1.5900    4.3500 ha        1 FEN      0.137000
     58 H3'        -4.4850    0.7720    6.5600 ha        1 FEN      0.137000
     59 H5'        -6.0650   -2.7660    5.1780 ha        1 FEN      0.153000
     60 H6'        -5.8620   -1.9060    2.9420 ha        1 FEN      0.176000
     61 HN         -5.7140    1.1240    1.9810 hn        1 FEN      0.228000
     62 HO4'       -4.5190   -1.7470    7.6520 ho        1 FEN      0.215000
@<TRIPOS>BOND
     1    1    2 1   
     2    1    6 1   
     3    1   16 1   
     4    1   17 1   
     5    2    3 1   
     6    2   30 1   
     7    2   31 1   
     8    3    4 1   
     9    3   32 1   
    10    3   33 1   
    11    4    5 1   
    12    4   34 1   
    13    4   35 1   
    14    5    6 1   
    15    5   18 1   
    16    6    7 1   
    17    7    8 1   
    18    7   36 1   
    19    8   37 1   
    20    9   10 1   
    21    9   19 1   
    22   10   38 1   
    23   11   12 1   
    24   11   39 1   
    25   12   40 1   
    26   13   14 1   
    27   13   20 1   
    28   14   41 1   
    29   15   27 1   
    30   15   28 1   
    31   16   42 1   
    32   16   43 1   
    33   16   44 1   
    34   17   45 1   
    35   17   46 1   
    36   17   47 1   
    37   18   48 1   
    38   18   49 1   
    39   18   50 1   
    40   19   51 1   
    41   19   52 1   
    42   19   53 1   
    43   20   54 1   
    44   20   55 1   
    45   20   56 1   
    46   21   26 1   
    47   21   28 1   
    48   22   23 1   
    49   22   57 1   
    50   23   58 1   
    51   24   25 1   
    52   24   29 1   
    53   25   59 1   
    54   26   60 1   
    55   28   61 1   
    56   29   62 1   
@<TRIPOS>SUBSTRUCTURE
     1 FEN         1 TEMP              0 ****  ****    0 ROOT
