@<TRIPOS>MOLECULE
FEN
   62    63     1     0     0
SMALL
bcc


@<TRIPOS>ATOM
      1 C1         -0.4460   -0.1350    0.1440 c3        1 FEN     -0.004800
      2 C2          1.0690   -0.2400    0.3490 c3        1 FEN     -0.070400
      3 C3          1.5300    0.4460    1.6130 c3        1 FEN     -0.076400
      4 C4          1.1860    1.9180    1.5660 c3        1 FEN     -0.042200
      5 C5         -0.2170    2.1670    1.1290 c2        1 FEN     -0.096400
      6 C6         -0.9620    1.2440    0.4840 ce        1 FEN     -0.088200
      7 C7         -2.3380    1.5010    0.0700 ce        1 FEN     -0.101000
      8 C8         -3.2880    1.9940    0.8810 cf        1 FEN     -0.146000
      9 C9         -4.6630    2.2410    0.4750 cf        1 FEN     -0.048200
     10 C10        -5.4680    3.1310    1.0970 ce        1 FEN     -0.154000
     11 C11        -5.0790    3.9870    2.1920 ce        1 FEN     -0.093000
     12 C12        -5.9090    4.7920    2.8750 cf        1 FEN     -0.164000
     13 C13        -7.3490    4.9250    2.6700 cf        1 FEN      0.033800
     14 C14        -7.8750    6.1520    2.4710 ce        1 FEN     -0.271200
     15 C15        -9.3240    6.3970    2.2740 c         1 FEN      0.675300
     16 C16        -1.1540   -1.1570    1.0300 c3        1 FEN     -0.085100
     17 C17        -0.7350   -0.4730   -1.3170 c3        1 FEN     -0.085100
     18 C18        -0.7050    3.5310    1.4500 c3        1 FEN     -0.064900
     19 C19        -5.1760    1.4530   -0.6770 c3        1 FEN     -0.066900
     20 C20        -8.1650    3.6890    2.7340 c3        1 FEN     -0.077900
     21 C1'       -10.9560    8.2040    1.6790 ca        1 FEN      0.039600
     22 C2'       -11.0660    9.4970    1.1070 ca        1 FEN     -0.134500
     23 C3'       -12.3060   10.0510    0.8270 ca        1 FEN     -0.159000
     24 C4'       -13.4690    9.3200    1.1120 ca        1 FEN      0.094100
     25 C5'       -13.3820    8.0430    1.6760 ca        1 FEN     -0.159000
     26 C6'       -12.1390    7.4890    1.9600 ca        1 FEN     -0.134500
     27 O         -10.1800    5.4960    2.3910 o         1 FEN     -0.607100
     28 N          -9.6720    7.7080    1.9600 ns        1 FEN     -0.469100
     29 O4'       -14.6690    9.9270    0.8080 oh        1 FEN     -0.499100
     30 H21         1.3570   -1.3230    0.3790 hc        1 FEN      0.042700
     31 H22         1.5890    0.2230   -0.5310 hc        1 FEN      0.042700
     32 H31         2.6380    0.3220    1.7280 hc        1 FEN      0.042700
     33 H32         1.0450   -0.0300    2.5050 hc        1 FEN      0.042700
     34 H41         1.3450    2.3730    2.5810 hc        1 FEN      0.048700
     35 H42         1.8780    2.4460    0.8540 hc        1 FEN      0.048700
     36 H7         -2.5690    1.2530   -0.9820 ha        1 FEN      0.130000
     37 H8         -3.0460    2.2290    1.9330 ha        1 FEN      0.130000
     38 H10        -6.5120    3.2450    0.7500 ha        1 FEN      0.132000
     39 H11        -4.0060    3.9880    2.4590 ha        1 FEN      0.127000
     40 H12        -5.5030    5.4390    3.6750 ha        1 FEN      0.133000
     41 H14        -7.2080    7.0300    2.4500 ha        1 FEN      0.132000
     42 H161       -2.2610   -1.0620    0.9160 hc        1 FEN      0.036700
     43 H162       -0.8510   -2.1910    0.7370 hc        1 FEN      0.036700
     44 H163       -0.8910   -0.9950    2.1020 hc        1 FEN      0.036700
     45 H171       -0.1590   -1.3830   -1.6150 hc        1 FEN      0.036700
     46 H172       -1.8200   -0.6850   -1.4690 hc        1 FEN      0.036700
     47 H173       -0.4340    0.3720   -1.9810 hc        1 FEN      0.036700
     48 H181       -1.5380    3.8440    0.7720 hc        1 FEN      0.043700
     49 H182        0.1260    4.2740    1.3550 hc        1 FEN      0.043700
     50 H183       -1.0810    3.5620    2.5040 hc        1 FEN      0.043700
     51 H191       -4.9010    0.3750   -0.5650 hc        1 FEN      0.047033
     52 H192       -6.2880    1.5280   -0.7630 hc        1 FEN      0.047033
     53 H193       -4.7250    1.8330   -1.6280 hc        1 FEN      0.047033
     54 H201       -7.5260    2.7830    2.8640 hc        1 FEN      0.064033
     55 H202       -8.7760    3.5790    1.8010 hc        1 FEN      0.064033
     56 H203       -8.8860    3.7570    3.5900 hc        1 FEN      0.064033
     57 H2'       -10.1630   10.0830    0.8760 ha        1 FEN      0.152000
     58 H3'       -12.3890   11.0540    0.3840 ha        1 FEN      0.142000
     59 H5'       -14.2950    7.4720    1.8980 ha        1 FEN      0.142000
     60 H6'       -12.0930    6.4800    2.4040 ha        1 FEN      0.152000
     61 HN         -8.9290    8.3560    1.8250 hn        1 FEN      0.313500
     62 HO4'      -15.3780    9.3140    1.0510 ho        1 FEN      0.417000
@<TRIPOS>BOND
     1    1    2 1   
     2    1    6 1   
     3    1   16 1   
     4    1   17 1   
     5    2    3 1   
     6    2   30 1   
     7    2   31 1   
     8    3    4 1   
     9    3   32 1   
    10    3   33 1   
    11    4    5 1   
    12    4   34 1   
    13    4   35 1   
    14    5    6 2   
    15    5   18 1   
    16    6    7 1   
    17    7    8 2   
    18    7   36 1   
    19    8    9 1   
    20    8   37 1   
    21    9   10 2   
    22    9   19 1   
    23   10   11 1   
    24   10   38 1   
    25   11   12 2   
    26   11   39 1   
    27   12   13 1   
    28   12   40 1   
    29   13   14 2   
    30   13   20 1   
    31   14   15 1   
    32   14   41 1   
    33   15   27 2   
    34   15   28 1   
    35   16   42 1   
    36   16   43 1   
    37   16   44 1   
    38   17   45 1   
    39   17   46 1   
    40   17   47 1   
    41   18   48 1   
    42   18   49 1   
    43   18   50 1   
    44   19   51 1   
    45   19   52 1   
    46   19   53 1   
    47   20   54 1   
    48   20   55 1   
    49   20   56 1   
    50   21   22 ar  
    51   21   26 ar  
    52   21   28 1   
    53   22   23 ar  
    54   22   57 1   
    55   23   24 ar  
    56   23   58 1   
    57   24   25 ar  
    58   24   29 1   
    59   25   26 ar  
    60   25   59 1   
    61   26   60 1   
    62   28   61 1   
    63   29   62 1   
@<TRIPOS>SUBSTRUCTURE
     1 FEN         1 TEMP              0 ****  ****    0 ROOT
