@<TRIPOS>MOLECULE
FEN
   62    63     1     0     0
SMALL
bcc


@<TRIPOS>ATOM
      1 C1         -1.7380    1.1660   -0.2170 c3        1 FEN     -0.002800
      2 C2         -0.6110    2.0010   -0.8360 c3        1 FEN     -0.070400
      3 C3         -0.6780    3.4470   -0.4010 c3        1 FEN     -0.075400
      4 C4         -0.5730    3.5730    1.1030 c3        1 FEN     -0.038200
      5 C5         -1.2570    2.4840    1.8560 c2        1 FEN     -0.108400
      6 C6         -1.7870    1.3870    1.2750 ce        1 FEN     -0.076200
      7 C7         -2.3130    0.2940    2.0910 ce        1 FEN     -0.102000
      8 C8         -3.5690   -0.1050    2.3120 cf        1 FEN     -0.140000
      9 C9         -4.8230    0.4040    1.7720 cf        1 FEN     -0.049200
     10 C10        -5.4000    1.5740    2.1090 ce        1 FEN     -0.149000
     11 C11        -4.8350    2.5330    3.0290 ce        1 FEN     -0.089000
     12 C12        -5.4280    3.6680    3.4310 cf        1 FEN     -0.171000
     13 C13        -6.7570    4.1350    3.0420 cf        1 FEN      0.036800
     14 C14        -6.8930    5.3710    2.5180 ce        1 FEN     -0.273200
     15 C15        -8.1960    5.9470    2.1120 c         1 FEN      0.676300
     16 C16        -1.4590   -0.3030   -0.5200 c3        1 FEN     -0.086100
     17 C17        -3.0650    1.5570   -0.8560 c3        1 FEN     -0.086100
     18 C18        -1.2610    2.7020    3.3250 c3        1 FEN     -0.062900
     19 C19        -5.5170   -0.5470    0.8600 c3        1 FEN     -0.064900
     20 C20        -7.9000    3.2240    3.2890 c3        1 FEN     -0.077900
     21 C1'        -9.2030    7.9310    0.9560 ca        1 FEN      0.040600
     22 C2'        -8.9060    9.0260    0.1050 ca        1 FEN     -0.135000
     23 C3'        -9.9160    9.8130   -0.4250 ca        1 FEN     -0.159000
     24 C4'       -11.2540    9.5200   -0.1190 ca        1 FEN      0.094100
     25 C5'       -11.5680    8.4430    0.7180 ca        1 FEN     -0.159000
     26 C6'       -10.5540    7.6560    1.2540 ca        1 FEN     -0.135000
     27 O          -9.2820    5.3710    2.3280 o         1 FEN     -0.608100
     28 N          -8.1330    7.1860    1.4800 n         1 FEN     -0.469100
     29 O4'       -12.2100   10.3380   -0.6800 oh        1 FEN     -0.500100
     30 H21         0.3760    1.5660   -0.5320 hc        1 FEN      0.042200
     31 H22        -0.6810    1.9380   -1.9530 hc        1 FEN      0.042200
     32 H31        -1.6400    3.9040   -0.7540 hc        1 FEN      0.041700
     33 H32         0.1560    4.0220   -0.8820 hc        1 FEN      0.041700
     34 H41        -0.9950    4.5640    1.4250 hc        1 FEN      0.046700
     35 H42         0.5120    3.5660    1.4010 hc        1 FEN      0.046700
     36 H7         -1.5000   -0.2760    2.5880 ha        1 FEN      0.123000
     37 H8         -3.7270   -0.9840    2.9710 ha        1 FEN      0.126000
     38 H10        -6.3780    1.8420    1.6690 ha        1 FEN      0.131000
     39 H11        -3.8200    2.2930    3.4020 ha        1 FEN      0.136000
     40 H12        -4.8900    4.3470    4.1160 ha        1 FEN      0.132000
     41 H14        -5.9980    6.0000    2.3750 ha        1 FEN      0.132000
     42 H161       -1.3460   -0.4480   -1.6210 hc        1 FEN      0.037200
     43 H162       -2.3030   -0.9400   -0.1600 hc        1 FEN      0.037200
     44 H163       -0.5210   -0.6340   -0.0160 hc        1 FEN      0.037200
     45 H171       -3.3180    2.6190   -0.6240 hc        1 FEN      0.037200
     46 H172       -3.8870    0.9080   -0.4680 hc        1 FEN      0.037200
     47 H173       -3.0050    1.4340   -1.9640 hc        1 FEN      0.037200
     48 H181       -0.2300    2.9590    3.6780 hc        1 FEN      0.042033
     49 H182       -1.9380    3.5560    3.5810 hc        1 FEN      0.042033
     50 H183       -1.6070    1.7980    3.8840 hc        1 FEN      0.042033
     51 H191       -6.2660   -0.0220    0.2190 hc        1 FEN      0.047367
     52 H192       -6.0500   -1.3250    1.4640 hc        1 FEN      0.047367
     53 H193       -4.7810   -1.0670    0.1970 hc        1 FEN      0.047367
     54 H201       -8.6070    3.6960    4.0190 hc        1 FEN      0.063367
     55 H202       -7.5590    2.2400    3.6920 hc        1 FEN      0.063367
     56 H203       -8.4730    3.0570    2.3410 hc        1 FEN      0.063367
     57 H2'        -7.8620    9.2690   -0.1460 ha        1 FEN      0.152500
     58 H3'        -9.6840   10.6620   -1.0840 ha        1 FEN      0.142000
     59 H5'       -12.6170    8.2150    0.9570 ha        1 FEN      0.142000
     60 H6'       -10.8240    6.8120    1.9110 ha        1 FEN      0.152500
     61 HN         -7.2280    7.5530    1.2900 hn        1 FEN      0.313500
     62 HO4'      -13.0770   10.0210   -0.3880 ho        1 FEN      0.417000
@<TRIPOS>BOND
     1    1    2 1   
     2    1    6 1   
     3    1   16 1   
     4    1   17 1   
     5    2    3 1   
     6    2   30 1   
     7    2   31 1   
     8    3    4 1   
     9    3   32 1   
    10    3   33 1   
    11    4    5 1   
    12    4   34 1   
    13    4   35 1   
    14    5    6 2   
    15    5   18 1   
    16    6    7 1   
    17    7    8 2   
    18    7   36 1   
    19    8    9 1   
    20    8   37 1   
    21    9   10 2   
    22    9   19 1   
    23   10   11 1   
    24   10   38 1   
    25   11   12 2   
    26   11   39 1   
    27   12   13 1   
    28   12   40 1   
    29   13   14 2   
    30   13   20 1   
    31   14   15 1   
    32   14   41 1   
    33   15   27 2   
    34   15   28 1   
    35   16   42 1   
    36   16   43 1   
    37   16   44 1   
    38   17   45 1   
    39   17   46 1   
    40   17   47 1   
    41   18   48 1   
    42   18   49 1   
    43   18   50 1   
    44   19   51 1   
    45   19   52 1   
    46   19   53 1   
    47   20   54 1   
    48   20   55 1   
    49   20   56 1   
    50   21   22 ar  
    51   21   26 ar  
    52   21   28 1   
    53   22   23 ar  
    54   22   57 1   
    55   23   24 ar  
    56   23   58 1   
    57   24   25 ar  
    58   24   29 1   
    59   25   26 ar  
    60   25   59 1   
    61   26   60 1   
    62   28   61 1   
    63   29   62 1   
@<TRIPOS>SUBSTRUCTURE
     1 FEN         1 TEMP              0 ****  ****    0 ROOT
