@<TRIPOS>MOLECULE
FEN
   62    63     1     0     0
SMALL
bcc


@<TRIPOS>ATOM
      1 C1         29.6310   21.2390   45.2680 c3        1 FEN     -0.006800
      2 C2         29.8180   21.6730   43.8110 c3        1 FEN     -0.069400
      3 C3         29.8640   20.4930   42.8700 c3        1 FEN     -0.076400
      4 C4         31.0110   19.5710   43.2190 c3        1 FEN     -0.042200
      5 C5         31.1600   19.3340   44.6830 c2        1 FEN     -0.092400
      6 C6         30.5600   20.1010   45.6190 ce        1 FEN     -0.090200
      7 C7         30.7180   19.8790   47.0530 ce        1 FEN     -0.099000
      8 C8         31.8950   19.6980   47.6720 cf        1 FEN     -0.148000
      9 C9         32.0520   19.4930   49.1060 cf        1 FEN     -0.044200
     10 C10        33.2440   19.0600   49.5800 ce        1 FEN     -0.152000
     11 C11        33.5570   18.7830   50.9610 ce        1 FEN     -0.092000
     12 C12        34.7900   18.4170   51.3580 cf        1 FEN     -0.156000
     13 C13        35.1610   18.1200   52.7350 cf        1 FEN      0.008800
     14 C14        36.4540   17.8780   53.0290 ce        1 FEN     -0.255200
     15 C15        36.9530   17.5390   54.3890 c         1 FEN      0.675300
     16 C16        28.1860   20.8030   45.4900 c3        1 FEN     -0.084100
     17 C17        29.9220   22.4460   46.1560 c3        1 FEN     -0.084100
     18 C18        32.0480   18.1920   45.0150 c3        1 FEN     -0.065900
     19 C19        30.8740   19.7750   49.9620 c3        1 FEN     -0.066900
     20 C20        34.0810   18.1090   53.7530 c3        1 FEN     -0.082900
     21 C1'        38.6450   18.2700   56.0850 ca        1 FEN      0.036600
     22 C2'        39.4840   19.3470   56.4690 ca        1 FEN     -0.134000
     23 C3'        40.1710   19.3220   57.6730 ca        1 FEN     -0.159000
     24 C4'        40.0320   18.2150   58.5250 ca        1 FEN      0.096100
     25 C5'        39.2080   17.1430   58.1650 ca        1 FEN     -0.159000
     26 C6'        38.5220   17.1670   56.9550 ca        1 FEN     -0.134000
     27 O          36.4960   16.5880   55.0510 o         1 FEN     -0.592100
     28 N          37.9910   18.3440   54.8430 n         1 FEN     -0.470100
     29 O4'        40.7390   18.2540   59.7070 oh        1 FEN     -0.499100
     30 H21        28.9790   22.3580   43.5220 hc        1 FEN      0.042700
     31 H22        30.7740   22.2540   43.7240 hc        1 FEN      0.042700
     32 H31        28.8960   19.9300   42.9190 hc        1 FEN      0.042700
     33 H32        29.9840   20.8560   41.8150 hc        1 FEN      0.042700
     34 H41        30.8680   18.5900   42.6910 hc        1 FEN      0.048700
     35 H42        31.9760   20.0100   42.8420 hc        1 FEN      0.048700
     36 H7         29.7720   19.8900   47.6250 ha        1 FEN      0.128000
     37 H8         32.8330   19.6960   47.0870 ha        1 FEN      0.129000
     38 H10        34.0700   18.8880   48.8650 ha        1 FEN      0.125000
     39 H11        32.7370   18.8750   51.6950 ha        1 FEN      0.129000
     40 H12        35.6050   18.3240   50.6170 ha        1 FEN      0.127000
     41 H14        37.2270   17.8890   52.2430 ha        1 FEN      0.143000
     42 H161       28.0110   20.5610   46.5660 hc        1 FEN      0.036200
     43 H162       27.4900   21.6250   45.1960 hc        1 FEN      0.036200
     44 H163       27.9510   19.8980   44.8810 hc        1 FEN      0.036200
     45 H171       29.7050   22.2110   47.2250 hc        1 FEN      0.036200
     46 H172       30.9930   22.7460   46.0670 hc        1 FEN      0.036200
     47 H173       29.2820   23.3070   45.8450 hc        1 FEN      0.036200
     48 H181       31.8230   17.7740   46.0270 hc        1 FEN      0.044367
     49 H182       31.9320   17.3700   44.2650 hc        1 FEN      0.044367
     50 H183       33.1170   18.5250   45.0010 hc        1 FEN      0.044367
     51 H191       31.1510   19.8900   51.0380 hc        1 FEN      0.047033
     52 H192       30.3750   20.7220   49.6350 hc        1 FEN      0.047033
     53 H193       30.1330   18.9400   49.8760 hc        1 FEN      0.047033
     54 H201       34.4600   17.7820   54.7530 hc        1 FEN      0.058033
     55 H202       33.6390   19.1320   53.8540 hc        1 FEN      0.058033
     56 H203       33.2710   17.4020   53.4410 hc        1 FEN      0.058033
     57 H2'        39.6020   20.2230   55.8120 ha        1 FEN      0.152500
     58 H3'        40.8220   20.1570   57.9700 ha        1 FEN      0.143000
     59 H5'        39.1000   16.2770   58.8340 ha        1 FEN      0.143000
     60 H6'        37.8770   16.3120   56.6900 ha        1 FEN      0.152500
     61 HN         38.2470   19.1170   54.2710 hn        1 FEN      0.316500
     62 HO4'       40.5500   17.4370   60.1910 ho        1 FEN      0.418000
@<TRIPOS>BOND
     1    1    2 1   
     2    1    6 1   
     3    1   16 1   
     4    1   17 1   
     5    2    3 1   
     6    2   30 1   
     7    2   31 1   
     8    3    4 1   
     9    3   32 1   
    10    3   33 1   
    11    4    5 1   
    12    4   34 1   
    13    4   35 1   
    14    5    6 2   
    15    5   18 1   
    16    6    7 1   
    17    7    8 2   
    18    7   36 1   
    19    8    9 1   
    20    8   37 1   
    21    9   10 2   
    22    9   19 1   
    23   10   11 1   
    24   10   38 1   
    25   11   12 2   
    26   11   39 1   
    27   12   13 1   
    28   12   40 1   
    29   13   14 2   
    30   13   20 1   
    31   14   15 1   
    32   14   41 1   
    33   15   27 2   
    34   15   28 1   
    35   16   42 1   
    36   16   43 1   
    37   16   44 1   
    38   17   45 1   
    39   17   46 1   
    40   17   47 1   
    41   18   48 1   
    42   18   49 1   
    43   18   50 1   
    44   19   51 1   
    45   19   52 1   
    46   19   53 1   
    47   20   54 1   
    48   20   55 1   
    49   20   56 1   
    50   21   22 ar  
    51   21   26 ar  
    52   21   28 1   
    53   22   23 ar  
    54   22   57 1   
    55   23   24 ar  
    56   23   58 1   
    57   24   25 ar  
    58   24   29 1   
    59   25   26 ar  
    60   25   59 1   
    61   26   60 1   
    62   28   61 1   
    63   29   62 1   
@<TRIPOS>SUBSTRUCTURE
     1 FEN         1 TEMP              0 ****  ****    0 ROOT
