@<TRIPOS>MOLECULE
FEN
   63    64     1     0     0
SMALL
bcc


@<TRIPOS>ATOM
      1 C1         -1.2820    1.1270    0.6820 c3        1 FEN     -0.003800
      2 C2          0.0070    1.9550    0.6340 c3        1 FEN     -0.071400
      3 C3         -0.2640    3.4300    0.8150 c3        1 FEN     -0.076400
      4 C4         -0.9310    3.7040    2.1450 c3        1 FEN     -0.042200
      5 C5         -1.9170    2.6650    2.5560 c2        1 FEN     -0.104400
      6 C6         -2.0890    1.4960    1.9020 ce        1 FEN     -0.094200
      7 C7         -2.9710    0.4650    2.4490 ce        1 FEN     -0.068000
      8 C8         -4.1590    0.0200    2.0270 cf        1 FEN     -0.188000
      9 C9         -4.9390    0.3960    0.8560 cf        1 FEN      0.050800
     10 C10        -5.5740    1.5790    0.6800 ce        1 FEN     -0.230000
     11 C11        -5.5010    2.6750    1.6030 ce        1 FEN      0.031000
     12 C12        -6.2570    3.7960    1.6120 cf        1 FEN     -0.266000
     13 C13        -7.3870    4.1120    0.7750 cf        1 FEN      0.186800
     14 C14        -7.6310    5.4320    0.4770 ce        1 FEN     -0.379200
     15 C15        -8.7420    5.8480   -0.3230 c         1 FEN      0.577300
     16 C16        -0.8940   -0.3480    0.7400 c3        1 FEN     -0.087100
     17 C17        -2.0860    1.3730   -0.5890 c3        1 FEN     -0.087100
     18 C18        -2.6510    3.0120    3.7990 c3        1 FEN     -0.068900
     19 C19        -5.0980   -0.6970   -0.1410 c3        1 FEN     -0.086900
     20 C20        -8.2820    3.0340    0.3030 c3        1 FEN     -0.119900
     21 C1'        -9.3450    8.0910    0.5620 ca        1 FEN     -0.100400
     22 C2'       -10.7170    8.0060    0.8780 ca        1 FEN     -0.059000
     23 C3'       -11.2190    8.7040    1.9630 ca        1 FEN     -0.172500
     24 C4'       -10.3500    9.4950    2.7440 ca        1 FEN      0.189100
     25 C5'        -8.9820    9.5780    2.4320 ca        1 FEN     -0.172500
     26 C6'        -8.4800    8.8760    1.3450 ca        1 FEN     -0.059000
     27 O          -9.6410    5.2160   -0.8730 o         1 FEN     -0.485100
     28 N          -8.8290    7.3590   -0.5920 n4        1 FEN     -0.538200
     29 O4'       -10.9180   10.1540    3.7940 oh        1 FEN     -0.461100
     30 H21         0.7000    1.6010    1.4430 hc        1 FEN      0.050200
     31 H22         0.5170    1.7810   -0.3490 hc        1 FEN      0.050200
     32 H31        -0.9120    3.8030   -0.0210 hc        1 FEN      0.044700
     33 H32         0.7020    3.9980    0.7600 hc        1 FEN      0.044700
     34 H41        -0.1460    3.7660    2.9490 hc        1 FEN      0.050700
     35 H42        -1.4420    4.7040    2.1090 hc        1 FEN      0.050700
     36 H7         -2.5410   -0.0110    3.3560 ha        1 FEN      0.137000
     37 H8         -4.6430   -0.8010    2.5970 ha        1 FEN      0.143000
     38 H10        -6.1720    1.7310   -0.2360 ha        1 FEN      0.132000
     39 H11        -4.6910    2.5950    2.3630 ha        1 FEN      0.156000
     40 H12        -5.9880    4.5890    2.3370 ha        1 FEN      0.144000
     41 H14        -6.9560    6.2070    0.8750 ha        1 FEN      0.157000
     42 H161       -1.8030   -0.9940    0.6850 hc        1 FEN      0.038033
     43 H162       -0.3530   -0.5720    1.6910 hc        1 FEN      0.038033
     44 H163       -0.2260   -0.5980   -0.1190 hc        1 FEN      0.038033
     45 H171       -2.4190    2.4360   -0.6470 hc        1 FEN      0.038033
     46 H172       -2.9890    0.7170   -0.6110 hc        1 FEN      0.038033
     47 H173       -1.4590    1.1440   -1.4840 hc        1 FEN      0.038033
     48 H181       -3.2930    3.9130    3.6280 hc        1 FEN      0.044033
     49 H182       -1.9220    3.2590    4.6130 hc        1 FEN      0.044033
     50 H183       -3.3010    2.1760    4.1570 hc        1 FEN      0.044033
     51 H191       -5.8690   -1.4240    0.2220 hc        1 FEN      0.063367
     52 H192       -4.1340   -1.2500   -0.2720 hc        1 FEN      0.063367
     53 H193       -5.4210   -0.3020   -1.1350 hc        1 FEN      0.063367
     54 H201       -9.3550    3.3090    0.4840 hc        1 FEN      0.084367
     55 H202       -8.1600    2.8880   -0.8030 hc        1 FEN      0.084367
     56 H203       -8.0750    2.0660    0.8230 hc        1 FEN      0.084367
     57 H2'       -11.3990    7.3840    0.2710 ha        1 FEN      0.158000
     58 H3'       -12.2890    8.6540    2.2260 ha        1 FEN      0.176000
     59 H5'        -8.3090   10.1970    3.0450 ha        1 FEN      0.176000
     60 H6'        -7.4040    8.9480    1.1110 ha        1 FEN      0.158000
     61 HN         -9.4640    7.5110   -1.3870 hn        1 FEN      0.454300
     62 HO4'      -10.2340   10.6690    4.2540 ho        1 FEN      0.445000
     63 HN3        -7.8990    7.7130   -0.8320 hn        1 FEN      0.454300
@<TRIPOS>BOND
     1    1    2 1   
     2    1    6 1   
     3    1   16 1   
     4    1   17 1   
     5    2    3 1   
     6    2   30 1   
     7    2   31 1   
     8    3    4 1   
     9    3   32 1   
    10    3   33 1   
    11    4    5 1   
    12    4   34 1   
    13    4   35 1   
    14    5    6 2   
    15    5   18 1   
    16    6    7 1   
    17    7    8 2   
    18    7   36 1   
    19    8    9 1   
    20    8   37 1   
    21    9   10 2   
    22    9   19 1   
    23   10   11 1   
    24   10   38 1   
    25   11   12 2   
    26   11   39 1   
    27   12   13 1   
    28   12   40 1   
    29   13   14 2   
    30   13   20 1   
    31   14   15 1   
    32   14   41 1   
    33   15   27 2   
    34   15   28 1   
    35   16   42 1   
    36   16   43 1   
    37   16   44 1   
    38   17   45 1   
    39   17   46 1   
    40   17   47 1   
    41   18   48 1   
    42   18   49 1   
    43   18   50 1   
    44   19   51 1   
    45   19   52 1   
    46   19   53 1   
    47   20   54 1   
    48   20   55 1   
    49   20   56 1   
    50   21   22 ar  
    51   21   26 ar  
    52   21   28 1   
    53   22   23 ar  
    54   22   57 1   
    55   23   24 ar  
    56   23   58 1   
    57   24   25 ar  
    58   24   29 1   
    59   25   26 ar  
    60   25   59 1   
    61   26   60 1   
    62   28   61 1   
    63   28   63 1   
    64   29   62 1   
@<TRIPOS>SUBSTRUCTURE
     1 FEN         1 TEMP              0 ****  ****    0 ROOT
