@<TRIPOS>MOLECULE
FEP
   46    45     1     0     0
SMALL
bcc


@<TRIPOS>ATOM
      1 C1          0.0190   -0.0820   -0.0610 c3        1 FEP     -0.095000
      2 C2          1.5340    0.0080    0.0050 c3        1 FEP     -0.156000
      3 C3          2.0350   -0.0150    1.4370 c3        1 FEP     -0.156000
      4 C4          3.5500    0.0750    1.5030 c3        1 FEP     -0.095000
      5 C5         -2.2360    0.0140   -5.4090 c2        1 FEP     -0.258000
      6 C6         -0.5160   -0.0590   -1.4500 ca        1 FEP     -0.161000
      7 C7         -0.8470   -1.2480   -2.1130 ca        1 FEP     -0.125000
      8 C8         -1.3750   -1.2280   -3.3980 ca        1 FEP     -0.164000
      9 C9         -1.5890   -0.0120   -4.0760 ca        1 FEP      0.028000
     10 C10        -1.2740    1.1800   -3.3970 ca        1 FEP     -0.164000
     11 C11        -0.7470    1.1540   -2.1110 ca        1 FEP     -0.125000
     12 C12         5.8060   -0.0190    6.8510 c2        1 FEP     -0.258000
     13 C13         4.0850    0.0530    2.8910 ca        1 FEP     -0.161000
     14 C14         4.3120   -1.1600    3.5550 ca        1 FEP     -0.125000
     15 C15         4.8390   -1.1860    4.8400 ca        1 FEP     -0.164000
     16 C16         5.1590    0.0070    5.5180 ca        1 FEP      0.028000
     17 C17         4.9480    1.2220    4.8380 ca        1 FEP     -0.164000
     18 C18         4.4210    1.2410    3.5520 ca        1 FEP     -0.125000
     19 F1         -1.9600   -1.0700   -6.2080 f         1 FEP     -0.208000
     20 F2         -1.8890    1.0830   -6.2020 f         1 FEP     -0.208000
     21 P1         -4.3380    0.0840   -6.1470 p3        1 FEP      2.520000
     22 OP1        -4.0760    0.0810   -7.6140 o         1 FEP     -1.200333
     23 OP2        -4.8090    1.3680   -5.5540 o         1 FEP     -1.200333
     24 OP3        -4.8880   -1.1720   -5.5630 o         1 FEP     -1.200333
     25 F3          5.5330    1.0670    7.6480 f         1 FEP     -0.208000
     26 F4          5.4550   -1.0850    7.6450 f         1 FEP     -0.208000
     27 P2          7.9070   -0.0940    7.5880 p3        1 FEP      2.520000
     28 OP4         7.6460   -0.0870    9.0550 o         1 FEP     -1.200333
     29 OP5         8.3740   -1.3810    6.9980 o         1 FEP     -1.200333
     30 OP6         8.4620    1.1590    7.0020 o         1 FEP     -1.200333
     31 HC11       -0.4170    0.7750    0.5200 hc        1 FEP      0.062000
     32 HC12       -0.3080   -1.0260    0.4530 hc        1 FEP      0.062000
     33 HC21        1.9830   -0.8480   -0.5650 hc        1 FEP      0.073000
     34 HC22        1.8710    0.9520   -0.4980 hc        1 FEP      0.073000
     35 HC31        1.5870    0.8400    2.0060 hc        1 FEP      0.073000
     36 HC32        1.6980   -0.9590    1.9400 hc        1 FEP      0.073000
     37 HC41        3.9870   -0.7820    0.9220 hc        1 FEP      0.062000
     38 HC42        3.8770    1.0190    0.9880 hc        1 FEP      0.062000
     39 HC7        -0.6880   -2.2100   -1.6050 ha        1 FEP      0.091500
     40 HC8        -1.6470   -2.1640   -3.9080 ha        1 FEP      0.133000
     41 H10        -1.4670    2.1370   -3.9040 ha        1 FEP      0.133000
     42 H11        -0.5050    2.0980   -1.6010 ha        1 FEP      0.091500
     43 H14         4.0660   -2.1040    3.0470 ha        1 FEP      0.091500
     44 H15         5.0290   -2.1420    5.3490 ha        1 FEP      0.133000
     45 H17         5.2250    2.1580    5.3450 ha        1 FEP      0.133000
     46 H18         4.2650    2.2030    3.0420 ha        1 FEP      0.091500
@<TRIPOS>BOND
     1    1    2 1   
     2    1    6 1   
     3    1   31 1   
     4    1   32 1   
     5    2    3 1   
     6    2   33 1   
     7    2   34 1   
     8    3    4 1   
     9    3   35 1   
    10    3   36 1   
    11    4   13 1   
    12    4   37 1   
    13    4   38 1   
    14    5    9 1   
    15    5   19 1   
    16    5   20 1   
    17    6    7 1   
    18    6   11 1   
    19    7    8 1   
    20    7   39 1   
    21    8    9 1   
    22    8   40 1   
    23    9   10 1   
    24   10   11 1   
    25   10   41 1   
    26   11   42 1   
    27   12   16 1   
    28   12   25 1   
    29   12   26 1   
    30   13   14 1   
    31   13   18 1   
    32   14   15 1   
    33   14   43 1   
    34   15   16 1   
    35   15   44 1   
    36   16   17 1   
    37   17   18 1   
    38   17   45 1   
    39   18   46 1   
    40   21   22 1   
    41   21   23 1   
    42   21   24 1   
    43   27   28 1   
    44   27   29 1   
    45   27   30 1   
@<TRIPOS>SUBSTRUCTURE
     1 FEP         1 TEMP              0 ****  ****    0 ROOT
