@<TRIPOS>MOLECULE
FEP
   46    45     1     0     0
SMALL
bcc


@<TRIPOS>ATOM
      1 C1          0.0210   -0.0890   -0.0620 c3        1 FEP     -0.095000
      2 C2          1.5350    0.0090    0.0050 c3        1 FEP     -0.156000
      3 C3          2.0350   -0.0170    1.4370 c3        1 FEP     -0.156000
      4 C4          3.5490    0.0820    1.5040 c3        1 FEP     -0.095000
      5 C5         -2.2340    0.0190   -5.4110 c2        1 FEP     -0.258000
      6 C6         -0.5140   -0.0630   -1.4510 ca        1 FEP     -0.161000
      7 C7         -0.8490   -1.2500   -2.1160 ca        1 FEP     -0.125000
      8 C8         -1.3760   -1.2270   -3.4010 ca        1 FEP     -0.164000
      9 C9         -1.5870   -0.0100   -4.0780 ca        1 FEP      0.027000
     10 C10        -1.2680    1.1810   -3.3970 ca        1 FEP     -0.164000
     11 C11        -0.7410    1.1520   -2.1110 ca        1 FEP     -0.125000
     12 C12         5.8030   -0.0260    6.8530 c2        1 FEP     -0.258000
     13 C13         4.0840    0.0560    2.8920 ca        1 FEP     -0.161000
     14 C14         4.3120   -1.1590    3.5530 ca        1 FEP     -0.125000
     15 C15         4.8390   -1.1880    4.8380 ca        1 FEP     -0.164000
     16 C16         5.1560    0.0030    5.5190 ca        1 FEP      0.027000
     17 C17         4.9450    1.2200    4.8430 ca        1 FEP     -0.164000
     18 C18         4.4180    1.2430    3.5570 ca        1 FEP     -0.125000
     19 F1         -1.9600   -1.0650   -6.2120 f         1 FEP     -0.208000
     20 F2         -1.8840    1.0880   -6.2020 f         1 FEP     -0.208000
     21 P1         -4.3350    0.0940   -6.1490 p3        1 FEP      2.520000
     22 OP1        -4.0730    0.0920   -7.6160 o         1 FEP     -1.200333
     23 OP2        -4.8030    1.3780   -5.5550 o         1 FEP     -1.200333
     24 OP3        -4.8880   -1.1610   -5.5670 o         1 FEP     -1.200333
     25 F3          5.5280    1.0580    7.6530 f         1 FEP     -0.208000
     26 F4          5.4540   -1.0950    7.6430 f         1 FEP     -0.208000
     27 P2          7.9040   -0.1000    7.5910 p3        1 FEP      2.520000
     28 OP4         7.6420   -0.0980    9.0580 o         1 FEP     -1.200333
     29 OP5         8.3730   -1.3840    6.9970 o         1 FEP     -1.200333
     30 OP6         8.4570    1.1560    7.0080 o         1 FEP     -1.200333
     31 HC11       -0.4220    0.7630    0.5220 hc        1 FEP      0.062000
     32 HC12       -0.3020   -1.0370    0.4470 hc        1 FEP      0.062000
     33 HC21        1.9890   -0.8400   -0.5690 hc        1 FEP      0.073000
     34 HC22        1.8660    0.9580   -0.4940 hc        1 FEP      0.073000
     35 HC31        1.5810    0.8330    2.0100 hc        1 FEP      0.073000
     36 HC32        1.7040   -0.9650    1.9350 hc        1 FEP      0.073000
     37 HC41        3.9910   -0.7700    0.9190 hc        1 FEP      0.062000
     38 HC42        3.8710    1.0300    0.9940 hc        1 FEP      0.062000
     39 HC7        -0.6920   -2.2130   -1.6090 ha        1 FEP      0.091500
     40 HC8        -1.6510   -2.1620   -3.9120 ha        1 FEP      0.133000
     41 H10        -1.4590    2.1380   -3.9030 ha        1 FEP      0.133000
     42 H11        -0.4970    2.0940   -1.6000 ha        1 FEP      0.091500
     43 H14         4.0680   -2.1010    3.0410 ha        1 FEP      0.091500
     44 H15         5.0290   -2.1450    5.3440 ha        1 FEP      0.133000
     45 H17         5.2200    2.1550    5.3530 ha        1 FEP      0.133000
     46 H18         4.2610    2.2060    3.0510 ha        1 FEP      0.091500
@<TRIPOS>BOND
     1    1    2 1   
     2    1    6 1   
     3    1   31 1   
     4    1   32 1   
     5    2    3 1   
     6    2   33 1   
     7    2   34 1   
     8    3    4 1   
     9    3   35 1   
    10    3   36 1   
    11    4   13 1   
    12    4   37 1   
    13    4   38 1   
    14    5    9 1   
    15    5   19 1   
    16    5   20 1   
    17    6    7 1   
    18    6   11 1   
    19    7    8 1   
    20    7   39 1   
    21    8    9 1   
    22    8   40 1   
    23    9   10 1   
    24   10   11 1   
    25   10   41 1   
    26   11   42 1   
    27   12   16 1   
    28   12   25 1   
    29   12   26 1   
    30   13   14 1   
    31   13   18 1   
    32   14   15 1   
    33   14   43 1   
    34   15   16 1   
    35   15   44 1   
    36   16   17 1   
    37   17   18 1   
    38   17   45 1   
    39   18   46 1   
    40   21   22 1   
    41   21   23 1   
    42   21   24 1   
    43   27   28 1   
    44   27   29 1   
    45   27   30 1   
@<TRIPOS>SUBSTRUCTURE
     1 FEP         1 TEMP              0 ****  ****    0 ROOT
