@<TRIPOS>MOLECULE
FEP
   46    45     1     0     0
SMALL
bcc


@<TRIPOS>ATOM
      1 C1         -0.8770    0.2260    1.7060 c3        1 FEP     -0.095000
      2 C2          0.2420   -0.0510    0.7180 c3        1 FEP     -0.156000
      3 C3         -0.2420    0.0430   -0.7170 c3        1 FEP     -0.156000
      4 C4          0.8770   -0.2330   -1.7060 c3        1 FEP     -0.095000
      5 C5          0.6310   -0.0870    7.3030 c2        1 FEP     -0.258000
      6 C6         -0.4460    0.1400    3.1280 ca        1 FEP     -0.161000
      7 C7         -0.1190    1.2950    3.8520 ca        1 FEP     -0.125000
      8 C8          0.2560    1.2210    5.1880 ca        1 FEP     -0.164000
      9 C9          0.3220   -0.0170    5.8560 ca        1 FEP      0.027000
     10 C10        -0.0290   -1.1720    5.1300 ca        1 FEP     -0.164000
     11 C11        -0.4020   -1.0920    3.7940 ca        1 FEP     -0.125000
     12 C12        -0.6310    0.0790   -7.3030 c2        1 FEP     -0.258000
     13 C13         0.4460   -0.1480   -3.1280 ca        1 FEP     -0.161000
     14 C14         0.4030    1.0840   -3.7940 ca        1 FEP     -0.125000
     15 C15         0.0300    1.1640   -5.1300 ca        1 FEP     -0.164000
     16 C16        -0.3220    0.0090   -5.8560 ca        1 FEP      0.027000
     17 C17        -0.2570   -1.2280   -5.1870 ca        1 FEP     -0.164000
     18 C18         0.1180   -1.3020   -3.8510 ca        1 FEP     -0.125000
     19 F1          1.4980    0.8790    7.7570 f         1 FEP     -0.208000
     20 F2          1.2250   -1.2570    7.7140 f         1 FEP     -0.208000
     21 P1         -0.5590    0.0290    9.1830 p3        1 FEP      2.520000
     22 OP1         0.5430   -0.1330   10.1740 o         1 FEP     -1.200333
     23 OP2        -1.4810   -1.1290    9.0130 o         1 FEP     -1.200333
     24 OP3        -1.1550    1.3900    9.0620 o         1 FEP     -1.200333
     25 F3         -1.4990   -0.8860   -7.7570 f         1 FEP     -0.208000
     26 F4         -1.2240    1.2500   -7.7140 f         1 FEP     -0.208000
     27 P2          0.5590   -0.0380   -9.1830 p3        1 FEP      2.520000
     28 OP4        -0.5430    0.1240  -10.1740 o         1 FEP     -1.200333
     29 OP5         1.4820    1.1190   -9.0140 o         1 FEP     -1.200333
     30 OP6         1.1530   -1.3990   -9.0620 o         1 FEP     -1.200333
     31 HC11       -1.7070   -0.5100    1.5250 hc        1 FEP      0.062000
     32 HC12       -1.2960    1.2480    1.5010 hc        1 FEP      0.062000
     33 HC21        1.0740    0.6830    0.8830 hc        1 FEP      0.073000
     34 HC22        0.6610   -1.0730    0.9090 hc        1 FEP      0.073000
     35 HC31       -1.0740   -0.6900   -0.8830 hc        1 FEP      0.073000
     36 HC32       -0.6610    1.0650   -0.9090 hc        1 FEP      0.073000
     37 HC41        1.7070    0.5030   -1.5250 hc        1 FEP      0.062000
     38 HC42        1.2960   -1.2550   -1.5010 hc        1 FEP      0.062000
     39 HC7        -0.1620    2.2730    3.3520 ha        1 FEP      0.091500
     40 HC8         0.4960    2.1330    5.7540 ha        1 FEP      0.133000
     41 H10        -0.0110   -2.1400    5.6500 ha        1 FEP      0.133000
     42 H11        -0.6680   -2.0070    3.2450 ha        1 FEP      0.091500
     43 H14         0.6700    2.0000   -3.2460 ha        1 FEP      0.091500
     44 H15         0.0130    2.1330   -5.6510 ha        1 FEP      0.133000
     45 H17        -0.4980   -2.1400   -5.7530 ha        1 FEP      0.133000
     46 H18         0.1590   -2.2810   -3.3510 ha        1 FEP      0.091500
@<TRIPOS>BOND
     1    1    2 1   
     2    1    6 1   
     3    1   31 1   
     4    1   32 1   
     5    2    3 1   
     6    2   33 1   
     7    2   34 1   
     8    3    4 1   
     9    3   35 1   
    10    3   36 1   
    11    4   13 1   
    12    4   37 1   
    13    4   38 1   
    14    5    9 1   
    15    5   19 1   
    16    5   20 1   
    17    6    7 1   
    18    6   11 1   
    19    7    8 1   
    20    7   39 1   
    21    8    9 1   
    22    8   40 1   
    23    9   10 1   
    24   10   11 1   
    25   10   41 1   
    26   11   42 1   
    27   12   16 1   
    28   12   25 1   
    29   12   26 1   
    30   13   14 1   
    31   13   18 1   
    32   14   15 1   
    33   14   43 1   
    34   15   16 1   
    35   15   44 1   
    36   16   17 1   
    37   17   18 1   
    38   17   45 1   
    39   18   46 1   
    40   21   22 1   
    41   21   23 1   
    42   21   24 1   
    43   27   28 1   
    44   27   29 1   
    45   27   30 1   
@<TRIPOS>SUBSTRUCTURE
     1 FEP         1 TEMP              0 ****  ****    0 ROOT
