@<TRIPOS>MOLECULE
FEP
   46    43     1     0     0
SMALL
bcc


@<TRIPOS>ATOM
      1 C1         -1.9690   -0.7750   -0.5150 c3        1 FEP     -0.094500
      2 C2         -0.4570   -0.8040   -0.4980 c3        1 FEP     -0.155500
      3 C3          0.0320   -0.7990    0.9340 c3        1 FEP     -0.155500
      4 C4          1.5330   -0.6010    0.9540 c3        1 FEP     -0.094500
      5 C5         -3.8990   -0.3920   -5.9700 c3        1 FEP     -0.258000
      6 C6         -2.4560   -0.6810   -1.9460 c2        1 FEP     -0.159500
      7 C7         -2.2930    0.4970   -2.6570 c2        1 FEP     -0.125500
      8 C8         -2.7570    0.5900   -3.9610 c1        1 FEP     -0.165500
      9 C9         -3.3830   -0.4960   -4.5520 c1        1 FEP      0.027500
     10 C10        -3.5460   -1.6750   -3.8400 c1        1 FEP     -0.163000
     11 C11        -3.0820   -1.7670   -2.5370 c1        1 FEP     -0.127500
     12 C12         3.2360    1.9690    5.8650 c3        1 FEP     -0.258000
     13 C13         1.9360    0.0770    2.2460 c2        1 FEP     -0.159500
     14 C14         2.1160   -0.6760    3.3960 c2        1 FEP     -0.125500
     15 C15         2.5670   -0.0700    4.5590 c1        1 FEP     -0.165500
     16 C16         2.8390    1.2900    4.5710 c1        1 FEP      0.027500
     17 C17         2.6600    2.0420    3.4220 c1        1 FEP     -0.163000
     18 C18         2.2080    1.4360    2.2590 c1        1 FEP     -0.127500
     19 F1         -4.9660   -1.1860   -6.1160 f         1 FEP     -0.208750
     20 F2         -4.2460    0.8760   -6.2260 f         1 FEP     -0.208750
     21 P1         -2.5980   -0.9080   -7.1260 p5        1 FEP      1.561500
     22 OP1        -1.5330    0.1600   -7.1950 o         1 FEP     -0.880833
     23 OP2        -1.9840   -2.2010   -6.6480 o         1 FEP     -0.880833
     24 OP3        -3.1960   -1.1110   -8.4980 o         1 FEP     -0.880833
     25 F3          2.9980    3.2830    5.7700 f         1 FEP     -0.208750
     26 F4          2.5200    1.4580    6.8750 f         1 FEP     -0.208750
     27 P2          5.0040    1.6940    6.1760 p5        1 FEP      1.561500
     28 OP4         5.5160    2.7450    7.1320 o         1 FEP     -0.880833
     29 OP5         5.2020    0.3250    6.7810 o         1 FEP     -0.880833
     30 OP6         5.7640    1.7840    4.8750 o         1 FEP     -0.880833
     31 HC11       -2.3150   -1.5920   -0.1060 hc        1 FEP      0.061000
     32 HC12       -2.2850    0.0020   -0.0110 hc        1 FEP      0.061000
     33 HC21       -0.1410   -1.6140   -0.9470 hc        1 FEP      0.074000
     34 HC22       -0.1100   -0.0170   -0.9640 hc        1 FEP      0.074000
     35 HC31       -0.3990   -0.0700    1.4230 hc        1 FEP      0.074000
     36 HC32       -0.1900   -1.6520    1.3580 hc        1 FEP      0.074000
     37 HC41        1.9770   -1.4700    0.8900 hc        1 FEP      0.061000
     38 HC42        1.7990   -0.0430    0.1960 hc        1 FEP      0.061000
     39 HC7        -1.8520    1.2620   -2.2410 ha        1 FEP      0.093000
     40 HC8        -2.6420    1.4190   -4.4620 ha        1 FEP      0.132500
     41 H10        -3.9930   -2.4380   -4.2550 ha        1 FEP      0.135000
     42 H11        -3.1970   -2.5970   -2.0360 ha        1 FEP      0.090500
     43 H14         1.9240   -1.6330    3.3870 ha        1 FEP      0.093000
     44 H15         2.7040   -0.6020    5.3650 ha        1 FEP      0.132500
     45 H17         2.8730    2.9950    3.4240 ha        1 FEP      0.135000
     46 H18         2.0820    1.9670    1.4500 ha        1 FEP      0.090500
@<TRIPOS>BOND
     1    1    2 1   
     2    1    6 1   
     3    1   31 1   
     4    1   32 1   
     5    2    3 1   
     6    2   33 1   
     7    2   34 1   
     8    3    4 1   
     9    3   35 1   
    10    3   36 1   
    11    4   13 1   
    12    4   37 1   
    13    4   38 1   
    14    5    9 1   
    15    5   19 1   
    16    5   20 1   
    17    5   21 1   
    18    6    7 1   
    19    6   11 1   
    20    7    8 1   
    21    7   39 1   
    22    8   40 1   
    23    9   10 1   
    24   10   41 1   
    25   11   42 1   
    26   12   16 1   
    27   12   25 1   
    28   12   26 1   
    29   12   27 1   
    30   13   14 1   
    31   13   18 1   
    32   14   15 1   
    33   14   43 1   
    34   15   44 1   
    35   16   17 1   
    36   17   45 1   
    37   18   46 1   
    38   21   22 1   
    39   21   23 1   
    40   21   24 1   
    41   27   28 1   
    42   27   29 1   
    43   27   30 1   
@<TRIPOS>SUBSTRUCTURE
     1 FEP         1 TEMP              0 ****  ****    0 ROOT
