@<TRIPOS>MOLECULE
FER
   23    23     1     0     0
SMALL
bcc


@<TRIPOS>ATOM
      1 C4          0.1840    0.5020    0.3480 ca        1 FER      0.090100
      2 C5          1.5740    0.6530    0.4600 ca        1 FER     -0.154000
      3 C6          2.2400    0.1070    1.5520 ca        1 FER     -0.090000
      4 C3         -0.5190   -0.2050    1.3390 ca        1 FER     -0.014900
      5 C2          0.1560   -0.7600    2.4280 ca        1 FER     -0.135000
      6 C1          1.5440   -0.6060    2.5460 ca        1 FER     -0.020800
      7 C10        -2.6860    0.2670    2.1260 c3        1 FER      0.118700
      8 C7          2.2200   -1.2150    3.6790 ce        1 FER     -0.186200
      9 C8          3.3570   -0.8330    4.2690 cf        1 FER     -0.144200
     10 C9          4.2480    0.3500    3.9700 c         1 FER      0.895800
     11 O1          4.2240    1.3130    4.7860 o         1 FER     -0.831800
     12 O2          5.0070    0.2970    2.9580 o         1 FER     -0.831800
     13 O4         -0.4400    1.0490   -0.7530 oh        1 FER     -0.512100
     14 O3         -1.8880   -0.3950    1.1480 os        1 FER     -0.360900
     15 H5          2.1210    1.2080   -0.3140 ha        1 FER      0.141000
     16 H6          3.3380    0.2390    1.6580 ha        1 FER      0.211000
     17 H2         -0.4100   -1.3120    3.1910 ha        1 FER      0.127000
     18 H101       -2.4170   -0.0780    3.1530 h1        1 FER      0.032367
     19 H102       -2.5560    1.3730    2.0470 h1        1 FER      0.032367
     20 H103       -3.7330   -0.0290    1.8700 h1        1 FER      0.032367
     21 H7          1.6830   -2.0960    4.0790 ha        1 FER      0.084000
     22 H8          3.7260   -1.4200    5.1290 ha        1 FER      0.098000
     23 HO4        -1.3830    0.8400   -0.6770 ho        1 FER      0.418000
@<TRIPOS>BOND
     1    1    2 ar  
     2    1    4 ar  
     3    1   13 1   
     4    2    3 ar  
     5    2   15 1   
     6    3    6 ar  
     7    3   16 1   
     8    4    5 ar  
     9    4   14 1   
    10    5    6 ar  
    11    5   17 1   
    12    6    8 1   
    13    7   14 1   
    14    7   18 1   
    15    7   19 1   
    16    7   20 1   
    17    8    9 2   
    18    8   21 1   
    19    9   10 1   
    20    9   22 1   
    21   10   11 1   
    22   10   12 1   
    23   13   23 1   
@<TRIPOS>SUBSTRUCTURE
     1 FER         1 TEMP              0 ****  ****    0 ROOT
