@<TRIPOS>MOLECULE
FER
   23    19     1     0     0
SMALL
bcc


@<TRIPOS>ATOM
      1 C4         -0.5600    0.4930   -1.8790 c1        1 FER      0.019000
      2 C5          0.8260    0.4930   -1.8790 c1        1 FER     -0.145000
      3 C6          1.5190    0.4930   -0.6790 c1        1 FER     -0.145000
      4 C3         -1.2530    0.4930   -0.6790 c1        1 FER      0.004000
      5 C2         -0.5600    0.4930    0.5210 c1        1 FER     -0.127000
      6 C1          0.8260    0.4930    0.5210 c1        1 FER     -0.009000
      7 C10        -3.2560   -0.7410   -0.5010 c3        1 FER     -0.071000
      8 C7          1.6090    0.8950    1.7520 c2        1 FER     -0.196000
      9 C8          2.2620   -0.0390    2.4700 c1        1 FER     -0.125000
     10 C9          2.2130   -1.4910    2.0460 c1        1 FER      0.346000
     11 O1          3.1420   -1.9750    1.3480 o         1 FER     -0.567500
     12 O2          1.2600   -2.2240    2.4220 o         1 FER     -0.567500
     13 O4         -1.2640    0.4610   -3.0980 oh        1 FER     -0.267000
     14 O3         -2.6580    0.5230   -0.6790 os        1 FER     -0.223000
     15 H5          1.3140    0.4930   -2.7250 ha        1 FER      0.167000
     16 H6          2.4950    0.4930   -0.6790 ha        1 FER      0.167000
     17 H2         -1.0480    0.4930    1.3660 ha        1 FER      0.134000
     18 H101       -3.3610   -0.9200    0.4530 h1        1 FER      0.072000
     19 H102       -2.6890   -1.4290   -0.9010 h1        1 FER      0.072000
     20 H103       -4.1310   -0.7510   -0.9320 h1        1 FER      0.072000
     21 H7          1.6410    1.8320    2.0250 ha        1 FER      0.086000
     22 H8          2.7680    0.2200    3.2640 ha        1 FER      0.098000
     23 HO4        -1.0930    1.2010   -3.5570 ho        1 FER      0.205000
@<TRIPOS>BOND
     1    1    4 1   
     2    1   13 1   
     3    2    3 1   
     4    2   15 1   
     5    3   16 1   
     6    4   14 1   
     7    5    6 1   
     8    5   17 1   
     9    6    8 1   
    10    7   14 1   
    11    7   18 1   
    12    7   19 1   
    13    7   20 1   
    14    8    9 1   
    15    8   21 1   
    16    9   22 1   
    17   10   11 1   
    18   10   12 1   
    19   13   23 1   
@<TRIPOS>SUBSTRUCTURE
     1 FER         1 TEMP              0 ****  ****    0 ROOT
