@<TRIPOS>MOLECULE
FER
   23    23     1     0     0
SMALL
bcc


@<TRIPOS>ATOM
      1 C4         -1.0570   -0.1090    2.4780 ca        1 FER      0.072100
      2 C5         -1.9910   -0.0560    1.4370 ca        1 FER     -0.135000
      3 C6         -1.5540   -0.0590    0.1160 ca        1 FER     -0.138000
      4 C3          0.3190   -0.1730    2.1730 ca        1 FER      0.036100
      5 C2          0.7490   -0.1770    0.8470 ca        1 FER     -0.171000
      6 C1         -0.1870   -0.1150   -0.2010 ca        1 FER      0.000200
      7 C10         2.5350    0.0110    3.0120 c3        1 FER      0.124700
      8 C7          0.2960   -0.1160   -1.5690 ce        1 FER     -0.188200
      9 C8         -0.4330    0.1280   -2.6650 cf        1 FER     -0.154200
     10 C9          0.1600    0.1110   -4.0600 c         1 FER      0.889800
     11 O1          1.4010   -0.0850   -4.1960 o         1 FER     -0.832300
     12 O2         -0.6400    0.2980   -5.0220 o         1 FER     -0.832300
     13 O4         -1.5400   -0.1100    3.7710 oh        1 FER     -0.512100
     14 O3          1.1630   -0.2520    3.2760 os        1 FER     -0.360900
     15 H5         -3.0620   -0.0110    1.6800 ha        1 FER      0.136000
     16 H6         -2.2950   -0.0170   -0.6970 ha        1 FER      0.143000
     17 H2          1.8200   -0.2280    0.6050 ha        1 FER      0.140000
     18 H101        2.9970    0.0580    4.0300 h1        1 FER      0.039033
     19 H102        2.9810   -0.8240    2.4180 h1        1 FER      0.039033
     20 H103        2.6610    0.9810    2.4730 h1        1 FER      0.039033
     21 H7          1.3750   -0.3290   -1.6970 ha        1 FER      0.143000
     22 H8         -1.5090    0.3580   -2.6300 ha        1 FER      0.100000
     23 HO4        -0.7760   -0.0930    4.3650 ho        1 FER      0.423000
@<TRIPOS>BOND
     1    1    2 ar  
     2    1    4 ar  
     3    1   13 1   
     4    2    3 ar  
     5    2   15 1   
     6    3    6 ar  
     7    3   16 1   
     8    4    5 ar  
     9    4   14 1   
    10    5    6 ar  
    11    5   17 1   
    12    6    8 1   
    13    7   14 1   
    14    7   18 1   
    15    7   19 1   
    16    7   20 1   
    17    8    9 2   
    18    8   21 1   
    19    9   10 1   
    20    9   22 1   
    21   10   11 1   
    22   10   12 1   
    23   13   23 1   
@<TRIPOS>SUBSTRUCTURE
     1 FER         1 TEMP              0 ****  ****    0 ROOT
