@<TRIPOS>MOLECULE
FER
   23    23     1     0     0
SMALL
bcc


@<TRIPOS>ATOM
      1 C4          0.1910    0.4420    0.3290 ca        1 FER      0.090100
      2 C5          1.5850    0.5610    0.4320 ca        1 FER     -0.154000
      3 C6          2.2400    0.0440    1.5430 ca        1 FER     -0.090000
      4 C3         -0.5260   -0.2050    1.3510 ca        1 FER     -0.014900
      5 C2          0.1380   -0.7320    2.4600 ca        1 FER     -0.135000
      6 C1          1.5310   -0.6090    2.5670 ca        1 FER     -0.020800
      7 C10        -2.6770    0.3540    2.1230 c3        1 FER      0.118700
      8 C7          2.1940   -1.1890    3.7230 ce        1 FER     -0.186200
      9 C8          3.3430   -0.8120    4.2940 cf        1 FER     -0.144200
     10 C9          4.2630    0.3330    3.9430 c         1 FER      0.895800
     11 O1          4.2680    1.3300    4.7180 o         1 FER     -0.831800
     12 O2          5.0170    0.2190    2.9320 o         1 FER     -0.831800
     13 O4         -0.4230    0.9590   -0.7920 oh        1 FER     -0.512100
     14 O3         -1.9010   -0.3680    1.1710 os        1 FER     -0.360900
     15 H5          2.1430    1.0690   -0.3660 ha        1 FER      0.141000
     16 H6          3.3420    0.1510    1.6400 ha        1 FER      0.211000
     17 H2         -0.4390   -1.2380    3.2470 ha        1 FER      0.127000
     18 H101       -2.4130    0.0450    3.1630 h1        1 FER      0.032367
     19 H102       -2.5190    1.4530    1.9990 h1        1 FER      0.032367
     20 H103       -3.7330    0.0750    1.8830 h1        1 FER      0.032367
     21 H7          1.6360   -2.0390    4.1610 ha        1 FER      0.084000
     22 H8          3.7010   -1.3730    5.1760 ha        1 FER      0.098000
     23 HO4        -1.3710    0.7770   -0.7050 ho        1 FER      0.418000
@<TRIPOS>BOND
     1    1    2 ar  
     2    1    4 ar  
     3    1   13 1   
     4    2    3 ar  
     5    2   15 1   
     6    3    6 ar  
     7    3   16 1   
     8    4    5 ar  
     9    4   14 1   
    10    5    6 ar  
    11    5   17 1   
    12    6    8 1   
    13    7   14 1   
    14    7   18 1   
    15    7   19 1   
    16    7   20 1   
    17    8    9 2   
    18    8   21 1   
    19    9   10 1   
    20    9   22 1   
    21   10   11 1   
    22   10   12 1   
    23   13   23 1   
@<TRIPOS>SUBSTRUCTURE
     1 FER         1 TEMP              0 ****  ****    0 ROOT
