@<TRIPOS>MOLECULE
FEX
   77    80     1     0     0
SMALL
bcc


@<TRIPOS>ATOM
      1 C26         1.2150    2.4070    2.1960 c3        1 FEX      0.123700
      2 O2          1.7770    1.0960    2.3200 os        1 FEX     -0.412900
      3 C25         3.0550    0.9160    1.8990 c         1 FEX      0.644100
      4 O3          3.6650    1.8910    1.4360 o         1 FEX     -0.610000
      5 C24         3.5230   -0.5010    2.0510 c3        1 FEX     -0.131400
      6 C23         4.7590   -0.6280    2.9250 c3        1 FEX     -0.040100
      7 C21         6.0020   -0.1710    2.2430 ca        1 FEX     -0.061300
      8 C20         6.8710   -1.0870    1.6350 ca        1 FEX     -0.079000
      9 C19         8.0100   -0.6360    0.9710 ca        1 FEX     -0.112000
     10 C18         8.3030    0.7250    0.8890 ca        1 FEX     -0.094000
     11 C17         7.4460    1.6430    1.5150 ca        1 FEX     -0.036400
     12 C22         6.3030    1.1920    2.2040 ca        1 FEX     -0.097000
     13 N2          7.6820    3.0940    1.4820 n4        1 FEX     -0.469600
     14 C15         6.7860    3.8050    0.4970 c3        1 FEX      0.177100
     15 C12         6.7340    3.2720   -0.8950 ca        1 FEX     -0.125300
     16 C13         7.6810    3.6630   -1.8490 ca        1 FEX     -0.086500
     17 C14         7.5420    3.2710   -3.1780 ca        1 FEX     -0.111000
     18 C9          6.4520    2.4820   -3.5740 cp        1 FEX     -0.040000
     19 C10         5.5170    2.0740   -2.6120 ca        1 FEX     -0.111000
     20 C11         5.6540    2.4680   -1.2830 ca        1 FEX     -0.086500
     21 C6          6.2860    2.1080   -4.9780 cp        1 FEX      0.018000
     22 C7          6.5560    3.0380   -5.9940 ca        1 FEX     -0.099000
     23 C8          6.3930    2.7010   -7.3340 ca        1 FEX     -0.097000
     24 C1          5.9530    1.4090   -7.6750 ca        1 FEX     -0.050400
     25 C4          5.6810    0.4670   -6.6680 ca        1 FEX     -0.097000
     26 C5          5.8480    0.8230   -5.3320 ca        1 FEX     -0.099000
     27 N1          5.7800    1.0590   -9.0960 n4        1 FEX     -0.548800
     28 C2          6.6900   -0.0510   -9.4950 c3        1 FEX      0.088100
     29 C3          4.3610    0.7230   -9.4010 c3        1 FEX      0.088100
     30 C16         9.1510    3.4790    1.3430 c         1 FEX      0.556100
     31 O1          9.6930    3.2940    0.2660 o         1 FEX     -0.424100
     32 C27         9.7690    4.0880    2.5860 c3        1 FEX     -0.132700
     33 C28         9.9310    3.0340    3.6760 c3        1 FEX     -0.076400
     34 C29        10.5800    3.6490    4.9020 c3        1 FEX     -0.079900
     35 C30        11.9100    4.2880    4.5630 c3        1 FEX     -0.087400
     36 C31        11.7640    5.3080    3.4530 c3        1 FEX     -0.079900
     37 C32        11.1200    4.7000    2.2230 c3        1 FEX     -0.076400
     38 H261        1.2110    2.7180    1.1240 h1        1 FEX      0.060700
     39 H262        1.8040    3.1300    2.8080 h1        1 FEX      0.060700
     40 H263        0.1760    2.2810    2.5930 h1        1 FEX      0.060700
     41 H241        2.6930   -1.1100    2.5040 hc        1 FEX      0.094700
     42 H242        3.7260   -0.9020    1.0220 hc        1 FEX      0.094700
     43 H231        4.6100   -0.0450    3.8750 hc        1 FEX      0.079700
     44 H232        4.8670   -1.7090    3.2160 hc        1 FEX      0.079700
     45 H20         6.6540   -2.1670    1.6840 ha        1 FEX      0.165000
     46 H19         8.6930   -1.3620    0.4970 ha        1 FEX      0.166000
     47 H18         9.1960    1.0510    0.3320 ha        1 FEX      0.166000
     48 H22         5.6090    1.9020    2.6870 ha        1 FEX      0.164000
     49 H151        7.1340    4.8790    0.4750 hx        1 FEX      0.108200
     50 H152        5.7420    3.7550    0.9380 hx        1 FEX      0.108200
     51 H13         8.5440    4.2830   -1.5560 ha        1 FEX      0.164500
     52 H14         8.2960    3.5840   -3.9180 ha        1 FEX      0.150500
     53 H10         4.6540    1.4570   -2.9080 ha        1 FEX      0.150500
     54 H11         4.8980    2.1590   -0.5370 ha        1 FEX      0.164500
     55 H7          6.8940    4.0550   -5.7320 ha        1 FEX      0.170000
     56 H8          6.6100    3.4590   -8.1060 ha        1 FEX      0.159000
     57 H4          5.3380   -0.5520   -6.9130 ha        1 FEX      0.159000
     58 H5          5.6370    0.0780   -4.5460 ha        1 FEX      0.170000
     59 H21         6.5710   -0.2430  -10.5950 hx        1 FEX      0.107367
     60 H22A        7.7500    0.2420   -9.2690 hx        1 FEX      0.107367
     61 H23         6.4280   -0.9780   -8.9190 hx        1 FEX      0.107367
     62 H31A        4.2620    0.5230  -10.5020 hx        1 FEX      0.107367
     63 H32A        3.7050    1.5860   -9.1070 hx        1 FEX      0.107367
     64 H33         4.0570   -0.1900   -8.8230 hx        1 FEX      0.107367
     65 H28        10.5730    2.1960    3.2960 hc        1 FEX      0.059450
     66 H29         9.8940    4.4170    5.3470 hc        1 FEX      0.062700
     67 H30        12.3260    4.7890    5.4770 hc        1 FEX      0.065200
     68 H31        12.7750    5.7060    3.1720 hc        1 FEX      0.062700
     69 H32        11.7860    3.9060    1.7940 hc        1 FEX      0.059450
     70 HC1         9.0940    4.9120    2.9620 hc        1 FEX      0.090700
     71 HC2        10.9770    5.4860    1.4370 hc        1 FEX      0.059450
     72 HC3        11.1500    6.1750    3.8120 hc        1 FEX      0.062700
     73 HC4        12.6410    3.4960    4.2530 hc        1 FEX      0.065200
     74 HC5        10.7330    2.8470    5.6720 hc        1 FEX      0.062700
     75 HC6         8.9340    2.6070    3.9580 hc        1 FEX      0.059450
     76 H211        7.3920    3.4420    2.4120 hn        1 FEX      0.451800
     77 H111        6.0330    1.8900   -9.6530 hn        1 FEX      0.455800
@<TRIPOS>BOND
     1    1    2 1   
     2    1   38 1   
     3    1   39 1   
     4    1   40 1   
     5    2    3 1   
     6    3    4 2   
     7    3    5 1   
     8    5    6 1   
     9    5   41 1   
    10    5   42 1   
    11    6    7 1   
    12    6   43 1   
    13    6   44 1   
    14    7    8 ar  
    15    7   12 ar  
    16    8    9 ar  
    17    8   45 1   
    18    9   10 ar  
    19    9   46 1   
    20   10   11 ar  
    21   10   47 1   
    22   11   12 ar  
    23   11   13 1   
    24   12   48 1   
    25   13   14 1   
    26   13   30 1   
    27   13   76 1   
    28   14   15 1   
    29   14   49 1   
    30   14   50 1   
    31   15   16 ar  
    32   15   20 ar  
    33   16   17 ar  
    34   16   51 1   
    35   17   18 ar  
    36   17   52 1   
    37   18   19 ar  
    38   18   21 1   
    39   19   20 ar  
    40   19   53 1   
    41   20   54 1   
    42   21   22 ar  
    43   21   26 ar  
    44   22   23 ar  
    45   22   55 1   
    46   23   24 ar  
    47   23   56 1   
    48   24   25 ar  
    49   24   27 1   
    50   25   26 ar  
    51   25   57 1   
    52   26   58 1   
    53   27   28 1   
    54   27   29 1   
    55   27   77 1   
    56   28   59 1   
    57   28   60 1   
    58   28   61 1   
    59   29   62 1   
    60   29   63 1   
    61   29   64 1   
    62   30   31 2   
    63   30   32 1   
    64   32   33 1   
    65   32   37 1   
    66   32   70 1   
    67   33   34 1   
    68   33   65 1   
    69   33   75 1   
    70   34   35 1   
    71   34   66 1   
    72   34   74 1   
    73   35   36 1   
    74   35   67 1   
    75   35   73 1   
    76   36   37 1   
    77   36   68 1   
    78   36   72 1   
    79   37   69 1   
    80   37   71 1   
@<TRIPOS>SUBSTRUCTURE
     1 FEX         1 TEMP              0 ****  ****    0 ROOT
