@<TRIPOS>MOLECULE
FEX
   75    78     1     0     0
SMALL
bcc


@<TRIPOS>ATOM
      1 C26        -0.7920   -0.4420    4.4560 c3        1 FEX      0.125700
      2 O2          0.4590   -0.6760    3.8090 os        1 FEX     -0.441900
      3 C25         1.4190    0.2900    3.9530 c         1 FEX      0.628100
      4 O3          1.1450    1.2840    4.6280 o         1 FEX     -0.542000
      5 C24         2.6810   -0.0340    3.2170 c3        1 FEX     -0.124400
      6 C23         3.8980    0.3430    4.0430 c3        1 FEX     -0.034100
      7 C21         5.1530    0.1580    3.2630 ca        1 FEX     -0.079300
      8 C20         5.6210   -1.1310    2.9850 ca        1 FEX     -0.134000
      9 C19         6.8060   -1.3010    2.2750 ca        1 FEX     -0.117000
     10 C18         7.5290   -0.2000    1.8250 ca        1 FEX     -0.116000
     11 C17         7.0680    1.1060    2.0910 ca        1 FEX      0.055600
     12 C22         5.8740    1.2700    2.8260 ca        1 FEX     -0.136000
     13 N2          7.7880    2.2520    1.6450 n         1 FEX     -0.391000
     14 C15         7.0680    3.1870    0.8110 c3        1 FEX      0.142300
     15 C12         7.0580    2.9190   -0.6690 ca        1 FEX     -0.116300
     16 C13         8.1180    2.3030   -1.3380 ca        1 FEX     -0.121000
     17 C14         8.0690    2.1120   -2.7170 ca        1 FEX     -0.121500
     18 C9          6.9570    2.5370   -3.4570 cp        1 FEX     -0.017000
     19 C10         5.8940    3.1550   -2.7830 ca        1 FEX     -0.121500
     20 C11         5.9430    3.3410   -1.4060 ca        1 FEX     -0.121000
     21 C6          6.9060    2.3380   -4.9020 cp        1 FEX     -0.089000
     22 C7          8.0490    2.5110   -5.6930 ca        1 FEX     -0.081000
     23 C8          8.0080    2.3260   -7.0680 ca        1 FEX     -0.191000
     24 C1          6.8020    1.9610   -7.7160 ca        1 FEX      0.167600
     25 C4          5.6540    1.7750   -6.9070 ca        1 FEX     -0.191000
     26 C5          5.7120    1.9680   -5.5340 ca        1 FEX     -0.081000
     27 N1          6.7310    1.8580   -9.1180 nh        1 FEX     -0.655000
     28 C2          7.9730    1.7170   -9.8350 c3        1 FEX      0.185100
     29 C3          5.5950    1.1690   -9.6740 c3        1 FEX      0.185100
     30 C16         9.1750    2.3210    1.8210 c         1 FEX      0.662100
     31 O1          9.7760    1.4110    2.4220 o         1 FEX     -0.589100
     32 C27         9.9320    3.5510    1.3230 c3        1 FEX     -0.129700
     33 C28         9.8830    4.6350    2.3920 c3        1 FEX     -0.071900
     34 C29        10.6890    5.8460    1.9690 c3        1 FEX     -0.076900
     35 C30        12.1210    5.4700    1.6470 c3        1 FEX     -0.078400
     36 C31        12.1780    4.3780    0.5980 c3        1 FEX     -0.076900
     37 C32        11.3750    3.1650    1.0180 c3        1 FEX     -0.071900
     38 H261       -0.6390   -0.3480    5.5580 h1        1 FEX      0.051033
     39 H262       -1.2590    0.4900    4.0550 h1        1 FEX      0.051033
     40 H263       -1.3960   -1.3460    4.2010 h1        1 FEX      0.051033
     41 H241        2.7050   -1.1260    2.9600 hc        1 FEX      0.081700
     42 H242        2.6670    0.5460    2.2550 hc        1 FEX      0.081700
     43 H231        3.9350   -0.2960    4.9650 hc        1 FEX      0.064700
     44 H232        3.7960    1.4100    4.3830 hc        1 FEX      0.064700
     45 H20         5.0550   -2.0060    3.3360 ha        1 FEX      0.132000
     46 H19         7.1800   -2.3140    2.0660 ha        1 FEX      0.135000
     47 H18         8.4780   -0.3510    1.2860 ha        1 FEX      0.151000
     48 H22         5.5050    2.2780    3.0710 ha        1 FEX      0.136000
     49 H151        7.4940    4.2220    0.9760 h1        1 FEX      0.063200
     50 H152        5.9960    3.2140    1.1700 h1        1 FEX      0.063200
     51 H13         9.0040    1.9580   -0.7800 ha        1 FEX      0.133000
     52 H14         8.9080    1.6160   -3.2280 ha        1 FEX      0.136500
     53 H10         5.0160    3.5000   -3.3510 ha        1 FEX      0.136500
     54 H11         5.0990    3.8260   -0.8920 ha        1 FEX      0.133000
     55 H7          8.9980    2.8050   -5.2180 ha        1 FEX      0.132500
     56 H8          8.9330    2.4760   -7.6430 ha        1 FEX      0.134000
     57 H4          4.6930    1.4770   -7.3530 ha        1 FEX      0.134000
     58 H5          4.8030    1.8150   -4.9310 ha        1 FEX      0.132500
     59 H21         8.5990    0.8660   -9.4490 h1        1 FEX      0.038367
     60 H22A        7.7680    1.5460  -10.9240 h1        1 FEX      0.038367
     61 H23         8.5600    2.6690   -9.7350 h1        1 FEX      0.038367
     62 H31A        4.6680    1.7700   -9.4660 h1        1 FEX      0.038367
     63 H32A        5.4600    0.1400   -9.2430 h1        1 FEX      0.038367
     64 H33         5.7090    1.0790  -10.7860 h1        1 FEX      0.038367
     65 H28         8.8190    4.9370    2.5790 hc        1 FEX      0.053950
     66 H29        10.6760    6.6050    2.7930 hc        1 FEX      0.041950
     67 H30        12.6720    6.3740    1.2790 hc        1 FEX      0.042700
     68 H31        11.7830    4.7730   -0.3750 hc        1 FEX      0.041950
     69 H32        11.3860    2.3970    0.2020 hc        1 FEX      0.053950
     70 HC1         9.4720    3.9410    0.3720 hc        1 FEX      0.069700
     71 HC2        11.8330    2.6950    1.9280 hc        1 FEX      0.053950
     72 HC3        13.2440    4.0740    0.4300 hc        1 FEX      0.041950
     73 HC4        12.6330    5.1170    2.5800 hc        1 FEX      0.042700
     74 HC5        10.2140    6.3170    1.0690 hc        1 FEX      0.041950
     75 HC6        10.2930    4.2230    3.3520 hc        1 FEX      0.053950
@<TRIPOS>BOND
     1    1    2 1   
     2    1   38 1   
     3    1   39 1   
     4    1   40 1   
     5    2    3 1   
     6    3    4 2   
     7    3    5 1   
     8    5    6 1   
     9    5   41 1   
    10    5   42 1   
    11    6    7 1   
    12    6   43 1   
    13    6   44 1   
    14    7    8 ar  
    15    7   12 ar  
    16    8    9 ar  
    17    8   45 1   
    18    9   10 ar  
    19    9   46 1   
    20   10   11 ar  
    21   10   47 1   
    22   11   12 ar  
    23   11   13 1   
    24   12   48 1   
    25   13   14 1   
    26   13   30 1   
    27   14   15 1   
    28   14   49 1   
    29   14   50 1   
    30   15   16 ar  
    31   15   20 ar  
    32   16   17 ar  
    33   16   51 1   
    34   17   18 ar  
    35   17   52 1   
    36   18   19 ar  
    37   18   21 1   
    38   19   20 ar  
    39   19   53 1   
    40   20   54 1   
    41   21   22 ar  
    42   21   26 ar  
    43   22   23 ar  
    44   22   55 1   
    45   23   24 ar  
    46   23   56 1   
    47   24   25 ar  
    48   24   27 1   
    49   25   26 ar  
    50   25   57 1   
    51   26   58 1   
    52   27   28 1   
    53   27   29 1   
    54   28   59 1   
    55   28   60 1   
    56   28   61 1   
    57   29   62 1   
    58   29   63 1   
    59   29   64 1   
    60   30   31 2   
    61   30   32 1   
    62   32   33 1   
    63   32   37 1   
    64   32   70 1   
    65   33   34 1   
    66   33   65 1   
    67   33   75 1   
    68   34   35 1   
    69   34   66 1   
    70   34   74 1   
    71   35   36 1   
    72   35   67 1   
    73   35   73 1   
    74   36   37 1   
    75   36   68 1   
    76   36   72 1   
    77   37   69 1   
    78   37   71 1   
@<TRIPOS>SUBSTRUCTURE
     1 FEX         1 TEMP              0 ****  ****    0 ROOT
