@<TRIPOS>MOLECULE
FEX
   75    78     1     0     0
SMALL
bcc


@<TRIPOS>ATOM
      1 C26         1.4920   -0.1500   10.4070 c3        1 FEX      0.125700
      2 O2          1.7770    0.3160    9.0880 os        1 FEX     -0.441900
      3 C25         1.0120   -0.1950    8.0740 c         1 FEX      0.628100
      4 O3          0.1330   -1.0100    8.3640 o         1 FEX     -0.542000
      5 C24         1.4040    0.3310    6.7290 c3        1 FEX     -0.124400
      6 C23         0.1760    0.6260    5.8870 c3        1 FEX     -0.034100
      7 C21         0.5580    1.0110    4.5000 ca        1 FEX     -0.079300
      8 C20         1.1480    2.2550    4.2550 ca        1 FEX     -0.134000
      9 C19         1.4830    2.6200    2.9540 ca        1 FEX     -0.117000
     10 C18         1.2470    1.7550    1.8890 ca        1 FEX     -0.116000
     11 C17         0.6580    0.4950    2.1200 ca        1 FEX      0.054600
     12 C22         0.3070    0.1380    3.4400 ca        1 FEX     -0.136000
     13 N2          0.4040   -0.4120    1.0500 n         1 FEX     -0.391000
     14 C15         0.9960   -1.7250    1.1560 c3        1 FEX      0.142300
     15 C12         2.3980   -1.8890    0.6350 ca        1 FEX     -0.114300
     16 C13         2.9010   -1.1510   -0.4390 ca        1 FEX     -0.121500
     17 C14         4.1970   -1.3710   -0.9020 ca        1 FEX     -0.119500
     18 C9          5.0160   -2.3370   -0.3010 cp        1 FEX     -0.022000
     19 C10         4.5080   -3.0760    0.7780 ca        1 FEX     -0.119500
     20 C11         3.2150   -2.8530    1.2400 ca        1 FEX     -0.121500
     21 C6          6.3730   -2.5680   -0.7860 cp        1 FEX     -0.072000
     22 C7          6.6570   -2.5490   -2.1570 ca        1 FEX     -0.093000
     23 C8          7.9460   -2.7760   -2.6250 ca        1 FEX     -0.170500
     24 C1          9.0100   -3.0180   -1.7280 ca        1 FEX      0.141600
     25 C4          8.7160   -3.0310   -0.3440 ca        1 FEX     -0.170500
     26 C5          7.4220   -2.8140    0.1100 ca        1 FEX     -0.093000
     27 N1         10.3520   -3.1640   -2.1610 nh        1 FEX     -0.643000
     28 C2         10.6240   -2.8490   -3.5420 c3        1 FEX      0.173600
     29 C3         11.0460   -4.3400   -1.6900 c3        1 FEX      0.173600
     30 C16        -0.1910    0.0470   -0.1310 c         1 FEX      0.662100
     31 O1         -0.5550    1.2340   -0.2280 o         1 FEX     -0.588100
     32 C27        -0.4430   -0.9350   -1.2730 c3        1 FEX     -0.129700
     33 C28        -1.7740   -1.6380   -1.0430 c3        1 FEX     -0.071900
     34 C29        -2.0990   -2.5660   -2.1960 c3        1 FEX     -0.076900
     35 C30        -2.1000   -1.8260   -3.5170 c3        1 FEX     -0.078400
     36 C31        -0.7860   -1.1070   -3.7450 c3        1 FEX     -0.076900
     37 C32        -0.4590   -0.1770   -2.5950 c3        1 FEX     -0.071900
     38 H261        2.2280    0.3970   11.0460 h1        1 FEX      0.051033
     39 H262        1.6430   -1.2550   10.4620 h1        1 FEX      0.051033
     40 H263        0.4410    0.1060   10.6820 h1        1 FEX      0.051033
     41 H241        2.0300    1.2550    6.8480 hc        1 FEX      0.081700
     42 H242        2.0380   -0.4530    6.2340 hc        1 FEX      0.081700
     43 H231       -0.4060    1.4640    6.3580 hc        1 FEX      0.064700
     44 H232       -0.4910   -0.2780    5.8790 hc        1 FEX      0.064700
     45 H20         1.3390    2.9440    5.0910 ha        1 FEX      0.133000
     46 H19         1.9380    3.6040    2.7600 ha        1 FEX      0.136000
     47 H18         1.4950    2.0700    0.8640 ha        1 FEX      0.151000
     48 H22        -0.1790   -0.8290    3.6460 ha        1 FEX      0.136000
     49 H151        0.3350   -2.4660    0.6170 h1        1 FEX      0.063200
     50 H152        0.9920   -2.0180    2.2480 h1        1 FEX      0.063200
     51 H13         2.2810   -0.3840   -0.9290 ha        1 FEX      0.133000
     52 H14         4.5840   -0.7740   -1.7420 ha        1 FEX      0.136500
     53 H10         5.1360   -3.8420    1.2580 ha        1 FEX      0.136500
     54 H11         2.8330   -3.4400    2.0900 ha        1 FEX      0.133000
     55 H7          5.8460   -2.3640   -2.8790 ha        1 FEX      0.133500
     56 H8          8.1190   -2.7640   -3.7120 ha        1 FEX      0.136000
     57 H4          9.5170   -3.1970    0.3930 ha        1 FEX      0.136000
     58 H5          7.2210   -2.8210    1.1930 ha        1 FEX      0.133500
     59 H21        11.7370   -2.8120   -3.6820 h1        1 FEX      0.037367
     60 H22A       10.1990   -1.8390   -3.7830 h1        1 FEX      0.037367
     61 H23        10.2010   -3.6030   -4.2600 h1        1 FEX      0.037367
     62 H31A       10.7780   -5.2610   -2.2770 h1        1 FEX      0.037367
     63 H32A       10.8110   -4.5250   -0.6100 h1        1 FEX      0.037367
     64 H33        12.1490   -4.1610   -1.7920 h1        1 FEX      0.037367
     65 H28        -2.5830   -0.8680   -0.9380 hc        1 FEX      0.054450
     66 H29        -3.1040   -3.0310   -2.0240 hc        1 FEX      0.041450
     67 H30        -2.9390   -1.0810   -3.5260 hc        1 FEX      0.042700
     68 H31         0.0360   -1.8610   -3.8650 hc        1 FEX      0.041450
     69 H32         0.5430    0.2970   -2.7610 hc        1 FEX      0.054450
     70 HC1         0.3820   -1.7010   -1.3250 hc        1 FEX      0.068700
     71 HC2        -1.2160    0.6490   -2.5400 hc        1 FEX      0.054450
     72 HC3        -0.8410   -0.5150   -4.6950 hc        1 FEX      0.041450
     73 HC4        -2.2830   -2.5500   -4.3530 hc        1 FEX      0.042700
     74 HC5        -1.3450   -3.3960   -2.2320 hc        1 FEX      0.041450
     75 HC6        -1.7360   -2.2230   -0.0870 hc        1 FEX      0.054450
@<TRIPOS>BOND
     1    1    2 1   
     2    1   38 1   
     3    1   39 1   
     4    1   40 1   
     5    2    3 1   
     6    3    4 2   
     7    3    5 1   
     8    5    6 1   
     9    5   41 1   
    10    5   42 1   
    11    6    7 1   
    12    6   43 1   
    13    6   44 1   
    14    7    8 ar  
    15    7   12 ar  
    16    8    9 ar  
    17    8   45 1   
    18    9   10 ar  
    19    9   46 1   
    20   10   11 ar  
    21   10   47 1   
    22   11   12 ar  
    23   11   13 1   
    24   12   48 1   
    25   13   14 1   
    26   13   30 1   
    27   14   15 1   
    28   14   49 1   
    29   14   50 1   
    30   15   16 ar  
    31   15   20 ar  
    32   16   17 ar  
    33   16   51 1   
    34   17   18 ar  
    35   17   52 1   
    36   18   19 ar  
    37   18   21 1   
    38   19   20 ar  
    39   19   53 1   
    40   20   54 1   
    41   21   22 ar  
    42   21   26 ar  
    43   22   23 ar  
    44   22   55 1   
    45   23   24 ar  
    46   23   56 1   
    47   24   25 ar  
    48   24   27 1   
    49   25   26 ar  
    50   25   57 1   
    51   26   58 1   
    52   27   28 1   
    53   27   29 1   
    54   28   59 1   
    55   28   60 1   
    56   28   61 1   
    57   29   62 1   
    58   29   63 1   
    59   29   64 1   
    60   30   31 2   
    61   30   32 1   
    62   32   33 1   
    63   32   37 1   
    64   32   70 1   
    65   33   34 1   
    66   33   65 1   
    67   33   75 1   
    68   34   35 1   
    69   34   66 1   
    70   34   74 1   
    71   35   36 1   
    72   35   67 1   
    73   35   73 1   
    74   36   37 1   
    75   36   68 1   
    76   36   72 1   
    77   37   69 1   
    78   37   71 1   
@<TRIPOS>SUBSTRUCTURE
     1 FEX         1 TEMP              0 ****  ****    0 ROOT
