@<TRIPOS>MOLECULE
FEX
   75    68     1     0     0
SMALL
bcc


@<TRIPOS>ATOM
      1 C26        -3.5710    2.0490    8.8600 c3        1 FEX     -0.064000
      2 O2         -3.4170    1.0220    7.8610 os        1 FEX     -0.280000
      3 C25        -4.3900    1.0680    6.8450 c2        1 FEX      0.298000
      4 O3         -5.3790    1.7990    6.9720 o         1 FEX     -0.354000
      5 C24        -4.2830    0.1060    5.6220 c3        1 FEX     -0.154000
      6 C23        -4.0630    0.9340    4.3290 c3        1 FEX     -0.120000
      7 C21        -3.0940    0.1860    3.4040 c2        1 FEX     -0.072000
      8 C20        -3.3310   -1.1420    3.0830 c1        1 FEX     -0.133000
      9 C19        -2.4660   -1.8150    2.2530 c1        1 FEX     -0.126000
     10 C18        -1.3550   -1.1680    1.7350 c1        1 FEX     -0.126000
     11 C17        -1.1160    0.1500    2.0500 c1        1 FEX      0.062000
     12 C22        -1.9890    0.8320    2.8890 c2        1 FEX     -0.137000
     13 N2          0.0880    0.8200    1.5320 n         1 FEX     -0.294000
     14 C15        -0.0200    1.7540    0.3770 c3        1 FEX      0.019000
     15 C12        -0.0460    0.9360   -0.9540 c2        1 FEX     -0.109000
     16 C13        -0.8550    1.3500   -2.0060 c2        1 FEX     -0.122000
     17 C14        -0.7720    0.7220   -3.2230 c1        1 FEX     -0.121000
     18 C9          0.1200   -0.3270   -3.4040 c1        1 FEX     -0.053000
     19 C10         0.9140   -0.7330   -2.3700 c1        1 FEX     -0.101500
     20 C11         0.8310   -0.0950   -1.1340 c1        1 FEX     -0.119000
     21 C6          0.1690   -1.0220   -4.6600 c1        1 FEX     -0.053000
     22 C7         -0.7160   -2.0600   -4.9140 c1        1 FEX     -0.126000
     23 C8         -0.6920   -2.7160   -6.1550 c1        1 FEX     -0.126000
     24 C1          0.2060   -2.3300   -7.1180 c1        1 FEX      0.086000
     25 C4          1.0980   -1.2820   -6.8630 c1        1 FEX     -0.191000
     26 C5          1.0750   -0.6320   -5.6340 c1        1 FEX     -0.101500
     27 N1          0.3160   -3.0930   -8.3630 n3        1 FEX     -0.257000
     28 C2          1.5650   -3.2720   -8.9570 c3        1 FEX     -0.091000
     29 C3         -0.7940   -3.8020   -8.8480 c3        1 FEX     -0.091000
     30 C16         1.3790    0.6610    2.2340 c2        1 FEX      0.306000
     31 O1          1.4470   -0.0350    3.2600 o         1 FEX     -0.350000
     32 C27         2.6400    1.3920    1.7120 c3        1 FEX     -0.119000
     33 C28         2.7790    2.5760    2.4150 c3        1 FEX     -0.151000
     34 C29         3.9780    2.8620    3.0700 c2        1 FEX     -0.155000
     35 C30         5.0420    1.9520    3.0180 c2        1 FEX     -0.156500
     36 C31         4.8920    0.7530    2.3030 c2        1 FEX     -0.156500
     37 C32         3.6920    0.4750    1.6520 c2        1 FEX     -0.150000
     38 H261       -2.8170    2.0110    9.4880 h1        1 FEX      0.090000
     39 H262       -3.5910    2.9240    8.4260 h1        1 FEX      0.090000
     40 H263       -4.4110    1.9080    9.3470 h1        1 FEX      0.090000
     41 H241       -5.1210   -0.4170    5.5410 hc        1 FEX      0.124000
     42 H242       -3.5260   -0.5070    5.7520 hc        1 FEX      0.124000
     43 H231       -3.6910    1.7950    4.5580 hc        1 FEX      0.103000
     44 H232       -4.9230    1.0600    3.8700 hc        1 FEX      0.103000
     45 H20        -4.1100   -1.5980    3.4460 ha        1 FEX      0.134000
     46 H19        -2.6390   -2.7720    2.0230 ha        1 FEX      0.138500
     47 H18        -0.7380   -1.6500    1.1410 ha        1 FEX      0.138500
     48 H22        -1.8200    1.7770    3.1160 ha        1 FEX      0.134000
     49 H151       -0.8680    2.2920    0.4580 h1        1 FEX      0.102000
     50 H152        0.7490    2.3560    0.3730 h1        1 FEX      0.102000
     51 H13        -1.5050    2.1150   -1.8750 ha        1 FEX      0.131000
     52 H14        -1.3480    1.0160   -3.9730 ha        1 FEX      0.137000
     53 H10         1.5620   -1.4940   -2.5020 ha        1 FEX      0.134000
     54 H11         1.4050   -0.3890   -0.3870 ha        1 FEX      0.134000
     55 H7         -1.3610   -2.3370   -4.2220 ha        1 FEX      0.138500
     56 H8         -1.3260   -3.4600   -6.3370 ha        1 FEX      0.138500
     57 H4          1.7340   -1.0080   -7.5440 ha        1 FEX      0.134000
     58 H5          1.7070    0.1090   -5.4530 ha        1 FEX      0.134000
     59 H21         1.4980   -3.9490   -9.6550 h1        1 FEX      0.077667
     60 H22A        2.2010   -3.5610   -8.2890 h1        1 FEX      0.077667
     61 H23         1.8630   -2.4290   -9.3480 h1        1 FEX      0.077667
     62 H31A       -0.5660   -4.2150   -9.7190 h1        1 FEX      0.077667
     63 H32A       -1.5450   -3.1910   -8.9650 h1        1 FEX      0.077667
     64 H33        -1.0360   -4.4960   -8.2150 h1        1 FEX      0.077667
     65 H28         2.0880    2.8070    3.0660 hc        1 FEX      0.090000
     66 H29         3.7410    3.1730    3.9700 ha        1 FEX      0.081000
     67 H30         5.9060    2.3340    2.8320 ha        1 FEX      0.081750
     68 H31         5.2120    0.0070    2.8650 ha        1 FEX      0.081750
     69 H32         3.4660   -0.4600    1.8650 ha        1 FEX      0.096500
     70 HC1         2.3580    1.6000    0.8050 hc        1 FEX      0.109000
     71 HC2         3.8660    0.3850    0.6830 ha        1 FEX      0.096500
     72 HC3         5.5790    0.7360    1.6000 ha        1 FEX      0.081750
     73 HC4         5.1760    1.7060    3.9570 ha        1 FEX      0.081750
     74 HC5         4.3530    3.6910    2.7030 ha        1 FEX      0.081000
     75 HC6         2.5920    3.2570    1.7270 hc        1 FEX      0.090000
@<TRIPOS>BOND
     1    1    2 1   
     2    1   38 1   
     3    1   39 1   
     4    1   40 1   
     5    2    3 1   
     6    3    4 1   
     7    3    5 1   
     8    5    6 1   
     9    5   41 1   
    10    5   42 1   
    11    6    7 1   
    12    6   43 1   
    13    6   44 1   
    14    7    8 1   
    15    7   12 1   
    16    8   45 1   
    17    9   10 1   
    18    9   46 1   
    19   10   47 1   
    20   11   12 1   
    21   11   13 1   
    22   12   48 1   
    23   13   14 1   
    24   13   30 1   
    25   14   15 1   
    26   14   49 1   
    27   14   50 1   
    28   15   16 1   
    29   15   20 1   
    30   16   17 1   
    31   16   51 1   
    32   17   52 1   
    33   18   19 1   
    34   19   53 1   
    35   20   54 1   
    36   21   26 1   
    37   22   23 1   
    38   22   55 1   
    39   23   56 1   
    40   24   25 1   
    41   24   27 1   
    42   25   57 1   
    43   26   58 1   
    44   27   28 1   
    45   27   29 1   
    46   28   59 1   
    47   28   60 1   
    48   28   61 1   
    49   29   62 1   
    50   29   63 1   
    51   29   64 1   
    52   30   31 1   
    53   30   32 1   
    54   32   33 1   
    55   32   37 1   
    56   32   70 1   
    57   33   34 1   
    58   33   65 1   
    59   33   75 1   
    60   34   66 1   
    61   34   74 1   
    62   35   36 1   
    63   35   67 1   
    64   35   73 1   
    65   36   68 1   
    66   36   72 1   
    67   37   69 1   
    68   37   71 1   
@<TRIPOS>SUBSTRUCTURE
     1 FEX         1 TEMP              0 ****  ****    0 ROOT
