@<TRIPOS>MOLECULE
FF0
   48    49     1     0     0
SMALL
bcc


@<TRIPOS>ATOM
      1 N11        -0.9450    1.0600    1.1170 n3        1 FF0     -0.815200
      2 C12        -1.8370   -0.0730    0.9470 c3        1 FF0      0.159800
      3 C13        -3.2330    0.3300    0.4750 c3        1 FF0     -0.081400
      4 C14        -4.1240   -0.8950    0.3930 c3        1 FF0     -0.036100
      5 C16         0.4340    0.6980    1.3460 c3        1 FF0      0.135800
      6 C17         1.2490    0.3250    0.0920 c3        1 FF0      0.100100
      7 O18         1.1190    1.3300   -0.9010 oh        1 FF0     -0.599800
      8 C19         2.7450    0.1130    0.4390 c3        1 FF0      0.140500
      9 N20         2.9270   -0.8870    1.4710 n3        1 FF0     -0.899800
     10 C32         3.5060   -0.1670   -0.8740 c3        1 FF0     -0.081100
     11 C33         5.5950   -1.4370   -0.3250 ca        1 FF0     -0.132000
     12 C34         6.9730   -1.4910   -0.1240 ca        1 FF0     -0.125000
     13 C35         7.7450   -0.3360   -0.2510 ca        1 FF0     -0.130000
     14 C36         7.1340    0.8730   -0.5830 ca        1 FF0     -0.125000
     15 C37         5.7560    0.9290   -0.7850 ca        1 FF0     -0.132000
     16 C38         4.9750   -0.2260   -0.6560 ca        1 FF0     -0.083300
     17 C40        -5.5050   -0.5410   -0.0340 ca        1 FF0     -0.078300
     18 C41        -5.9640   -0.8770   -1.3130 ca        1 FF0     -0.127000
     19 C42        -7.2620   -0.5520   -1.7020 ca        1 FF0     -0.128500
     20 C43        -8.1130    0.1120   -0.8200 ca        1 FF0     -0.133000
     21 C44        -7.6620    0.4500    0.4570 ca        1 FF0     -0.128500
     22 C45        -6.3650    0.1250    0.8480 ca        1 FF0     -0.127000
     23 H12        -1.4240   -0.8350    0.2210 h1        1 FF0      0.027700
     24 H12A       -1.9210   -0.5830    1.9490 h1        1 FF0      0.027700
     25 H13        -3.6810    1.0730    1.1860 hc        1 FF0      0.052200
     26 H13A       -3.1730    0.8210   -0.5310 hc        1 FF0      0.052200
     27 H14        -3.6770   -1.6340   -0.3250 hc        1 FF0      0.048200
     28 H14A       -4.1650   -1.3930    1.3990 hc        1 FF0      0.048200
     29 H16         0.9260    1.5910    1.8290 h1        1 FF0      0.066200
     30 H16A        0.4770   -0.1570    2.0750 h1        1 FF0      0.066200
     31 H17         0.8300   -0.5970   -0.4010 h1        1 FF0      0.074700
     32 HO18        1.4340    2.1570   -0.5160 ho        1 FF0      0.400000
     33 H19         3.1380    1.0880    0.8600 h1        1 FF0      0.060700
     34 HN20        2.5600   -1.7700    1.1730 hn        1 FF0      0.351300
     35 H32         3.1430   -1.1330   -1.3150 hc        1 FF0      0.062700
     36 H32A        3.2550    0.6470   -1.6050 hc        1 FF0      0.062700
     37 H34         7.4520   -2.4470    0.1340 ha        1 FF0      0.132500
     38 H35         8.8320   -0.3800   -0.0920 ha        1 FF0      0.133000
     39 H36         7.7400    1.7850   -0.6860 ha        1 FF0      0.132500
     40 H37         5.2780    1.8840   -1.0500 ha        1 FF0      0.129500
     41 H41        -5.2970   -1.4010   -2.0130 ha        1 FF0      0.131500
     42 H42        -7.6150   -0.8200   -2.7090 ha        1 FF0      0.130000
     43 H43        -9.1370    0.3680   -1.1280 ha        1 FF0      0.130000
     44 H44        -8.3310    0.9730    1.1550 ha        1 FF0      0.130000
     45 H45        -6.0100    0.3930    1.8550 ha        1 FF0      0.131500
     46 H2         -1.0130    1.6790    0.3280 hn        1 FF0      0.363800
     47 H1          3.9040   -0.9940    1.6680 hn        1 FF0      0.351300
     48 H33         4.9920   -2.3520   -0.2330 ha        1 FF0      0.129500
@<TRIPOS>BOND
     1    1    2 1   
     2    1    5 1   
     3    1   46 1   
     4    2    3 1   
     5    2   23 1   
     6    2   24 1   
     7    3    4 1   
     8    3   25 1   
     9    3   26 1   
    10    4   17 1   
    11    4   27 1   
    12    4   28 1   
    13    5    6 1   
    14    5   29 1   
    15    5   30 1   
    16    6    7 1   
    17    6    8 1   
    18    6   31 1   
    19    7   32 1   
    20    8    9 1   
    21    8   10 1   
    22    8   33 1   
    23    9   34 1   
    24    9   47 1   
    25   10   16 1   
    26   10   35 1   
    27   10   36 1   
    28   11   12 ar  
    29   11   16 ar  
    30   11   48 1   
    31   12   13 ar  
    32   12   37 1   
    33   13   14 ar  
    34   13   38 1   
    35   14   15 ar  
    36   14   39 1   
    37   15   16 ar  
    38   15   40 1   
    39   17   18 ar  
    40   17   22 ar  
    41   18   19 ar  
    42   18   41 1   
    43   19   20 ar  
    44   19   42 1   
    45   20   21 ar  
    46   20   43 1   
    47   21   22 ar  
    48   21   44 1   
    49   22   45 1   
@<TRIPOS>SUBSTRUCTURE
     1 FF0         1 TEMP              0 ****  ****    0 ROOT
