@<TRIPOS>MOLECULE
FF0
   50    51     1     0     0
SMALL
bcc


@<TRIPOS>ATOM
      1 N11        -0.0010   -0.4210    0.1090 ny        1 FF0     -0.759000
      2 C12         1.4850   -0.2000    0.1490 c3        1 FF0      0.106800
      3 C13         2.0050   -0.1120    1.5780 c3        1 FF0     -0.113400
      4 C14         3.5110    0.1140    1.5450 c3        1 FF0     -0.018100
      5 C16        -0.5150   -0.5400   -1.2830 c3        1 FF0      0.093800
      6 C17        -2.0580   -0.6570   -1.3520 c3        1 FF0      0.117100
      7 O18        -2.5440    0.3610   -0.5020 oh        1 FF0     -0.591800
      8 C19        -2.5590   -0.4060   -2.8000 c3        1 FF0      0.080500
      9 N20        -2.3720   -1.5990   -3.6920 nz        1 FF0     -0.844600
     10 C32        -4.0430    0.0180   -2.7890 c3        1 FF0     -0.049100
     11 C33        -5.2680   -1.0060   -4.7170 ca        1 FF0     -0.133500
     12 C34        -5.8440   -0.9150   -5.9820 ca        1 FF0     -0.105000
     13 C35        -5.7600    0.2790   -6.7040 ca        1 FF0     -0.078000
     14 C36        -5.1010    1.3800   -6.1570 ca        1 FF0     -0.105000
     15 C37        -4.5240    1.2930   -4.8890 ca        1 FF0     -0.133500
     16 C38        -4.6000    0.0980   -4.1650 ca        1 FF0     -0.192300
     17 C40         4.0460    0.2090    2.9300 ca        1 FF0     -0.128300
     18 C41         4.6000   -0.9150    3.5510 ca        1 FF0     -0.120500
     19 C42         5.1200   -0.8170    4.8410 ca        1 FF0     -0.116000
     20 C43         5.0900    0.4040    5.5170 ca        1 FF0     -0.100000
     21 C44         4.5410    1.5280    4.8990 ca        1 FF0     -0.116000
     22 C45         4.0200    1.4330    3.6100 ca        1 FF0     -0.120500
     23 H12         1.9760   -1.0580   -0.3920 hx        1 FF0      0.107700
     24 H12A        1.7050    0.7590   -0.4030 hx        1 FF0      0.107700
     25 H13         1.7880   -1.0590    2.1400 hc        1 FF0      0.078700
     26 H13A        1.5200    0.7380    2.1270 hc        1 FF0      0.078700
     27 H14         3.7370    1.0610    0.9850 hc        1 FF0      0.060200
     28 H14A        4.0080   -0.7320    0.9980 hc        1 FF0      0.060200
     29 H16        -0.1860    0.3860   -1.8410 hx        1 FF0      0.111700
     30 H16A       -0.0460   -1.4470   -1.7570 hx        1 FF0      0.111700
     31 H17        -2.3940   -1.6690   -0.9860 h1        1 FF0      0.075700
     32 HO18       -3.4850    0.2000   -0.3190 ho        1 FF0      0.468000
     33 H19        -1.9620    0.4400   -3.2630 hx        1 FF0      0.129700
     34 HN20       -1.3820   -1.7890   -3.8570 hn        1 FF0      0.471467
     35 H32        -4.6390   -0.7020   -2.1650 hc        1 FF0      0.095700
     36 H32A       -4.0940    1.0310   -2.2990 hc        1 FF0      0.095700
     37 H35        -6.2290    0.3540   -7.7000 ha        1 FF0      0.175000
     38 H36        -5.0500    2.3280   -6.7180 ha        1 FF0      0.169500
     39 H37        -4.0310    2.1760   -4.4530 ha        1 FF0      0.136000
     40 H41         4.6400   -1.8770    3.0190 ha        1 FF0      0.127000
     41 H42         5.5620   -1.7030    5.3230 ha        1 FF0      0.151000
     42 H43         5.5060    0.4810    6.5340 ha        1 FF0      0.155000
     43 H44         4.5260    2.4940    5.4280 ha        1 FF0      0.151000
     44 H45         3.6030    2.3260    3.1220 ha        1 FF0      0.127000
     45 H2         -0.2300   -1.2680    0.6420 hn        1 FF0      0.467800
     46 H1         -2.8410   -1.3980   -4.5980 hn        1 FF0      0.471467
     47 H33        -5.3930   -1.9300   -4.1300 ha        1 FF0      0.136000
     48 H112       -0.4760    0.3730    0.5700 hn        1 FF0      0.467800
     49 H203       -2.8190   -2.4270   -3.2850 hn        1 FF0      0.471467
     50 H34        -6.3850   -1.7770   -6.4050 ha        1 FF0      0.169500
@<TRIPOS>BOND
     1    1    2 1   
     2    1    5 1   
     3    1   45 1   
     4    1   48 1   
     5    2    3 1   
     6    2   23 1   
     7    2   24 1   
     8    3    4 1   
     9    3   25 1   
    10    3   26 1   
    11    4   17 1   
    12    4   27 1   
    13    4   28 1   
    14    5    6 1   
    15    5   29 1   
    16    5   30 1   
    17    6    7 1   
    18    6    8 1   
    19    6   31 1   
    20    7   32 1   
    21    8    9 1   
    22    8   10 1   
    23    8   33 1   
    24    9   34 1   
    25    9   46 1   
    26    9   49 1   
    27   10   16 1   
    28   10   35 1   
    29   10   36 1   
    30   11   12 ar  
    31   11   16 ar  
    32   11   47 1   
    33   12   13 ar  
    34   12   50 1   
    35   13   14 ar  
    36   13   37 1   
    37   14   15 ar  
    38   14   38 1   
    39   15   16 ar  
    40   15   39 1   
    41   17   18 ar  
    42   17   22 ar  
    43   18   19 ar  
    44   18   40 1   
    45   19   20 ar  
    46   19   41 1   
    47   20   21 ar  
    48   20   42 1   
    49   21   22 ar  
    50   21   43 1   
    51   22   44 1   
@<TRIPOS>SUBSTRUCTURE
     1 FF0         1 TEMP              0 ****  ****    0 ROOT
