@<TRIPOS>MOLECULE
FF0
   48    44     1     0     0
SMALL
bcc


@<TRIPOS>ATOM
      1 N11         0.5020    0.0380    0.8230 n3        1 FF0     -0.304000
      2 C12         1.9430    0.1540    0.8490 c3        1 FF0     -0.073000
      3 C13         2.4360    0.0290    2.2720 c3        1 FF0     -0.159000
      4 C14         3.9730    0.0400    2.2820 c3        1 FF0     -0.123000
      5 C16         0.0210    0.0760   -0.6090 c3        1 FF0     -0.066000
      6 C17        -1.5040   -0.0770   -0.6400 c3        1 FF0      0.030000
      7 O18        -2.1020    1.0770   -0.1140 oh        1 FF0     -0.331000
      8 C19        -1.9660   -0.2850   -2.0840 c3        1 FF0     -0.059000
      9 N20        -1.5800   -1.5310   -2.5080 n3        1 FF0     -0.332000
     10 C32        -3.5230   -0.1690   -2.1530 c3        1 FF0     -0.171000
     11 C33        -4.6350   -1.0590   -4.1780 c1        1 FF0     -0.138000
     12 C34        -5.4600   -0.8380   -5.2470 c1        1 FF0     -0.127500
     13 C35        -5.6260    0.4470   -5.7400 c1        1 FF0     -0.127500
     14 C36        -4.9510    1.5150   -5.1450 c1        1 FF0     -0.127500
     15 C37        -4.1270    1.2920   -4.0770 c1        1 FF0     -0.127500
     16 C38        -3.9610    0.0090   -3.5850 c1        1 FF0     -0.078000
     17 C40         4.4630    0.0150    3.6700 c2        1 FF0     -0.070000
     18 C41         4.7210   -1.1900    4.2900 c2        1 FF0     -0.127000
     19 C42         5.2020   -1.2090    5.6040 c1        1 FF0     -0.128000
     20 C43         5.4200   -0.0020    6.2900 c1        1 FF0     -0.127500
     21 C44         5.1600    1.2010    5.6660 c1        1 FF0     -0.127500
     22 C45         4.6810    1.2190    4.3540 c1        1 FF0     -0.127000
     23 H12         2.3550   -0.5880    0.2790 h1        1 FF0      0.067500
     24 H12A        2.2100    1.0390    0.4850 h1        1 FF0      0.067500
     25 H13         2.0860    0.8220    2.8250 hc        1 FF0      0.090500
     26 H13A        2.1020   -0.8350    2.6700 hc        1 FF0      0.090500
     27 H14         4.2930    0.8470    1.8440 hc        1 FF0      0.088000
     28 H14A        4.3040   -0.7400    1.8080 hc        1 FF0      0.088000
     29 H16         0.2710    0.9260   -1.0130 h1        1 FF0      0.088500
     30 H16A        0.4140   -0.6240   -1.0870 h1        1 FF0      0.088500
     31 H17        -1.7790   -0.8960   -0.0710 h1        1 FF0      0.085000
     32 HO18       -2.5600    0.8670    0.6300 ho        1 FF0      0.200000
     33 H19        -1.5280    0.4450   -2.7040 h1        1 FF0      0.115000
     34 HN20       -2.0930   -2.1740   -2.0830 hn        1 FF0      0.147000
     35 H32        -3.9230   -0.9820   -1.7920 hc        1 FF0      0.092000
     36 H32A       -3.7970    0.5520   -1.6570 hc        1 FF0      0.092000
     37 H33        -4.5200   -1.9680   -3.8260 ha        1 FF0      0.128000
     38 H34        -5.9350   -1.5890   -5.6640 ha        1 FF0      0.132500
     39 H35        -6.2260    0.6090   -6.5200 ha        1 FF0      0.132500
     40 H36        -5.0690    2.4290   -5.4940 ha        1 FF0      0.132500
     41 H37        -3.6770    2.0070   -3.6760 ha        1 FF0      0.132500
     42 H41         4.5740   -2.0100    3.8200 ha        1 FF0      0.132000
     43 H42         5.3970   -2.1060    6.0680 ha        1 FF0      0.130000
     44 H43         5.7590   -0.0160    7.2230 ha        1 FF0      0.132500
     45 H44         5.3170    2.0590    6.1500 ha        1 FF0      0.132500
     46 H45         4.5040    2.0450    3.9250 ha        1 FF0      0.130000
     47 H2          0.1370    0.7240    1.2820 hn        1 FF0      0.160000
     48 H1         -1.7010   -1.5970   -3.4410 hn        1 FF0      0.147000
@<TRIPOS>BOND
     1    1    2 1   
     2    1    5 1   
     3    1   47 1   
     4    2    3 1   
     5    2   23 1   
     6    2   24 1   
     7    3    4 1   
     8    3   25 1   
     9    3   26 1   
    10    4   17 1   
    11    4   27 1   
    12    4   28 1   
    13    5    6 1   
    14    5   29 1   
    15    5   30 1   
    16    6    7 1   
    17    6    8 1   
    18    6   31 1   
    19    7   32 1   
    20    8    9 1   
    21    8   10 1   
    22    8   33 1   
    23    9   34 1   
    24    9   48 1   
    25   10   16 1   
    26   10   35 1   
    27   10   36 1   
    28   11   16 1   
    29   11   37 1   
    30   12   13 1   
    31   12   38 1   
    32   13   39 1   
    33   14   15 1   
    34   14   40 1   
    35   15   41 1   
    36   17   18 1   
    37   17   22 1   
    38   18   19 1   
    39   18   42 1   
    40   19   43 1   
    41   20   21 1   
    42   20   44 1   
    43   21   45 1   
    44   22   46 1   
@<TRIPOS>SUBSTRUCTURE
     1 FF0         1 TEMP              0 ****  ****    0 ROOT
