@<TRIPOS>MOLECULE
FF0
   50    51     1     0     0
SMALL
bcc


@<TRIPOS>ATOM
      1 N11        -0.0030   -0.4200    0.1090 n4        1 FF0     -0.759000
      2 C12         1.4840   -0.2030    0.1480 c3        1 FF0      0.106800
      3 C13         2.0050   -0.1140    1.5770 c3        1 FF0     -0.113400
      4 C14         3.5130    0.1070    1.5430 c3        1 FF0     -0.018100
      5 C16        -0.5170   -0.5390   -1.2820 c3        1 FF0      0.093800
      6 C17        -2.0610   -0.6530   -1.3500 c3        1 FF0      0.117100
      7 O18        -2.5440    0.3670   -0.5000 oh        1 FF0     -0.591800
      8 C19        -2.5620   -0.4010   -2.7980 c3        1 FF0      0.080500
      9 N20        -2.3760   -1.5940   -3.6900 n4        1 FF0     -0.844600
     10 C32        -4.0460    0.0240   -2.7870 c3        1 FF0     -0.049100
     11 C33        -5.2720   -1.0000   -4.7140 ca        1 FF0     -0.133500
     12 C34        -5.8490   -0.9080   -5.9780 ca        1 FF0     -0.105000
     13 C35        -5.7640    0.2860   -6.7010 ca        1 FF0     -0.078000
     14 C36        -5.1040    1.3870   -6.1540 ca        1 FF0     -0.105000
     15 C37        -4.5270    1.2990   -4.8860 ca        1 FF0     -0.133500
     16 C38        -4.6030    0.1040   -4.1620 ca        1 FF0     -0.192300
     17 C40         4.0480    0.2020    2.9280 ca        1 FF0     -0.128300
     18 C41         4.5740   -0.9310    3.5590 ca        1 FF0     -0.120500
     19 C42         5.0950   -0.8350    4.8480 ca        1 FF0     -0.116000
     20 C43         5.0950    0.3910    5.5140 ca        1 FF0     -0.100000
     21 C44         4.5730    1.5240    4.8860 ca        1 FF0     -0.116000
     22 C45         4.0510    1.4310    3.5970 ca        1 FF0     -0.120500
     23 H12         1.9730   -1.0630   -0.3910 hx        1 FF0      0.107700
     24 H12A        1.7070    0.7540   -0.4060 hx        1 FF0      0.107700
     25 H13         1.5230    0.7390    2.1250 hc        1 FF0      0.078700
     26 H13A        1.7860   -1.0590    2.1410 hc        1 FF0      0.078700
     27 H14         4.0050   -0.7410    0.9970 hc        1 FF0      0.060200
     28 H14A        3.7410    1.0530    0.9810 hc        1 FF0      0.060200
     29 H16        -0.1870    0.3860   -1.8410 hx        1 FF0      0.111700
     30 H16A       -0.0510   -1.4470   -1.7560 hx        1 FF0      0.111700
     31 H17        -2.3990   -1.6640   -0.9840 h1        1 FF0      0.075700
     32 HO18       -3.4850    0.2080   -0.3170 ho        1 FF0      0.468000
     33 H19        -1.9640    0.4440   -3.2610 hx        1 FF0      0.129700
     34 HN20       -2.8240   -2.4220   -3.2830 hn        1 FF0      0.471467
     35 H32        -4.0960    1.0370   -2.2970 hc        1 FF0      0.095700
     36 H32A       -4.6420   -0.6950   -2.1620 hc        1 FF0      0.095700
     37 H35        -6.2340    0.3610   -7.6970 ha        1 FF0      0.175000
     38 H36        -5.0530    2.3350   -6.7150 ha        1 FF0      0.169500
     39 H37        -4.0340    2.1820   -4.4510 ha        1 FF0      0.136000
     40 H41         4.5920   -1.8980    3.0340 ha        1 FF0      0.127000
     41 H42         5.5160   -1.7270    5.3380 ha        1 FF0      0.151000
     42 H43         5.5120    0.4670    6.5300 ha        1 FF0      0.155000
     43 H44         4.5810    2.4940    5.4070 ha        1 FF0      0.151000
     44 H45         3.6560    2.3300    3.1010 ha        1 FF0      0.127000
     45 H2         -0.2330   -1.2660    0.6440 hn        1 FF0      0.467800
     46 H1         -1.3870   -1.7840   -3.8550 hn        1 FF0      0.471467
     47 H33        -5.3970   -1.9230   -4.1270 ha        1 FF0      0.136000
     48 H112       -0.4750    0.3760    0.5700 hn        1 FF0      0.467800
     49 H203       -2.8460   -1.3930   -4.5960 hn        1 FF0      0.471467
     50 H34        -6.3910   -1.7700   -6.4010 ha        1 FF0      0.169500
@<TRIPOS>BOND
     1    1    2 1   
     2    1    5 1   
     3    1   45 1   
     4    1   48 1   
     5    2    3 1   
     6    2   23 1   
     7    2   24 1   
     8    3    4 1   
     9    3   25 1   
    10    3   26 1   
    11    4   17 1   
    12    4   27 1   
    13    4   28 1   
    14    5    6 1   
    15    5   29 1   
    16    5   30 1   
    17    6    7 1   
    18    6    8 1   
    19    6   31 1   
    20    7   32 1   
    21    8    9 1   
    22    8   10 1   
    23    8   33 1   
    24    9   34 1   
    25    9   46 1   
    26    9   49 1   
    27   10   16 1   
    28   10   35 1   
    29   10   36 1   
    30   11   12 ar  
    31   11   16 ar  
    32   11   47 1   
    33   12   13 ar  
    34   12   50 1   
    35   13   14 ar  
    36   13   37 1   
    37   14   15 ar  
    38   14   38 1   
    39   15   16 ar  
    40   15   39 1   
    41   17   18 ar  
    42   17   22 ar  
    43   18   19 ar  
    44   18   40 1   
    45   19   20 ar  
    46   19   41 1   
    47   20   21 ar  
    48   20   42 1   
    49   21   22 ar  
    50   21   43 1   
    51   22   44 1   
@<TRIPOS>SUBSTRUCTURE
     1 FF0         1 TEMP              0 ****  ****    0 ROOT
