@<TRIPOS>MOLECULE
FF0
   50    51     1     0     0
SMALL
bcc


@<TRIPOS>ATOM
      1 N11        -0.0040   -0.4210    0.1110 n4        1 FF0     -0.759000
      2 C12         1.4840   -0.2090    0.1490 c3        1 FF0      0.106800
      3 C13         2.0050   -0.1190    1.5780 c3        1 FF0     -0.113400
      4 C14         3.5130    0.0990    1.5430 c3        1 FF0     -0.018100
      5 C16        -0.5180   -0.5440   -1.2800 c3        1 FF0      0.093800
      6 C17        -2.0620   -0.6500   -1.3490 c3        1 FF0      0.117100
      7 O18        -2.5410    0.3760   -0.5040 oh        1 FF0     -0.591800
      8 C19        -2.5610   -0.4030   -2.7990 c3        1 FF0      0.080500
      9 N20        -2.3840   -1.6020   -3.6830 n4        1 FF0     -0.844600
     10 C32        -4.0420    0.0330   -2.7900 c3        1 FF0     -0.049100
     11 C33        -5.2750   -0.9910   -4.7120 ca        1 FF0     -0.133500
     12 C34        -5.8500   -0.9020   -5.9770 ca        1 FF0     -0.105000
     13 C35        -5.7560    0.2870   -6.7070 ca        1 FF0     -0.078000
     14 C36        -5.0880    1.3860   -6.1650 ca        1 FF0     -0.105000
     15 C37        -4.5110    1.3000   -4.8970 ca        1 FF0     -0.133500
     16 C38        -4.5980    0.1100   -4.1660 ca        1 FF0     -0.192300
     17 C40         4.0480    0.1970    2.9280 ca        1 FF0     -0.128300
     18 C41         4.6060   -0.9250    3.5500 ca        1 FF0     -0.121000
     19 C42         5.1270   -0.8230    4.8400 ca        1 FF0     -0.116000
     20 C43         5.0940    0.3980    5.5130 ca        1 FF0     -0.100000
     21 C44         4.5410    1.5200    4.8950 ca        1 FF0     -0.116000
     22 C45         4.0200    1.4210    3.6060 ca        1 FF0     -0.121000
     23 H12         1.9700   -1.0730   -0.3880 hx        1 FF0      0.107700
     24 H12A        1.7100    0.7450   -0.4070 hx        1 FF0      0.107700
     25 H13         1.5260    0.7370    2.1240 hc        1 FF0      0.078700
     26 H13A        1.7830   -1.0620    2.1440 hc        1 FF0      0.078700
     27 H14         4.0040   -0.7530    1.0010 hc        1 FF0      0.060200
     28 H14A        3.7440    1.0420    0.9790 hc        1 FF0      0.060200
     29 H16        -0.1830    0.3770   -1.8430 hx        1 FF0      0.111700
     30 H16A       -0.0560   -1.4560   -1.7500 hx        1 FF0      0.111700
     31 H17        -2.4060   -1.6580   -0.9780 h1        1 FF0      0.075700
     32 HO18       -3.4820    0.2240   -0.3210 ho        1 FF0      0.468000
     33 H19        -1.9570    0.4350   -3.2660 hx        1 FF0      0.129700
     34 HN20       -2.8520   -1.4030   -4.5900 hn        1 FF0      0.471467
     35 H32        -4.0850    1.0490   -2.3050 hc        1 FF0      0.095700
     36 H32A       -4.6430   -0.6780   -2.1620 hc        1 FF0      0.095700
     37 H35        -6.2250    0.3610   -7.7030 ha        1 FF0      0.175000
     38 H36        -5.0290    2.3300   -6.7320 ha        1 FF0      0.169500
     39 H37        -4.0120    2.1820   -4.4660 ha        1 FF0      0.136000
     40 H41         4.6490   -1.8870    3.0190 ha        1 FF0      0.127500
     41 H42         5.5720   -1.7070    5.3230 ha        1 FF0      0.151000
     42 H43         5.5110    0.4780    6.5300 ha        1 FF0      0.155000
     43 H44         4.5240    2.4870    5.4220 ha        1 FF0      0.151000
     44 H45         3.5990    2.3120    3.1170 ha        1 FF0      0.127500
     45 H2         -0.4730    0.3780    0.5680 hn        1 FF0      0.467800
     46 H1         -2.8380   -2.4240   -3.2720 hn        1 FF0      0.471467
     47 H33        -5.4080   -1.9100   -4.1200 ha        1 FF0      0.136000
     48 H112       -0.2370   -1.2640    0.6480 hn        1 FF0      0.467800
     49 H203       -1.3960   -1.8010   -3.8470 hn        1 FF0      0.471467
     50 H34        -6.3990   -1.7620   -6.3960 ha        1 FF0      0.169500
@<TRIPOS>BOND
     1    1    2 1   
     2    1    5 1   
     3    1   45 1   
     4    1   48 1   
     5    2    3 1   
     6    2   23 1   
     7    2   24 1   
     8    3    4 1   
     9    3   25 1   
    10    3   26 1   
    11    4   17 1   
    12    4   27 1   
    13    4   28 1   
    14    5    6 1   
    15    5   29 1   
    16    5   30 1   
    17    6    7 1   
    18    6    8 1   
    19    6   31 1   
    20    7   32 1   
    21    8    9 1   
    22    8   10 1   
    23    8   33 1   
    24    9   34 1   
    25    9   46 1   
    26    9   49 1   
    27   10   16 1   
    28   10   35 1   
    29   10   36 1   
    30   11   12 ar  
    31   11   16 ar  
    32   11   47 1   
    33   12   13 ar  
    34   12   50 1   
    35   13   14 ar  
    36   13   37 1   
    37   14   15 ar  
    38   14   38 1   
    39   15   16 ar  
    40   15   39 1   
    41   17   18 ar  
    42   17   22 ar  
    43   18   19 ar  
    44   18   40 1   
    45   19   20 ar  
    46   19   41 1   
    47   20   21 ar  
    48   20   42 1   
    49   21   22 ar  
    50   21   43 1   
    51   22   44 1   
@<TRIPOS>SUBSTRUCTURE
     1 FF0         1 TEMP              0 ****  ****    0 ROOT
