@<TRIPOS>MOLECULE
FF3
   17    17     1     0     0
SMALL
bcc


@<TRIPOS>ATOM
      1 N4          4.3670   -0.4650    0.1060 nh        1 FF3     -0.893500
      2 C1          2.9930   -0.3920    0.0100 cc        1 FF3      0.576300
      3 S1          2.1340    1.1140   -0.0960 ss        1 FF3     -0.097800
      4 N1          2.1250   -1.4680    0.1130 nd        1 FF3     -0.365000
      5 N2          0.8870   -1.1150    0.1130 nd        1 FF3     -0.281000
      6 C2          0.6810    0.2220   -0.0040 cc        1 FF3      0.222700
      7 C3         -0.7180    0.7720   -0.0460 c3        1 FF3      0.322100
      8 F1         -0.9470    1.7040    0.9480 f         1 FF3     -0.229800
      9 F2         -0.9570    1.5130   -1.1870 f         1 FF3     -0.229800
     10 S2         -2.0110   -0.7120    0.0910 s6        1 FF3      1.422900
     11 O1         -1.8450   -1.2570    1.3580 o         1 FF3     -0.594300
     12 O2         -1.8550   -1.4650   -1.0660 o         1 FF3     -0.594300
     13 N3         -3.3260    0.1590    0.0220 n3        1 FF3     -1.025700
     14 HN41        4.8600    0.1430   -0.5100 hn        1 FF3      0.418300
     15 HN42        4.7500   -1.3860    0.1630 hn        1 FF3      0.418300
     16 HN31       -3.7610    0.5660    0.8150 hn        1 FF3      0.464800
     17 HN32       -3.7660    0.4280   -0.8250 hn        1 FF3      0.464800
@<TRIPOS>BOND
     1    1    2 1   
     2    1   14 1   
     3    1   15 1   
     4    2    3 1   
     5    2    4 2   
     6    3    6 1   
     7    4    5 1   
     8    5    6 2   
     9    6    7 1   
    10    7    8 1   
    11    7    9 1   
    12    7   10 1   
    13   10   11 2   
    14   10   12 2   
    15   10   13 1   
    16   13   16 1   
    17   13   17 1   
@<TRIPOS>SUBSTRUCTURE
     1 FF3         1 TEMP              0 ****  ****    0 ROOT
