@<TRIPOS>MOLECULE
FF3
   19    19     1     0     0
SMALL
bcc


@<TRIPOS>ATOM
      1 N4          0.1340    0.0280    0.0460 n4        1 FF3     -0.773300
      2 C1          1.5800    0.0240    0.0970 cc        1 FF3      0.239300
      3 S1          2.5740    0.1680    1.4650 ss        1 FF3      0.389200
      4 N1          2.3190   -0.1120   -1.0890 nd        1 FF3     -0.180000
      5 N2          3.5650   -0.0950   -0.8690 nd        1 FF3     -0.319000
      6 C2          3.8970    0.0510    0.4760 cc        1 FF3      0.164700
      7 C3          5.3730    0.0770    0.8000 c3        1 FF3      0.347100
      8 F1          5.7560    1.2280    1.4550 f         1 FF3     -0.182300
      9 F2          5.7420   -0.9080    1.6900 f         1 FF3     -0.182300
     10 S2          6.3460   -0.1130   -0.8650 s6        1 FF3      1.278900
     11 O1          6.2740    1.0530   -1.5710 o         1 FF3     -0.461800
     12 O2          6.2580   -1.4030   -1.3010 o         1 FF3     -0.461800
     13 N3          7.9910   -0.0340   -0.0530 n4        1 FF3     -0.821500
     14 HN41       -0.2060   -0.8600   -0.3680 hn        1 FF3      0.494133
     15 HN42       -0.1950    0.8080   -0.5500 hn        1 FF3      0.494133
     16 HN31        8.5520    0.7550   -0.4040 hn        1 FF3      0.493133
     17 HN32        8.5410   -0.8870   -0.2240 hn        1 FF3      0.493133
     18 H43        -0.2600    0.1340    0.9900 hn        1 FF3      0.494133
     19 H33         7.9440    0.0790    0.9670 hn        1 FF3      0.493133
@<TRIPOS>BOND
     1    1    2 1   
     2    1   14 1   
     3    1   15 1   
     4    1   18 1   
     5    2    3 1   
     6    2    4 2   
     7    3    6 1   
     8    4    5 1   
     9    5    6 2   
    10    6    7 1   
    11    7    8 1   
    12    7    9 1   
    13    7   10 1   
    14   10   11 2   
    15   10   12 2   
    16   10   13 1   
    17   13   16 1   
    18   13   17 1   
    19   13   19 1   
@<TRIPOS>SUBSTRUCTURE
     1 FF3         1 TEMP              0 ****  ****    0 ROOT
