@<TRIPOS>MOLECULE
FF3
   18    18     1     0     0
SMALL
bcc


@<TRIPOS>ATOM
      1 N4          0.2280    0.0600    0.0070 nv        1 FF3     -0.897500
      2 C1          1.5730    0.0420    0.0290 cc        1 FF3      0.648300
      3 S1          2.5530    0.0700    1.4630 ss        1 FF3      0.021200
      4 N1          2.3770   -0.0040   -1.1400 nd        1 FF3     -0.334000
      5 N2          3.6130   -0.0130   -0.8660 nd        1 FF3     -0.326000
      6 C2          3.9230    0.0220    0.4720 cc        1 FF3      0.053700
      7 C3          5.3640    0.0120    0.8390 c3        1 FF3      0.426100
      8 F1          5.7870    1.0970    1.5760 f         1 FF3     -0.196300
      9 F2          5.7560   -1.0390    1.6390 f         1 FF3     -0.196300
     10 S2          6.2510   -0.0510   -0.8630 s6        1 FF3      1.221900
     11 O1          6.2810    1.1570   -1.5140 o         1 FF3     -0.487800
     12 O2          6.2460   -1.2950   -1.4420 o         1 FF3     -0.487800
     13 N3          7.9560   -0.0510   -0.0500 nz        1 FF3     -0.802500
     14 HN41       -0.2670    0.0420   -0.8580 hn        1 FF3      0.473800
     15 HN42       -0.2870    0.0920    0.8550 hn        1 FF3      0.473800
     16 HN31        7.9110   -0.0200    0.9700 hn        1 FF3      0.469800
     17 HN32        8.4790   -0.8910   -0.3030 hn        1 FF3      0.469800
     18 H33         8.5030    0.7570   -0.3530 hn        1 FF3      0.469800
@<TRIPOS>BOND
     1    1    2 1   
     2    1   14 1   
     3    1   15 1   
     4    2    3 1   
     5    2    4 2   
     6    3    6 1   
     7    4    5 1   
     8    5    6 2   
     9    6    7 1   
    10    7    8 1   
    11    7    9 1   
    12    7   10 1   
    13   10   11 2   
    14   10   12 2   
    15   10   13 1   
    16   13   16 1   
    17   13   17 1   
    18   13   18 1   
@<TRIPOS>SUBSTRUCTURE
     1 FF3         1 TEMP              0 ****  ****    0 ROOT
