@<TRIPOS>MOLECULE
FF3
   18    18     1     0     0
SMALL
bcc


@<TRIPOS>ATOM
      1 N4          0.2280    0.0520   -0.0070 nh        1 FF3     -0.897500
      2 C1          1.5730    0.0370    0.0190 cc        1 FF3      0.648300
      3 S1          2.5490    0.1530    1.4510 ss        1 FF3      0.021200
      4 N1          2.3790   -0.0770   -1.1430 nd        1 FF3     -0.334000
      5 N2          3.6150   -0.0680   -0.8660 nd        1 FF3     -0.326000
      6 C2          3.9220    0.0470    0.4680 cc        1 FF3      0.053700
      7 C3          5.3620    0.0620    0.8380 c3        1 FF3      0.426100
      8 F1          5.7810    1.1900    1.5090 f         1 FF3     -0.196300
      9 F2          5.7540   -0.9390    1.7010 f         1 FF3     -0.196300
     10 S2          6.2530   -0.1020   -0.8550 s6        1 FF3      1.221900
     11 O1          6.2830    1.0650   -1.5770 o         1 FF3     -0.487800
     12 O2          6.2510   -1.3790   -1.3570 o         1 FF3     -0.487800
     13 N3          7.9560   -0.0510   -0.0390 n4        1 FF3     -0.802500
     14 HN41       -0.2650   -0.0190   -0.8710 hn        1 FF3      0.473800
     15 HN42       -0.2890    0.1340    0.8360 hn        1 FF3      0.473800
     16 HN31        7.9080    0.0420    0.9760 hn        1 FF3      0.469800
     17 HN32        8.5030    0.7390   -0.3890 hn        1 FF3      0.469800
     18 H33         8.4810   -0.9040   -0.2400 hn        1 FF3      0.469800
@<TRIPOS>BOND
     1    1    2 1   
     2    1   14 1   
     3    1   15 1   
     4    2    3 1   
     5    2    4 2   
     6    3    6 1   
     7    4    5 1   
     8    5    6 2   
     9    6    7 1   
    10    7    8 1   
    11    7    9 1   
    12    7   10 1   
    13   10   11 2   
    14   10   12 2   
    15   10   13 1   
    16   13   16 1   
    17   13   17 1   
    18   13   18 1   
@<TRIPOS>SUBSTRUCTURE
     1 FF3         1 TEMP              0 ****  ****    0 ROOT
