@<TRIPOS>MOLECULE
FF3
   17    15     1     0     0
SMALL
bcc


@<TRIPOS>ATOM
      1 N4         -3.8420    1.1370   -1.1750 n3        1 FF3     -0.291000
      2 C1         -2.4830    0.7350   -1.1060 c2        1 FF3     -0.194000
      3 S1         -1.5660    0.8660    0.1140 ss        1 FF3      0.531000
      4 N1         -1.7080    0.2350   -2.1790 n2        1 FF3     -0.102000
      5 N2         -0.2310    0.0230   -1.6690 n2        1 FF3     -0.018000
      6 C2         -0.1690    0.4020   -0.3080 c1        1 FF3     -0.449000
      7 C3          1.0780    0.4430    0.5480 c2        1 FF3     -0.187000
      8 F1          0.7510    0.8060    1.7950 f         1 FF3     -0.158500
      9 F2          1.9420    1.3290    0.0370 f         1 FF3     -0.158500
     10 S2          1.8270   -1.1640    0.5780 s4        1 FF3      1.994800
     11 O1          0.8550   -2.1880    0.8410 o         1 FF3     -0.481900
     12 O2          2.2900   -1.5470   -0.7270 o         1 FF3     -0.481900
     13 N3          3.0460   -1.2030    1.6780 n2        1 FF3     -0.952000
     14 HN41       -4.3190    1.0050   -1.9440 hn        1 FF3      0.213500
     15 HN42       -4.2380    1.5360   -0.4540 hn        1 FF3      0.213500
     16 HN31        2.8860   -1.5040    2.5260 hn        1 FF3      0.260000
     17 HN32        3.8810   -0.9130    1.4450 hn        1 FF3      0.260000
@<TRIPOS>BOND
     1    1    2 1   
     2    1   14 1   
     3    1   15 1   
     4    2    3 1   
     5    2    4 1   
     6    3    6 1   
     7    4    5 1   
     8    5    6 1   
     9    7    8 1   
    10    7    9 1   
    11    7   10 1   
    12   10   11 1   
    13   10   12 1   
    14   13   16 1   
    15   13   17 1   
@<TRIPOS>SUBSTRUCTURE
     1 FF3         1 TEMP              0 ****  ****    0 ROOT
