@<TRIPOS>MOLECULE
FFA
   49    52     1     0     0
SMALL
bcc


@<TRIPOS>ATOM
      1 C1          1.5140    0.0380   -0.0290 c3        1 FFA     -0.070400
      2 C2          2.1300   -0.9510    0.9330 c3        1 FFA     -0.182400
      3 C3          1.6410   -0.7300    2.3360 c         1 FFA      0.570300
      4 C4          0.2350   -0.3270    2.4570 ce        1 FFA     -0.266200
      5 C5         -0.5340    0.0090    1.4070 c2        1 FFA     -0.026400
      6 C6         -0.0220    0.0370   -0.0140 c3        1 FFA     -0.015800
      7 C7         -0.5030    1.3300   -0.7110 c3        1 FFA     -0.047700
      8 C8         -2.0190    1.5350   -0.5670 c3        1 FFA     -0.048700
      9 C9         -2.3970    1.5880    0.9030 c3        1 FFA     -0.072400
     10 C10        -1.9790    0.3160    1.6070 c3        1 FFA     -0.054200
     11 C11        -0.0570    1.3920   -2.1690 c3        1 FFA     -0.075400
     12 C12        -0.5480    2.6260   -2.9100 c3        1 FFA     -0.060400
     13 C14        -2.3780    2.8300   -1.2650 c3        1 FFA     -0.065700
     14 C13        -2.0520    2.7710   -2.7730 c3        1 FFA     -0.043000
     15 C15        -3.8110    3.3410   -1.2090 c3        1 FFA     -0.069400
     16 C16        -3.9070    4.3290   -2.3750 c3        1 FFA     -0.114400
     17 C17        -2.6730    4.1000   -3.2770 c3        1 FFA      0.142100
     18 C18        -2.7640    1.6460   -3.5100 c3        1 FFA     -0.088100
     19 C19        -0.5260   -1.2170   -0.7240 c3        1 FFA     -0.085100
     20 O3          2.3680   -0.9070    3.3210 o         1 FFA     -0.537100
     21 O17        -1.7120    5.1330   -3.1320 oh        1 FFA     -0.595800
     22 H11         1.8820    1.0680    0.2240 hc        1 FFA      0.050700
     23 H12         1.8700   -0.2010   -1.0660 hc        1 FFA      0.050700
     24 H21         3.2480   -0.8680    0.9010 hc        1 FFA      0.071200
     25 H22         1.8610   -2.0020    0.6370 hc        1 FFA      0.071200
     26 H4         -0.1650   -0.3250    3.4850 ha        1 FFA      0.147000
     27 H7         -0.0070    2.1900   -0.1720 hc        1 FFA      0.053700
     28 H8         -2.5670    0.6800   -1.0480 hc        1 FFA      0.054700
     29 H91        -1.9070    2.4720    1.3900 hc        1 FFA      0.047700
     30 H92        -3.5060    1.7240    0.9990 hc        1 FFA      0.047700
     31 H101       -2.5750   -0.5490    1.2030 hc        1 FFA      0.055200
     32 H102       -2.2150    0.4020    2.7010 hc        1 FFA      0.055200
     33 H111        1.0650    1.3880   -2.2050 hc        1 FFA      0.041200
     34 H112       -0.4120    0.4760   -2.7100 hc        1 FFA      0.041200
     35 H121       -0.2680    2.5440   -3.9920 hc        1 FFA      0.054200
     36 H122       -0.0490    3.5450   -2.5020 hc        1 FFA      0.054200
     37 H14        -1.7280    3.6430   -0.8220 hc        1 FFA      0.062700
     38 H151       -4.5420    2.5040   -1.3330 hc        1 FFA      0.043700
     39 H152       -4.0260    3.8410   -0.2330 hc        1 FFA      0.043700
     40 H161       -3.9160    5.3810   -1.9980 hc        1 FFA      0.046700
     41 H162       -4.8440    4.1590   -2.9580 hc        1 FFA      0.046700
     42 H17        -2.9710    4.0270   -4.3580 h1        1 FFA      0.037700
     43 H181       -2.5130    1.6900   -4.5980 hc        1 FFA      0.037033
     44 H182       -2.4570    0.6470   -3.1210 hc        1 FFA      0.037033
     45 H183       -3.8710    1.7440   -3.3950 hc        1 FFA      0.037033
     46 H191       -0.2840   -2.1230   -0.1180 hc        1 FFA      0.040033
     47 H192       -0.0380   -1.3240   -1.7220 hc        1 FFA      0.040033
     48 H193       -1.6310   -1.1730   -0.8680 hc        1 FFA      0.040033
     49 HO17       -2.1550    5.9570   -3.3660 ho        1 FFA      0.399000
@<TRIPOS>BOND
     1    1    2 1   
     2    1    6 1   
     3    1   22 1   
     4    1   23 1   
     5    2    3 1   
     6    2   24 1   
     7    2   25 1   
     8    3    4 1   
     9    3   20 2   
    10    4    5 2   
    11    4   26 1   
    12    5    6 1   
    13    5   10 1   
    14    6    7 1   
    15    6   19 1   
    16    7    8 1   
    17    7   11 1   
    18    7   27 1   
    19    8    9 1   
    20    8   13 1   
    21    8   28 1   
    22    9   10 1   
    23    9   29 1   
    24    9   30 1   
    25   10   31 1   
    26   10   32 1   
    27   11   12 1   
    28   11   33 1   
    29   11   34 1   
    30   12   14 1   
    31   12   35 1   
    32   12   36 1   
    33   13   14 1   
    34   13   15 1   
    35   13   37 1   
    36   14   17 1   
    37   14   18 1   
    38   15   16 1   
    39   15   38 1   
    40   15   39 1   
    41   16   17 1   
    42   16   40 1   
    43   16   41 1   
    44   17   21 1   
    45   17   42 1   
    46   18   43 1   
    47   18   44 1   
    48   18   45 1   
    49   19   46 1   
    50   19   47 1   
    51   19   48 1   
    52   21   49 1   
@<TRIPOS>SUBSTRUCTURE
     1 FFA         1 TEMP              0 ****  ****    0 ROOT
