@<TRIPOS>MOLECULE
FFA
   49    52     1     0     0
SMALL
bcc


@<TRIPOS>ATOM
      1 C1          1.5080    0.0440   -0.0110 c3        1 FFA     -0.070400
      2 C2          2.1170   -0.9440    0.9570 c3        1 FFA     -0.182400
      3 C3          1.6220   -0.7190    2.3560 c         1 FFA      0.570300
      4 C4          0.2150   -0.3150    2.4690 ce        1 FFA     -0.266200
      5 C5         -0.5480    0.0200    1.4140 c2        1 FFA     -0.026400
      6 C6         -0.0290    0.0430   -0.0040 c3        1 FFA     -0.015800
      7 C7         -0.5050    1.3350   -0.7070 c3        1 FFA     -0.047700
      8 C8         -2.0220    1.5410   -0.5710 c3        1 FFA     -0.048700
      9 C9         -2.4080    1.5980    0.8970 c3        1 FFA     -0.072400
     10 C10        -1.9940    0.3280    1.6060 c3        1 FFA     -0.054200
     11 C11        -0.0520    1.3940   -2.1620 c3        1 FFA     -0.075400
     12 C12        -0.5380    2.6260   -2.9090 c3        1 FFA     -0.060400
     13 C14        -2.3760    2.8350   -1.2740 c3        1 FFA     -0.065700
     14 C13        -2.0430    2.7720   -2.7800 c3        1 FFA     -0.043000
     15 C15        -3.8090    3.3480   -1.2260 c3        1 FFA     -0.069400
     16 C16        -3.8980    4.3320   -2.3950 c3        1 FFA     -0.114400
     17 C17        -2.6600    4.1010   -3.2900 c3        1 FFA      0.142100
     18 C18        -2.7520    1.6470   -3.5180 c3        1 FFA     -0.088100
     19 C19        -0.5290   -1.2110   -0.7140 c3        1 FFA     -0.085100
     20 O3          2.3430   -0.8940    3.3460 o         1 FFA     -0.537100
     21 O17        -1.6990    5.1330   -3.1420 oh        1 FFA     -0.595800
     22 H11         1.8750    1.0740    0.2420 hc        1 FFA      0.050700
     23 H12         1.8690   -0.1980   -1.0450 hc        1 FFA      0.050700
     24 H21         3.2360   -0.8610    0.9300 hc        1 FFA      0.071200
     25 H22         1.8500   -1.9950    0.6620 hc        1 FFA      0.071200
     26 H4         -0.1900   -0.3100    3.4950 ha        1 FFA      0.147000
     27 H7         -0.0120    2.1970   -0.1670 hc        1 FFA      0.053700
     28 H8         -2.5680    0.6850   -1.0530 hc        1 FFA      0.054700
     29 H91        -1.9190    2.4830    1.3840 hc        1 FFA      0.047700
     30 H92        -3.5170    1.7350    0.9870 hc        1 FFA      0.047700
     31 H101       -2.5890   -0.5380    1.2020 hc        1 FFA      0.055200
     32 H102       -2.2350    0.4170    2.6990 hc        1 FFA      0.055200
     33 H111        1.0700    1.3890   -2.1930 hc        1 FFA      0.041200
     34 H112       -0.4040    0.4760   -2.7030 hc        1 FFA      0.041200
     35 H121       -0.0410    3.5450   -2.5000 hc        1 FFA      0.054200
     36 H122       -0.2520    2.5410   -3.9890 hc        1 FFA      0.054200
     37 H14        -1.7280    3.6490   -0.8290 hc        1 FFA      0.062700
     38 H151       -4.0280    3.8500   -0.2530 hc        1 FFA      0.043700
     39 H152       -4.5400    2.5110   -1.3510 hc        1 FFA      0.043700
     40 H161       -4.8320    4.1620   -2.9830 hc        1 FFA      0.046700
     41 H162       -3.9080    5.3850   -2.0200 hc        1 FFA      0.046700
     42 H17        -2.9520    4.0260   -4.3720 h1        1 FFA      0.037700
     43 H181       -2.4950    1.6880   -4.6040 hc        1 FFA      0.037033
     44 H182       -2.4470    0.6480   -3.1250 hc        1 FFA      0.037033
     45 H183       -3.8590    1.7450   -3.4080 hc        1 FFA      0.037033
     46 H191       -0.0370   -1.3210   -1.7090 hc        1 FFA      0.040033
     47 H192       -1.6340   -1.1670   -0.8640 hc        1 FFA      0.040033
     48 H193       -0.2910   -2.1170   -0.1040 hc        1 FFA      0.040033
     49 HO17       -2.1410    5.9570   -3.3810 ho        1 FFA      0.399000
@<TRIPOS>BOND
     1    1    2 1   
     2    1    6 1   
     3    1   22 1   
     4    1   23 1   
     5    2    3 1   
     6    2   24 1   
     7    2   25 1   
     8    3    4 1   
     9    3   20 2   
    10    4    5 2   
    11    4   26 1   
    12    5    6 1   
    13    5   10 1   
    14    6    7 1   
    15    6   19 1   
    16    7    8 1   
    17    7   11 1   
    18    7   27 1   
    19    8    9 1   
    20    8   13 1   
    21    8   28 1   
    22    9   10 1   
    23    9   29 1   
    24    9   30 1   
    25   10   31 1   
    26   10   32 1   
    27   11   12 1   
    28   11   33 1   
    29   11   34 1   
    30   12   14 1   
    31   12   35 1   
    32   12   36 1   
    33   13   14 1   
    34   13   15 1   
    35   13   37 1   
    36   14   17 1   
    37   14   18 1   
    38   15   16 1   
    39   15   38 1   
    40   15   39 1   
    41   16   17 1   
    42   16   40 1   
    43   16   41 1   
    44   17   21 1   
    45   17   42 1   
    46   18   43 1   
    47   18   44 1   
    48   18   45 1   
    49   19   46 1   
    50   19   47 1   
    51   19   48 1   
    52   21   49 1   
@<TRIPOS>SUBSTRUCTURE
     1 FFA         1 TEMP              0 ****  ****    0 ROOT
