@<TRIPOS>MOLECULE
FFA
   49    52     1     0     0
SMALL
bcc


@<TRIPOS>ATOM
      1 C1         -0.0910    1.0000    4.5070 c3        1 FFA     -0.070400
      2 C2          0.0490    2.4710    4.1910 c3        1 FFA     -0.182400
      3 C3          0.7630    2.6870    2.8880 c         1 FFA      0.569300
      4 C4          0.4590    1.7110    1.8350 ce        1 FFA     -0.264200
      5 C5         -0.2510    0.5900    2.0450 c2        1 FFA     -0.028400
      6 C6         -0.7900    0.1970    3.4000 c3        1 FFA     -0.015800
      7 C7         -0.5080   -1.3010    3.6520 c3        1 FFA     -0.047700
      8 C8         -0.9870   -2.1830    2.4880 c3        1 FFA     -0.048700
      9 C9         -0.3040   -1.7560    1.2000 c3        1 FFA     -0.072400
     10 C10        -0.5960   -0.3020    0.9000 c3        1 FFA     -0.054200
     11 C11        -1.0710   -1.7700    4.9900 c3        1 FFA     -0.076400
     12 C12        -0.8670   -3.2520    5.2610 c3        1 FFA     -0.059400
     13 C14        -0.6510   -3.6200    2.8280 c3        1 FFA     -0.064700
     14 C13        -1.3840   -4.0870    4.1040 c3        1 FFA     -0.087000
     15 C15        -0.9290   -4.7180    1.8110 c3        1 FFA     -0.076400
     16 C16        -0.9720   -6.0050    2.6380 c3        1 FFA     -0.117400
     17 C17        -1.0440   -5.6010    4.1280 c3        1 FFA      0.145100
     18 C18        -2.8980   -3.9770    4.0090 c3        1 FFA     -0.082100
     19 C19        -2.2840    0.5110    3.4250 c3        1 FFA     -0.086100
     20 O3          1.5310    3.6400    2.7080 o         1 FFA     -0.535100
     21 O17         0.1570   -5.8980    4.8100 oh        1 FFA     -0.590800
     22 H11         0.9300    0.5680    4.6850 hc        1 FFA      0.050700
     23 H12        -0.6730    0.8920    5.4600 hc        1 FFA      0.050700
     24 H21         0.6030    2.9870    5.0190 hc        1 FFA      0.072200
     25 H22        -0.9640    2.9520    4.1120 hc        1 FFA      0.072200
     26 H4          0.8500    1.9640    0.8340 ha        1 FFA      0.148000
     27 H7          0.6150   -1.4130    3.7030 hc        1 FFA      0.050700
     28 H8         -2.0980   -2.0750    2.3590 hc        1 FFA      0.057700
     29 H91        -0.6700   -2.3950    0.3540 hc        1 FFA      0.047700
     30 H92         0.8030   -1.9130    1.2860 hc        1 FFA      0.047700
     31 H101       -1.6920   -0.1760    0.6810 hc        1 FFA      0.055700
     32 H102       -0.0340    0.0060   -0.0220 hc        1 FFA      0.055700
     33 H111       -2.1670   -1.5390    5.0380 hc        1 FFA      0.043200
     34 H112       -0.5720   -1.1950    5.8150 hc        1 FFA      0.043200
     35 H121        0.2230   -3.4660    5.4200 hc        1 FFA      0.047700
     36 H122       -1.4030   -3.5340    6.2040 hc        1 FFA      0.047700
     37 H14         0.4590   -3.6540    3.0470 hc        1 FFA      0.041700
     38 H151       -0.1310   -4.7600    1.0300 hc        1 FFA      0.045700
     39 H152       -1.9040   -4.5430    1.2920 hc        1 FFA      0.045700
     40 H161       -1.8650   -6.6170    2.3670 hc        1 FFA      0.053700
     41 H162       -0.0600   -6.6270    2.4590 hc        1 FFA      0.053700
     42 H17        -1.8210   -6.1910    4.6830 h1        1 FFA      0.080700
     43 H181       -3.3620   -4.3740    4.9450 hc        1 FFA      0.037700
     44 H182       -3.2250   -2.9180    3.8800 hc        1 FFA      0.037700
     45 H183       -3.2770   -4.5720    3.1430 hc        1 FFA      0.037700
     46 H191       -2.6920    0.3930    4.4570 hc        1 FFA      0.040700
     47 H192       -2.4590    1.5650    3.0990 hc        1 FFA      0.040700
     48 H193       -2.8430   -0.1690    2.7400 hc        1 FFA      0.040700
     49 HO17        0.8660   -5.4030    4.3800 ho        1 FFA      0.398000
@<TRIPOS>BOND
     1    1    2 1   
     2    1    6 1   
     3    1   22 1   
     4    1   23 1   
     5    2    3 1   
     6    2   24 1   
     7    2   25 1   
     8    3    4 1   
     9    3   20 2   
    10    4    5 2   
    11    4   26 1   
    12    5    6 1   
    13    5   10 1   
    14    6    7 1   
    15    6   19 1   
    16    7    8 1   
    17    7   11 1   
    18    7   27 1   
    19    8    9 1   
    20    8   13 1   
    21    8   28 1   
    22    9   10 1   
    23    9   29 1   
    24    9   30 1   
    25   10   31 1   
    26   10   32 1   
    27   11   12 1   
    28   11   33 1   
    29   11   34 1   
    30   12   14 1   
    31   12   35 1   
    32   12   36 1   
    33   13   14 1   
    34   13   15 1   
    35   13   37 1   
    36   14   17 1   
    37   14   18 1   
    38   15   16 1   
    39   15   38 1   
    40   15   39 1   
    41   16   17 1   
    42   16   40 1   
    43   16   41 1   
    44   17   21 1   
    45   17   42 1   
    46   18   43 1   
    47   18   44 1   
    48   18   45 1   
    49   19   46 1   
    50   19   47 1   
    51   19   48 1   
    52   21   49 1   
@<TRIPOS>SUBSTRUCTURE
     1 FFA         1 TEMP              0 ****  ****    0 ROOT
