@<TRIPOS>MOLECULE
FFA
   49    51     1     0     0
SMALL
bcc


@<TRIPOS>ATOM
      1 C1          2.5770    1.4210   -0.5790 c3        1 FFA     -0.148000
      2 C2          4.0920    1.4210   -0.5790 c3        1 FFA     -0.211000
      3 C3          4.6820    1.4210    0.8910 c2        1 FFA      0.262000
      4 C4          3.7830    0.7280    2.0690 c2        1 FFA     -0.246000
      5 C5          2.3330    0.2870    1.6820 c1        1 FFA     -0.019000
      6 C6          1.9180    0.3850    0.2000 c2        1 FFA     -0.020000
      7 C7          0.3070    0.5810    0.0390 c3        1 FFA     -0.087000
      8 C8         -0.4230   -0.3600    0.7120 c3        1 FFA     -0.094000
      9 C9         -0.0280   -0.4760    2.2350 c3        1 FFA     -0.153000
     10 C10         1.5930   -0.7310    2.4580 c3        1 FFA     -0.137000
     11 C11        -0.0910    0.6520   -1.3880 c3        1 FFA     -0.155000
     12 C12        -1.7820    0.8420   -1.5670 c3        1 FFA     -0.147000
     13 C14        -2.0290   -0.1280    0.5260 c3        1 FFA     -0.095000
     14 C13        -2.4200    0.0220   -0.9600 c3        1 FFA     -0.039000
     15 C15        -2.5920   -1.1390    0.9160 c3        1 FFA     -0.154000
     16 C16        -2.7190   -1.7990   -0.0700 c3        1 FFA     -0.195000
     17 C17        -2.4020   -0.7550   -1.3150 c3        1 FFA      0.030000
     18 C18        -3.8950    0.4930   -0.9910 c3        1 FFA     -0.197000
     19 C19         2.2760   -0.9600   -0.4520 c3        1 FFA     -0.203000
     20 O3          5.5940    2.1800    1.1830 o         1 FFA     -0.297000
     21 O17        -3.6250   -0.8790   -2.5100 oh        1 FFA     -0.321000
     22 H11         2.2770    1.3360   -1.5040 hc        1 FFA      0.090000
     23 H12         2.2770    2.2860   -0.2410 hc        1 FFA      0.090000
     24 H21         4.5280    0.7700   -1.1620 hc        1 FFA      0.110500
     25 H22         4.3640    2.2490   -1.0180 hc        1 FFA      0.110500
     26 H4          4.2200    0.3380    2.8500 ha        1 FFA      0.148000
     27 H7          0.0880    1.4450    0.4360 hc        1 FFA      0.095000
     28 H8         -0.2150   -1.2210    0.3020 hc        1 FFA      0.090000
     29 H91        -0.2810    0.3500    2.6900 hc        1 FFA      0.086500
     30 H92        -0.5200   -1.2190    2.6330 hc        1 FFA      0.086500
     31 H101        1.8600   -1.6610    2.3290 hc        1 FFA      0.094500
     32 H102        1.8190   -0.6100    3.4000 hc        1 FFA      0.094500
     33 H111        0.1860   -0.1690   -1.8370 hc        1 FFA      0.082500
     34 H112        0.3590    1.4110   -1.8070 hc        1 FFA      0.082500
     35 H121       -2.0060    0.7740   -2.5140 hc        1 FFA      0.089000
     36 H122       -2.0320    1.7300   -1.2490 hc        1 FFA      0.089000
     37 H14        -2.3250    0.6480    1.0380 hc        1 FFA      0.096000
     38 H151       -3.4640   -0.9200    1.2960 hc        1 FFA      0.084000
     39 H152       -2.0390   -1.6070    1.5710 hc        1 FFA      0.084000
     40 H161       -2.0790   -2.5350   -0.0720 hc        1 FFA      0.087000
     41 H162       -3.6310   -2.1400   -0.1350 hc        1 FFA      0.087000
     42 H17        -1.5240   -0.9360   -1.7010 h1        1 FFA      0.074000
     43 H181       -4.0460    1.1370   -0.2730 hc        1 FFA      0.079667
     44 H182       -4.4850   -0.2750   -0.8690 hc        1 FFA      0.079667
     45 H183       -4.0840    0.9150   -1.8510 hc        1 FFA      0.079667
     46 H191        3.2170   -1.1600   -0.2870 hc        1 FFA      0.079667
     47 H192        1.7210   -1.6650   -0.0690 hc        1 FFA      0.079667
     48 H193        2.1180   -0.9070   -1.4140 hc        1 FFA      0.079667
     49 HO17       -3.4500   -1.5690   -3.0420 ho        1 FFA      0.198000
@<TRIPOS>BOND
     1    1    2 1   
     2    1    6 1   
     3    1   22 1   
     4    1   23 1   
     5    2    3 1   
     6    2   24 1   
     7    2   25 1   
     8    3    4 1   
     9    3   20 1   
    10    4    5 1   
    11    4   26 1   
    12    5   10 1   
    13    6    7 1   
    14    6   19 1   
    15    7    8 1   
    16    7   11 1   
    17    7   27 1   
    18    8    9 1   
    19    8   13 1   
    20    8   28 1   
    21    9   10 1   
    22    9   29 1   
    23    9   30 1   
    24   10   31 1   
    25   10   32 1   
    26   11   12 1   
    27   11   33 1   
    28   11   34 1   
    29   12   14 1   
    30   12   35 1   
    31   12   36 1   
    32   13   14 1   
    33   13   15 1   
    34   13   37 1   
    35   14   17 1   
    36   14   18 1   
    37   15   16 1   
    38   15   38 1   
    39   15   39 1   
    40   16   17 1   
    41   16   40 1   
    42   16   41 1   
    43   17   21 1   
    44   17   42 1   
    45   18   43 1   
    46   18   44 1   
    47   18   45 1   
    48   19   46 1   
    49   19   47 1   
    50   19   48 1   
    51   21   49 1   
@<TRIPOS>SUBSTRUCTURE
     1 FFA         1 TEMP              0 ****  ****    0 ROOT
