@<TRIPOS>MOLECULE
FFB
   34    29     1     0     0
SMALL
bcc


@<TRIPOS>ATOM
      1 C01         1.5360    0.3250   -0.3050 c1        1 FFB     -0.134000
      2 C02         2.9270    0.3820   -0.3240 c1        1 FFB     -0.026000
      3 C03         3.6060    0.4280   -1.5380 c1        1 FFB     -0.802000
      4 C04         2.8960    0.4170   -2.7300 c1        1 FFB     -0.066000
      5 C05         1.5030    0.3590   -2.7120 c1        1 FFB     -0.066000
      6 C06         0.8240    0.3140   -1.4980 c1        1 FFB     -0.061000
      7 C07        -0.7220    0.2190   -1.4790 c2        1 FFB      0.339000
      8 O08        -1.3430    0.2090   -2.5270 o         1 FFB     -0.343000
      9 N09        -1.4300    0.2430   -0.2210 n         1 FFB     -0.376000
     10 C10        -2.8770    0.3370   -0.2060 c3        1 FFB      0.015000
     11 S11         5.4000    0.4110   -1.5620 s4        1 FFB      2.079800
     12 NP2         5.9580   -1.1350   -1.4450 n2        1 FFB     -0.954000
     13 O13         5.9450    1.2440   -0.5200 o         1 FFB     -0.541400
     14 O14         5.9120    1.0630   -2.7360 o         1 FFB     -0.541400
     15 C15        -3.4000   -0.0170    1.1940 c2        1 FFB     -0.146000
     16 C16        -3.5840   -1.3480    1.5510 c2        1 FFB      0.113000
     17 C17        -4.0720   -1.6680    2.8130 c1        1 FFB      0.035000
     18 C18        -4.3770   -0.6600    3.7150 c1        1 FFB      0.055000
     19 C19        -4.1930    0.6720    3.3580 c1        1 FFB      0.055000
     20 C20        -3.7040    0.9920    2.0970 c1        1 FFB      0.091000
     21 F21        -3.3320   -2.3200    0.6650 f         1 FFB     -0.064000
     22 F22        -4.3230   -2.9510    3.1300 f         1 FFB     -0.063000
     23 F23        -4.9080   -0.9670    4.9070 f         1 FFB     -0.062500
     24 F24        -4.4160    1.6410    4.2530 f         1 FFB     -0.062500
     25 F25        -3.6020    2.2670    1.7270 f         1 FFB     -0.082000
     26 H01C        1.0630    0.2930    0.5420 ha        1 FFB      0.143000
     27 H02C        3.4270    0.3900    0.5160 ha        1 FFB      0.159000
     28 H04C        3.3730    0.4490   -3.5830 ha        1 FFB      0.161000
     29 H05C        1.0050    0.3510   -3.5480 ha        1 FFB      0.161000
     30 H09N       -0.9670    0.1950    0.5650 hn        1 FFB      0.235000
     31 H101       -3.1500    1.2570   -0.4350 h1        1 FFB      0.128500
     32 H102       -3.2500   -0.2860   -0.8590 h1        1 FFB      0.128500
     33 HNP1        6.3970   -1.5160   -2.1480 hn        1 FFB      0.245500
     34 HNP2        5.8770   -1.5910   -0.6560 hn        1 FFB      0.245500
@<TRIPOS>BOND
     1    1    6 1   
     2    1   26 1   
     3    2    3 1   
     4    2   27 1   
     5    3   11 1   
     6    4    5 1   
     7    4   28 1   
     8    5   29 1   
     9    6    7 1   
    10    7    8 1   
    11    7    9 1   
    12    9   10 1   
    13    9   30 1   
    14   10   15 1   
    15   10   31 1   
    16   10   32 1   
    17   11   13 1   
    18   11   14 1   
    19   12   33 1   
    20   12   34 1   
    21   15   16 1   
    22   15   20 1   
    23   16   17 1   
    24   16   21 1   
    25   17   22 1   
    26   18   19 1   
    27   18   23 1   
    28   19   24 1   
    29   20   25 1   
@<TRIPOS>SUBSTRUCTURE
     1 FFB         1 TEMP              0 ****  ****    0 ROOT
