@<TRIPOS>MOLECULE
FFB
   34    35     1     0     0
SMALL
bcc


@<TRIPOS>ATOM
      1 C01        -1.6860   -0.7300    2.8990 ca        1 FFB     -0.120000
      2 C02        -1.1560   -0.5010    4.1670 ca        1 FFB     -0.026000
      3 C03         0.1010    0.0940    4.3220 ca        1 FFB     -0.357500
      4 C04         0.8160    0.4660    3.1790 ca        1 FFB     -0.026000
      5 C05         0.2950    0.2480    1.9050 ca        1 FFB     -0.120000
      6 C06        -0.9590   -0.3520    1.7660 ca        1 FFB     -0.081600
      7 C07        -1.5490   -0.6320    0.4210 c         1 FFB      0.665700
      8 O08        -2.1290   -1.7060    0.1740 o         1 FFB     -0.582100
      9 N09        -1.4700    0.3800   -0.5200 n         1 FFB     -0.566900
     10 C10        -1.9360    0.2170   -1.8650 c3        1 FFB      0.138300
     11 S11         0.7320    0.3910    5.8720 sy        1 FFB      1.524200
     12 NP2         1.5140   -0.9640    6.2080 n3        1 FFB     -1.027700
     13 O13        -0.3500    0.5400    6.7630 o         1 FFB     -0.653800
     14 O14         1.6570    1.4510    5.7690 o         1 FFB     -0.653800
     15 C15        -0.8450    0.0380   -2.8900 ca        1 FFB     -0.153300
     16 C16        -0.8300   -1.0920   -3.7270 ca        1 FFB      0.136900
     17 C17         0.1770   -1.2480   -4.7170 ca        1 FFB      0.069900
     18 C18         1.1790   -0.2600   -4.8640 ca        1 FFB      0.109900
     19 C19         1.1680    0.8800   -4.0250 ca        1 FFB      0.069900
     20 C20         0.1520    1.0180   -3.0450 ca        1 FFB      0.136900
     21 F21        -1.7740   -2.0500   -3.6130 f         1 FFB     -0.107900
     22 F22         0.1790   -2.3360   -5.5140 f         1 FFB     -0.098900
     23 F23         2.1400   -0.4020   -5.7990 f         1 FFB     -0.094900
     24 F24         2.1180    1.8290   -4.1580 f         1 FFB     -0.098900
     25 F25         0.1550    2.1190   -2.2580 f         1 FFB     -0.107900
     26 H01C       -2.6690   -1.2150    2.7800 ha        1 FFB      0.153000
     27 H02C       -1.7400   -0.7760    5.0620 ha        1 FFB      0.159000
     28 H04C        1.8000    0.9570    3.2920 ha        1 FFB      0.159000
     29 H05C        0.8830    0.5390    1.0220 ha        1 FFB      0.153000
     30 H09N       -0.9380    1.1940   -0.3160 hn        1 FFB      0.321500
     31 H101       -2.6360   -0.6710   -1.9030 h1        1 FFB      0.089200
     32 H102       -2.5150    1.1450   -2.1520 h1        1 FFB      0.089200
     33 HNP1        2.4690   -1.1120    5.9980 hn        1 FFB      0.450300
     34 HNP2        1.1010   -1.7340    6.6700 hn        1 FFB      0.450300
@<TRIPOS>BOND
     1    1    2 ar  
     2    1    6 ar  
     3    1   26 1   
     4    2    3 ar  
     5    2   27 1   
     6    3    4 ar  
     7    3   11 1   
     8    4    5 ar  
     9    4   28 1   
    10    5    6 ar  
    11    5   29 1   
    12    6    7 1   
    13    7    8 2   
    14    7    9 1   
    15    9   10 1   
    16    9   30 1   
    17   10   15 1   
    18   10   31 1   
    19   10   32 1   
    20   11   12 1   
    21   11   13 2   
    22   11   14 2   
    23   12   33 1   
    24   12   34 1   
    25   15   16 ar  
    26   15   20 ar  
    27   16   17 ar  
    28   16   21 1   
    29   17   18 ar  
    30   17   22 1   
    31   18   19 ar  
    32   18   23 1   
    33   19   20 ar  
    34   19   24 1   
    35   20   25 1   
@<TRIPOS>SUBSTRUCTURE
     1 FFB         1 TEMP              0 ****  ****    0 ROOT
