@<TRIPOS>MOLECULE
FFB
   36    37     1     0     0
SMALL
bcc


@<TRIPOS>ATOM
      1 C01         0.3230   -0.9130    0.3940 ca        1 FFB     -0.094500
      2 C02         1.6690   -0.5650    0.5020 ca        1 FFB      0.011000
      3 C03         2.1120    0.3270    1.4940 ca        1 FFB     -0.455500
      4 C04         1.1590    0.8650    2.3800 ca        1 FFB      0.011000
      5 C05        -0.1880    0.5180    2.2900 ca        1 FFB     -0.094500
      6 C06        -0.6050   -0.3760    1.2970 ca        1 FFB     -0.084600
      7 C07        -2.0250   -0.7600    1.1160 c         1 FFB      0.543700
      8 O08        -2.5940   -0.9410    0.0510 o         1 FFB     -0.358100
      9 N09        -2.8400   -0.9790    2.3650 ny        1 FFB     -0.678800
     10 C10        -3.9460    0.0420    2.4820 c3        1 FFB      0.187100
     11 S11         3.7160    0.6220    1.7070 sy        1 FFB      1.461200
     12 NP2         3.9160    2.0910    0.5420 nz        1 FFB     -0.801500
     13 O13         4.5170   -0.3060    1.0860 o         1 FFB     -0.532300
     14 O14         3.9910    1.2130    2.9170 o         1 FFB     -0.532300
     15 C15        -4.6030   -0.0220    3.8140 ca        1 FFB     -0.246300
     16 C16        -3.8900    0.3950    4.9600 ca        1 FFB      0.143900
     17 C17        -4.5090    0.4530    6.2260 ca        1 FFB      0.102900
     18 C18        -5.8790    0.0780    6.3500 ca        1 FFB      0.168900
     19 C19        -6.5970   -0.3580    5.2070 ca        1 FFB      0.102900
     20 C20        -5.9490   -0.4110    3.9420 ca        1 FFB      0.143900
     21 F21        -2.5840    0.7380    4.8270 f         1 FFB     -0.112900
     22 F22        -3.8170    0.8560    7.3060 f         1 FFB     -0.061400
     23 F23        -6.4810    0.1340    7.5460 f         1 FFB     -0.046900
     24 F24        -7.8860   -0.7220    5.3150 f         1 FFB     -0.061400
     25 F25        -6.6390   -0.8300    2.8630 f         1 FFB     -0.112900
     26 H01C       -0.0050   -1.6070   -0.4030 ha        1 FFB      0.190000
     27 H02C        2.3980   -1.0260   -0.1970 ha        1 FFB      0.197000
     28 H04C        1.4820    1.5580    3.1840 ha        1 FFB      0.197000
     29 H05C       -0.9020    0.9700    3.0030 ha        1 FFB      0.190000
     30 H09N       -2.2400   -0.9260    3.1980 hn        1 FFB      0.473300
     31 H101       -3.4770    1.0600    2.3360 hx        1 FFB      0.131200
     32 H102       -4.6840   -0.1510    1.6460 hx        1 FFB      0.131200
     33 HNP1        4.2540    2.9110    1.0550 hn        1 FFB      0.472133
     34 HNP2        3.0610    2.3650    0.0650 hn        1 FFB      0.472133
     35 H092       -3.2640   -1.9180    2.3280 hn        1 FFB      0.473300
     36 HP23        4.6130    1.8830   -0.1790 hn        1 FFB      0.472133
@<TRIPOS>BOND
     1    1    2 ar  
     2    1    6 ar  
     3    1   26 1   
     4    2    3 ar  
     5    2   27 1   
     6    3    4 ar  
     7    3   11 1   
     8    4    5 ar  
     9    4   28 1   
    10    5    6 ar  
    11    5   29 1   
    12    6    7 1   
    13    7    8 2   
    14    7    9 1   
    15    9   10 1   
    16    9   30 1   
    17    9   35 1   
    18   10   15 1   
    19   10   31 1   
    20   10   32 1   
    21   11   12 1   
    22   11   13 2   
    23   11   14 2   
    24   12   33 1   
    25   12   34 1   
    26   12   36 1   
    27   15   16 ar  
    28   15   20 ar  
    29   16   17 ar  
    30   16   21 1   
    31   17   18 ar  
    32   17   22 1   
    33   18   19 ar  
    34   18   23 1   
    35   19   20 ar  
    36   19   24 1   
    37   20   25 1   
@<TRIPOS>SUBSTRUCTURE
     1 FFB         1 TEMP              0 ****  ****    0 ROOT
