@<TRIPOS>MOLECULE
FFB
   36    37     1     0     0
SMALL
bcc


@<TRIPOS>ATOM
      1 C01         0.2580   -0.8390    0.3140 ca        1 FFB     -0.094500
      2 C02         1.6200   -0.5580    0.4310 ca        1 FFB      0.011000
      3 C03         2.1080    0.2490    1.4740 ca        1 FFB     -0.455500
      4 C04         1.1850    0.7690    2.4010 ca        1 FFB      0.011000
      5 C05        -0.1760    0.4880    2.3020 ca        1 FFB     -0.094500
      6 C06        -0.6390   -0.3200    1.2580 ca        1 FFB     -0.084600
      7 C07        -2.0750   -0.6300    1.0670 c         1 FFB      0.543700
      8 O08        -2.6590   -0.7180   -0.0020 o         1 FFB     -0.358100
      9 N09        -2.8910   -0.8920    2.3060 n4        1 FFB     -0.678800
     10 C10        -3.9500    0.1670    2.4990 c3        1 FFB      0.187100
     11 S11         3.7250    0.4590    1.6900 sy        1 FFB      1.461200
     12 NP2         3.9820    1.9900    0.6190 n4        1 FFB     -0.801500
     13 O13         4.4790   -0.4610    1.0030 o         1 FFB     -0.532300
     14 O14         4.0330    0.9590    2.9330 o         1 FFB     -0.532300
     15 C15        -4.6010    0.0460    3.8300 ca        1 FFB     -0.246300
     16 C16        -3.8620    0.3570    4.9940 ca        1 FFB      0.143900
     17 C17        -4.4700    0.3600    6.2660 ca        1 FFB      0.102900
     18 C18        -5.8540    0.0390    6.3780 ca        1 FFB      0.168900
     19 C19        -6.5990   -0.2910    5.2170 ca        1 FFB      0.102900
     20 C20        -5.9610   -0.2900    3.9450 ca        1 FFB      0.143900
     21 F21        -2.5430    0.6490    4.8710 f         1 FFB     -0.112900
     22 F22        -3.7540    0.6620    7.3640 f         1 FFB     -0.061400
     23 F23        -6.4450    0.0450    7.5810 f         1 FFB     -0.046900
     24 F24        -7.9020   -0.6040    5.3130 f         1 FFB     -0.061400
     25 F25        -6.6760   -0.6080    2.8480 f         1 FFB     -0.112900
     26 H01C       -0.1050   -1.4660   -0.5230 ha        1 FFB      0.190000
     27 H02C        2.3230   -1.0040   -0.3030 ha        1 FFB      0.197000
     28 H04C        1.5440    1.3950    3.2450 ha        1 FFB      0.197000
     29 H05C       -0.8650    0.9240    3.0490 ha        1 FFB      0.190000
     30 H09N       -2.2840   -0.9200    3.1350 hn        1 FFB      0.473300
     31 H101       -3.4370    1.1710    2.4130 hx        1 FFB      0.131200
     32 H102       -4.7010    0.0610    1.6590 hx        1 FFB      0.131200
     33 HNP1        4.3590    2.7590    1.1800 hn        1 FFB      0.472133
     34 HNP2        3.1360    2.3300    0.1690 hn        1 FFB      0.472133
     35 H092       -3.3570   -1.8070    2.2130 hn        1 FFB      0.473300
     36 HP23        4.6640    1.7980   -0.1200 hn        1 FFB      0.472133
@<TRIPOS>BOND
     1    1    2 ar  
     2    1    6 ar  
     3    1   26 1   
     4    2    3 ar  
     5    2   27 1   
     6    3    4 ar  
     7    3   11 1   
     8    4    5 ar  
     9    4   28 1   
    10    5    6 ar  
    11    5   29 1   
    12    6    7 1   
    13    7    8 2   
    14    7    9 1   
    15    9   10 1   
    16    9   30 1   
    17    9   35 1   
    18   10   15 1   
    19   10   31 1   
    20   10   32 1   
    21   11   12 1   
    22   11   13 2   
    23   11   14 2   
    24   12   33 1   
    25   12   34 1   
    26   12   36 1   
    27   15   16 ar  
    28   15   20 ar  
    29   16   17 ar  
    30   16   21 1   
    31   17   18 ar  
    32   17   22 1   
    33   18   19 ar  
    34   18   23 1   
    35   19   20 ar  
    36   19   24 1   
    37   20   25 1   
@<TRIPOS>SUBSTRUCTURE
     1 FFB         1 TEMP              0 ****  ****    0 ROOT
