@<TRIPOS>MOLECULE
FFB
   36    37     1     0     0
SMALL
bcc


@<TRIPOS>ATOM
      1 C01         0.3220   -0.9060    0.3900 ca        1 FFB     -0.094500
      2 C02         1.6700   -0.5680    0.5040 ca        1 FFB      0.011000
      3 C03         2.1150    0.3160    1.5030 ca        1 FFB     -0.455500
      4 C04         1.1630    0.8530    2.3900 ca        1 FFB      0.011000
      5 C05        -0.1850    0.5150    2.2950 ca        1 FFB     -0.094500
      6 C06        -0.6060   -0.3690    1.2940 ca        1 FFB     -0.084600
      7 C07        -2.0270   -0.7440    1.1090 c         1 FFB      0.543700
      8 O08        -2.5950   -0.9140    0.0420 o         1 FFB     -0.358100
      9 N09        -2.8450   -0.9670    2.3540 n4        1 FFB     -0.678800
     10 C10        -3.9470    0.0570    2.4760 c3        1 FFB      0.187100
     11 S11         3.7210    0.5990    1.7210 sy        1 FFB      1.461200
     12 NP2         3.9320    2.0740    0.5660 n4        1 FFB     -0.801500
     13 O13         4.5170   -0.3300    1.0960 o         1 FFB     -0.532300
     14 O14         3.9960    1.1810    2.9360 o         1 FFB     -0.532300
     15 C15        -4.6070   -0.0120    3.8060 ca        1 FFB     -0.246300
     16 C16        -3.8940    0.3960    4.9550 ca        1 FFB      0.143900
     17 C17        -4.5160    0.4490    6.2210 ca        1 FFB      0.102900
     18 C18        -5.8870    0.0780    6.3400 ca        1 FFB      0.168900
     19 C19        -6.6050   -0.3490    5.1940 ca        1 FFB      0.102900
     20 C20        -5.9550   -0.3960    3.9290 ca        1 FFB      0.143900
     21 F21        -2.5870    0.7340    4.8270 f         1 FFB     -0.112900
     22 F22        -3.8240    0.8420    7.3040 f         1 FFB     -0.061400
     23 F23        -6.4900    0.1300    7.5350 f         1 FFB     -0.046900
     24 F24        -7.8960   -0.7090    5.2970 f         1 FFB     -0.061400
     25 F25        -6.6440   -0.8060    2.8470 f         1 FFB     -0.112900
     26 H01C       -0.0090   -1.5940   -0.4120 ha        1 FFB      0.190000
     27 H02C        2.3970   -1.0280   -0.1970 ha        1 FFB      0.197000
     28 H04C        1.4890    1.5400    3.1990 ha        1 FFB      0.197000
     29 H05C       -0.8980    0.9670    3.0090 ha        1 FFB      0.190000
     30 H09N       -2.2470   -0.9230    3.1890 hn        1 FFB      0.473300
     31 H101       -3.4750    1.0740    2.3360 hx        1 FFB      0.131200
     32 H102       -4.6850   -0.1280    1.6370 hx        1 FFB      0.131200
     33 HNP1        3.0800    2.3560    0.0880 hn        1 FFB      0.472133
     34 HNP2        4.2740    2.8890    1.0840 hn        1 FFB      0.472133
     35 H092       -3.2730   -1.9040    2.3110 hn        1 FFB      0.473300
     36 HP23        4.6300    1.8670   -0.1550 hn        1 FFB      0.472133
@<TRIPOS>BOND
     1    1    2 ar  
     2    1    6 ar  
     3    1   26 1   
     4    2    3 ar  
     5    2   27 1   
     6    3    4 ar  
     7    3   11 1   
     8    4    5 ar  
     9    4   28 1   
    10    5    6 ar  
    11    5   29 1   
    12    6    7 1   
    13    7    8 2   
    14    7    9 1   
    15    9   10 1   
    16    9   30 1   
    17    9   35 1   
    18   10   15 1   
    19   10   31 1   
    20   10   32 1   
    21   11   12 1   
    22   11   13 2   
    23   11   14 2   
    24   12   33 1   
    25   12   34 1   
    26   12   36 1   
    27   15   16 ar  
    28   15   20 ar  
    29   16   17 ar  
    30   16   21 1   
    31   17   18 ar  
    32   17   22 1   
    33   18   19 ar  
    34   18   23 1   
    35   19   20 ar  
    36   19   24 1   
    37   20   25 1   
@<TRIPOS>SUBSTRUCTURE
     1 FFB         1 TEMP              0 ****  ****    0 ROOT
