@<TRIPOS>MOLECULE
FFC
   44    45     1     0     0
SMALL
bcc


@<TRIPOS>ATOM
      1 O1A        -3.9040   -3.3810    0.2850 oh        1 FFC     -0.579800
      2 C1A        -2.6140   -3.1570   -0.2070 c3        1 FFC      0.314900
      3 C2A        -1.6840   -2.9060    0.9560 c3        1 FFC      0.094600
      4 C3A        -0.3280   -2.4820    0.5140 c3        1 FFC      0.114100
      5 C4A        -0.3780   -1.3150   -0.4610 c3        1 FFC      0.124100
      6 C5A        -1.3160   -1.5730   -1.6190 c3        1 FFC      0.090100
      7 C6A        -0.7200   -2.6530   -2.5030 c3        1 FFC      0.101400
      8 F2A        -2.2160   -1.9310    1.7410 f         1 FFC     -0.220300
      9 O3A         0.3200   -3.5910   -0.1250 oh        1 FFC     -0.597800
     10 O4A        -0.8100   -0.1520    0.2320 os        1 FFC     -0.384600
     11 O5A        -2.6550   -1.9980   -1.1770 os        1 FFC     -0.433600
     12 O6A        -1.4410   -2.7030   -3.7570 oh        1 FFC     -0.594800
     13 C1B         0.0890    0.8950   -0.0110 c3        1 FFC      0.340900
     14 C2B        -0.6310    2.2110    0.1750 c3        1 FFC      0.130100
     15 C3B         0.2900    3.3730    0.1100 c3        1 FFC      0.108100
     16 C4B         1.4550    3.2250    1.0290 c3        1 FFC      0.086100
     17 C5B         2.1740    1.8920    0.8430 c3        1 FFC      0.117100
     18 C6B         3.2100    1.7420    1.9230 c3        1 FFC      0.124400
     19 O2B        -1.6300    2.3510   -0.8610 oh        1 FFC     -0.589800
     20 O3B        -0.4470    4.5850    0.4710 oh        1 FFC     -0.604800
     21 O4B         2.3660    4.2770    0.7810 oh        1 FFC     -0.609800
     22 O5B         1.2620    0.7510    0.9040 os        1 FFC     -0.448600
     23 O6B         4.4590    2.2910    1.4690 oh        1 FFC     -0.614800
     24 H1A        -2.3120   -3.9630   -0.6870 h2        1 FFC      0.089700
     25 H2A        -1.6010   -3.7490    1.4950 h1        1 FFC      0.063700
     26 H3A         0.2060   -2.2120    1.3200 h1        1 FFC      0.078700
     27 H4A         0.5230   -1.1580   -0.8130 h1        1 FFC      0.083700
     28 H5A        -1.4050   -0.7480   -2.1440 h1        1 FFC      0.105700
     29 H6A         0.2260   -2.4490   -2.6780 h1        1 FFC      0.056200
     30 H6AA       -0.7880   -3.5160   -2.0520 h1        1 FFC      0.056200
     31 HO3A        0.7660   -4.0470    0.4680 ho        1 FFC      0.412000
     32 HO6A       -1.0140   -3.2540   -4.3270 ho        1 FFC      0.416000
     33 H1B         0.4040    0.8340   -0.9420 h2        1 FFC      0.062700
     34 H2B        -1.0780    2.2070    1.0480 h1        1 FFC      0.083700
     35 H3B         0.6120    3.4610   -0.7850 h1        1 FFC      0.064700
     36 H4B         1.1390    3.2900    1.9620 h1        1 FFC      0.062700
     37 H5B         2.6100    1.8930   -0.0050 h1        1 FFC      0.070700
     38 H6B         3.3300    0.7810    2.1370 h1        1 FFC      0.045700
     39 H6BA        2.9160    2.2210    2.7270 h1        1 FFC      0.045700
     40 HO2B       -2.3450    2.7360   -0.5270 ho        1 FFC      0.426000
     41 HO3B       -0.2520    5.2520   -0.1280 ho        1 FFC      0.428000
     42 HO4B        2.3610    4.8470    1.4770 ho        1 FFC      0.433000
     43 HO6B        5.1140    1.8990    1.8800 ho        1 FFC      0.416000
     44 H1         -4.2650   -4.0730   -0.1330 ho        1 FFC      0.433000
@<TRIPOS>BOND
     1    1    2 1   
     2    1   44 1   
     3    2    3 1   
     4    2   11 1   
     5    2   24 1   
     6    3    4 1   
     7    3    8 1   
     8    3   25 1   
     9    4    5 1   
    10    4    9 1   
    11    4   26 1   
    12    5    6 1   
    13    5   10 1   
    14    5   27 1   
    15    6    7 1   
    16    6   11 1   
    17    6   28 1   
    18    7   12 1   
    19    7   29 1   
    20    7   30 1   
    21    9   31 1   
    22   10   13 1   
    23   12   32 1   
    24   13   14 1   
    25   13   22 1   
    26   13   33 1   
    27   14   15 1   
    28   14   19 1   
    29   14   34 1   
    30   15   16 1   
    31   15   20 1   
    32   15   35 1   
    33   16   17 1   
    34   16   21 1   
    35   16   36 1   
    36   17   18 1   
    37   17   22 1   
    38   17   37 1   
    39   18   23 1   
    40   18   38 1   
    41   18   39 1   
    42   19   40 1   
    43   20   41 1   
    44   21   42 1   
    45   23   43 1   
@<TRIPOS>SUBSTRUCTURE
     1 FFC         1 TEMP              0 ****  ****    0 ROOT
