@<TRIPOS>MOLECULE
FFC
   44    45     1     0     0
SMALL
bcc


@<TRIPOS>ATOM
      1 O1A         4.3640   -0.0530   -1.2900 oh        1 FFC     -0.607800
      2 C1A         4.1050   -0.4840    0.0190 c3        1 FFC      0.309900
      3 C2A         3.1090   -1.6650   -0.0240 c3        1 FFC      0.123600
      4 C3A         1.7440   -1.2080   -0.5950 c3        1 FFC      0.113100
      5 C4A         1.2470    0.0340    0.1620 c3        1 FFC      0.134100
      6 C5A         2.3360    1.1210    0.1880 c3        1 FFC      0.083100
      7 C6A         1.9310    2.2750    1.1110 c3        1 FFC      0.137400
      8 F2A         3.6150   -2.7190   -0.7630 f         1 FFC     -0.224300
      9 O3A         0.7980   -2.2400   -0.3800 oh        1 FFC     -0.585800
     10 O4A         0.1550    0.5960   -0.5760 os        1 FFC     -0.409600
     11 O5A         3.5670    0.6230    0.7170 os        1 FFC     -0.454600
     12 O6A         2.8140    3.3660    0.9830 oh        1 FFC     -0.591800
     13 C1B        -1.0750    0.6310    0.1200 c3        1 FFC      0.307900
     14 C2B        -2.0300    1.5220   -0.6980 c3        1 FFC      0.086100
     15 C3B        -3.4540    1.3500   -0.1510 c3        1 FFC      0.108100
     16 C4B        -3.8340   -0.1420   -0.1370 c3        1 FFC      0.122100
     17 C5B        -2.7810   -0.9460    0.6400 c3        1 FFC      0.106100
     18 C6B        -3.0140   -2.4550    0.5030 c3        1 FFC      0.149400
     19 O2B        -1.6900    2.8860   -0.5330 oh        1 FFC     -0.602800
     20 O3B        -4.3980    1.9960   -0.9880 oh        1 FFC     -0.604800
     21 O4B        -5.0700   -0.3270    0.5290 oh        1 FFC     -0.593800
     22 O5B        -1.4790   -0.7270    0.0940 os        1 FFC     -0.426600
     23 O6B        -1.9870   -3.1860    1.1350 oh        1 FFC     -0.603800
     24 H1A         5.0420   -0.7560    0.5820 h2        1 FFC      0.086700
     25 H2A         2.9560   -2.0180    1.0380 h1        1 FFC      0.079700
     26 H3A         1.8480   -0.9750   -1.6900 h1        1 FFC      0.083700
     27 H4A         0.9360   -0.2590    1.2000 h1        1 FFC      0.079700
     28 H5A         2.5150    1.4990   -0.8570 h1        1 FFC      0.083700
     29 H6A         0.9260    2.6650    0.7910 h1        1 FFC      0.057200
     30 H6AA        1.8910    1.9220    2.1750 h1        1 FFC      0.057200
     31 HO3A        1.0220   -2.9490   -0.9970 ho        1 FFC      0.415000
     32 HO6A        3.6910    3.0500    1.2400 ho        1 FFC      0.412000
     33 H1B        -0.9600    1.0030    1.1760 h2        1 FFC      0.053700
     34 H2B        -1.9870    1.2330   -1.7840 h1        1 FFC      0.080700
     35 H3B        -3.5180    1.7780    0.8890 h1        1 FFC      0.064700
     36 H4B        -3.9090   -0.5150   -1.1970 h1        1 FFC      0.064700
     37 H5B        -2.7890   -0.6450    1.7240 h1        1 FFC      0.066700
     38 H6B        -3.9620   -2.7320    1.0360 h1        1 FFC      0.059200
     39 H6BA       -3.0810   -2.7320   -0.5820 h1        1 FFC      0.059200
     40 HO2B       -0.8150    3.0020   -0.9270 ho        1 FFC      0.424000
     41 HO3B       -4.1270    2.9220   -1.0460 ho        1 FFC      0.427000
     42 HO4B       -5.7100    0.2380    0.0740 ho        1 FFC      0.425000
     43 HO6B       -1.1500   -2.9220    0.7230 ho        1 FFC      0.427000
     44 H1          5.0230    0.6520   -1.2400 ho        1 FFC      0.422000
@<TRIPOS>BOND
     1    1    2 1   
     2    1   44 1   
     3    2    3 1   
     4    2   11 1   
     5    2   24 1   
     6    3    4 1   
     7    3    8 1   
     8    3   25 1   
     9    4    5 1   
    10    4    9 1   
    11    4   26 1   
    12    5    6 1   
    13    5   10 1   
    14    5   27 1   
    15    6    7 1   
    16    6   11 1   
    17    6   28 1   
    18    7   12 1   
    19    7   29 1   
    20    7   30 1   
    21    9   31 1   
    22   10   13 1   
    23   12   32 1   
    24   13   14 1   
    25   13   22 1   
    26   13   33 1   
    27   14   15 1   
    28   14   19 1   
    29   14   34 1   
    30   15   16 1   
    31   15   20 1   
    32   15   35 1   
    33   16   17 1   
    34   16   21 1   
    35   16   36 1   
    36   17   18 1   
    37   17   22 1   
    38   17   37 1   
    39   18   23 1   
    40   18   38 1   
    41   18   39 1   
    42   19   40 1   
    43   20   41 1   
    44   21   42 1   
    45   23   43 1   
@<TRIPOS>SUBSTRUCTURE
     1 FFC         1 TEMP              0 ****  ****    0 ROOT
