@<TRIPOS>MOLECULE
FFD
   31    27     1     0     0
SMALL
bcc


@<TRIPOS>ATOM
      1 O3P        -0.4230    5.2740   -2.1570 o         1 FFD     -0.932833
      2 C           2.2640   -0.6910    0.3620 c1        1 FFD     -0.159500
      3 C1          3.3030   -0.7380    1.2890 c1        1 FFD      0.021000
      4 F           4.4460   -0.0620    1.0550 f         1 FFD     -0.118000
      5 C3          3.1660   -1.4960    2.4520 c1        1 FFD     -0.159500
      6 C4          1.9910   -2.2060    2.6870 c1        1 FFD     -0.144000
      7 C5          0.9530   -2.1590    1.7630 c1        1 FFD     -0.144000
      8 C6          1.0890   -1.4000    0.5970 c1        1 FFD      0.021000
      9 C1'        -0.0280   -1.4480   -0.5020 c2        1 FFD      0.066000
     10 O4'         0.1220   -0.2500   -1.4740 os        1 FFD     -0.300000
     11 C2'        -1.1590   -1.3050    0.0230 c3        1 FFD     -0.193000
     12 C3'        -2.0530   -0.4860   -1.0440 c3        1 FFD      0.049000
     13 O3'        -2.5780   -1.4030   -2.0720 oh        1 FFD     -0.406000
     14 C4'        -1.2750    0.3660   -1.5780 c3        1 FFD     -0.049000
     15 C5'        -1.3330    1.7350   -0.7880 c3        1 FFD      0.081000
     16 O5'        -0.9350    2.8160   -1.6680 os        1 FFD     -0.722000
     17 P          -0.7670    4.2940   -1.0470 p5        1 FFD      1.565500
     18 O2P        -2.0620    4.7140   -0.3870 o         1 FFD     -0.932833
     19 O1P         0.3380    4.2860   -0.0240 o         1 FFD     -0.932833
     20 H           2.3610   -0.1570   -0.4570 ha        1 FFD      0.162000
     21 H3          3.8980   -1.5290    3.1040 ha        1 FFD      0.162000
     22 H4          1.8950   -2.7410    3.5090 ha        1 FFD      0.115500
     23 H5          0.1650   -2.7340    1.8830 ha        1 FFD      0.115500
     24 H1'         0.0140   -2.2940   -0.9950 h4        1 FFD      0.066000
     25 H2'1       -1.5640   -2.1860    0.1980 hc        1 FFD      0.078000
     26 H2'2       -1.0810   -0.7970    0.8580 hc        1 FFD      0.078000
     27 H3'        -2.7900   -0.0310   -0.5880 h1        1 FFD      0.135000
     28 H3T        -3.4640   -1.4640   -1.9920 ho        1 FFD      0.299000
     29 H4'        -1.5160    0.5040   -2.5150 h1        1 FFD      0.108000
     30 H5'1       -0.7250    1.6960   -0.0250 h1        1 FFD      0.035000
     31 H5'2       -2.2510    1.8920   -0.4700 h1        1 FFD      0.035000
@<TRIPOS>BOND
     1    1   17 1   
     2    2    8 1   
     3    2   20 1   
     4    3    5 1   
     5    5   21 1   
     6    6    7 1   
     7    6   22 1   
     8    7   23 1   
     9    9   10 1   
    10    9   11 1   
    11    9   24 1   
    12   10   14 1   
    13   11   12 1   
    14   11   25 1   
    15   11   26 1   
    16   12   13 1   
    17   12   14 1   
    18   12   27 1   
    19   13   28 1   
    20   14   15 1   
    21   14   29 1   
    22   15   16 1   
    23   15   30 1   
    24   15   31 1   
    25   16   17 1   
    26   17   18 1   
    27   17   19 1   
@<TRIPOS>SUBSTRUCTURE
     1 FFD         1 TEMP              0 ****  ****    0 ROOT
