@<TRIPOS>MOLECULE
FFD
   31    32     1     0     0
SMALL
bcc


@<TRIPOS>ATOM
      1 O3P        -2.9060    1.6580   -1.2830 o         1 FFD     -0.932500
      2 C           3.9860    0.3650    0.2240 ca        1 FFD     -0.176000
      3 C1          4.8300   -0.4970   -0.4990 ca        1 FFD      0.086900
      4 F           6.1760   -0.2990   -0.4750 f         1 FFD     -0.174900
      5 C3          4.2950   -1.5610   -1.2440 ca        1 FFD     -0.189000
      6 C4          2.9150   -1.7530   -1.2560 ca        1 FFD     -0.116000
      7 C5          2.0720   -0.9050   -0.5420 ca        1 FFD     -0.099000
      8 C6          2.6050    0.1600    0.1980 ca        1 FFD     -0.050300
      9 C1'         1.6970    1.0860    0.9630 c3        1 FFD      0.185400
     10 O4'         0.5710    0.3710    1.4630 os        1 FFD     -0.442600
     11 C2'         1.1970    2.2430    0.0910 c3        1 FFD     -0.116400
     12 C3'        -0.2960    1.9620   -0.1390 c3        1 FFD      0.158100
     13 O3'        -1.0230    3.1440    0.1090 oh        1 FFD     -0.674800
     14 C4'        -0.6600    0.8530    0.8680 c3        1 FFD      0.059100
     15 C5'        -1.4170   -0.3390    0.2340 c3        1 FFD      0.227400
     16 O5'        -2.7700   -0.1810    0.3600 os        1 FFD     -0.559200
     17 P          -3.5610    0.3010   -1.1170 p5        1 FFD      1.330900
     18 O2P        -5.0150    0.2900   -0.7560 o         1 FFD     -0.932500
     19 O1P        -3.0670   -0.7430   -2.0790 o         1 FFD     -0.932500
     20 H4          2.4850   -2.5800   -1.8400 ha        1 FFD      0.134000
     21 H5          0.9740   -1.0540   -0.5440 ha        1 FFD      0.198000
     22 H1'         2.2500    1.4670    1.8670 h1        1 FFD      0.027700
     23 H2'1        1.3300    3.2160    0.6250 hc        1 FFD      0.039700
     24 H2'2        1.7460    2.2950   -0.8770 hc        1 FFD      0.039700
     25 H3'        -0.4880    1.6190   -1.1930 h1        1 FFD      0.095700
     26 H3T        -1.9200    2.9740   -0.2640 ho        1 FFD      0.499000
     27 H4'        -1.2650    1.2750    1.7140 h1        1 FFD      0.067700
     28 H5'1       -1.1200   -0.4470   -0.8490 h1        1 FFD     -0.004800
     29 H5'2       -1.0890   -1.2660    0.7930 h1        1 FFD     -0.004800
     30 H           4.4190    1.1920    0.8020 ha        1 FFD      0.131000
     31 H3          4.9640   -2.2240   -1.8060 ha        1 FFD      0.122000
@<TRIPOS>BOND
     1    1   17 1   
     2    2    3 ar  
     3    2    8 ar  
     4    2   30 1   
     5    3    4 1   
     6    3    5 ar  
     7    5    6 ar  
     8    5   31 1   
     9    6    7 ar  
    10    6   20 1   
    11    7    8 ar  
    12    7   21 1   
    13    8    9 1   
    14    9   10 1   
    15    9   11 1   
    16    9   22 1   
    17   10   14 1   
    18   11   12 1   
    19   11   23 1   
    20   11   24 1   
    21   12   13 1   
    22   12   14 1   
    23   12   25 1   
    24   13   26 1   
    25   14   15 1   
    26   14   27 1   
    27   15   16 1   
    28   15   28 1   
    29   15   29 1   
    30   16   17 1   
    31   17   18 1   
    32   17   19 1   
@<TRIPOS>SUBSTRUCTURE
     1 FFD         1 TEMP              0 ****  ****    0 ROOT
