@<TRIPOS>MOLECULE
FFF
   49    51     1     0     0
SMALL
bcc


@<TRIPOS>ATOM
      1 PA          0.0000    0.0000    0.0000 p5        1 FFF      1.349000
      2 O1A         1.4790    0.0000    0.0000 o         1 FFF     -0.651000
      3 O2A        -0.5360    0.0000    1.5180 o         1 FFF     -0.651000
      4 O5A        -0.5360   -1.3150   -0.7590 os        1 FFF     -0.632000
      5 PB          0.0350    2.5840    0.0500 p5        1 FFF      1.035500
      6 O1B         1.5140    2.5450    0.0490 o         1 FFF     -0.595167
      7 O2B        -0.4660    3.9410   -0.6570 o         1 FFF     -0.595167
      8 O3A        -0.5370    1.3140   -0.7580 os        1 FFF     -0.927000
      9 O3B        -0.5010    2.5410    1.5670 o         1 FFF     -0.595167
     10 C1         -0.0300   -2.4410   -0.0420 DU        1 FFF      0.047000
     11 C2         -0.4990   -3.7110   -0.7060 c2        1 FFF     -0.462000
     12 C3          0.3400   -4.6980   -0.8960 c2        1 FFF     -0.180000
     13 C4         -0.1330   -5.9750   -1.5390 c3        1 FFF     -0.003000
     14 C5          0.0350   -5.8770   -3.0560 DU        1 FFF     -0.105000
     15 C6         -0.4390   -7.1550   -3.6980 c2        1 FFF     -0.548000
     16 C7         -1.3460   -7.1150   -4.6430 c2        1 FFF     -0.043000
     17 C8         -1.9100   -8.3980   -5.2000 c3        1 FFF     -0.020000
     18 C9         -3.1400   -8.8070   -4.3890 DU        1 FFF     -0.076000
     19 C10        -3.7050  -10.0890   -4.9460 c2        1 FFF     -0.559000
     20 C11        -3.8870  -11.1210   -4.1590 c2        1 FFF     -0.154000
     21 C12        -4.3340  -12.4380   -4.7360 c3        1 FFF     -0.067000
     22 C15        -3.6490  -10.9880   -2.6770 c3        1 FFF     -0.067000
     23 C13        -1.8240   -5.7890   -5.1730 c3        1 FFF     -0.126000
     24 C14         1.7800   -4.5560   -0.4730 c3        1 FFF      0.348000
     25 F1          1.8370   -4.2130    0.8800 f         1 FFF     -0.146667
     26 F2          2.4470   -5.7690   -0.6740 f         1 FFF     -0.146667
     27 F3          2.3920   -3.5560   -1.2350 f         1 FFF     -0.146667
     28 H11         1.0530   -2.4120   -0.0430 ha        1 FFF      0.091500
     29 H12        -0.3910   -2.4120    0.9780 ha        1 FFF      0.091500
     30 H2          0.0590   -2.9340   -1.2140 DU        1 FFF      0.389000
     31 H41         0.4510   -6.8070   -1.1640 hc        1 FFF      0.065500
     32 H42        -1.1790   -6.1330   -1.3010 hc        1 FFF      0.065500
     33 H51        -0.5500   -5.0450   -3.4310 ha        1 FFF      0.041500
     34 H52         1.0800   -5.7200   -3.2940 ha        1 FFF      0.041500
     35 H6          0.3250   -6.5360   -4.1510 DU        1 FFF      0.249000
     36 H81        -2.1930   -8.2490   -6.2350 hc        1 FFF      0.050000
     37 H82        -1.1610   -9.1780   -5.1390 hc        1 FFF      0.050000
     38 H91        -2.8570   -8.9570   -3.3540 ha        1 FFF      0.036500
     39 H92        -3.8880   -8.0260   -4.4490 ha        1 FFF      0.036500
     40 H10        -4.3280   -9.3600   -4.4420 DU        1 FFF      0.212000
     41 H121       -3.6660  -13.2240   -4.4020 hc        1 FFF      0.026667
     42 H122       -4.3140  -12.3840   -5.8180 hc        1 FFF      0.026667
     43 H123       -5.3410  -12.6550   -4.4030 hc        1 FFF      0.026667
     44 H151       -4.0150  -11.8740   -2.1720 hc        1 FFF      0.026667
     45 H152       -2.5880  -10.8780   -2.4900 hc        1 FFF      0.026667
     46 H153       -4.1730  -10.1170   -2.3030 hc        1 FFF      0.026667
     47 H131       -2.4580   -5.9520   -6.0360 hc        1 FFF      0.046333
     48 H132       -2.3880   -5.2750   -4.4040 hc        1 FFF      0.046333
     49 H133       -0.9710   -5.1860   -5.4600 hc        1 FFF      0.046333
@<TRIPOS>BOND
     1    1    2 1   
     2    1    3 1   
     3    1    4 1   
     4    1    8 1   
     5    4   10 1   
     6    5    6 1   
     7    5    7 1   
     8    5    8 1   
     9    5    9 1   
    10   10   11 1   
    11   10   28 1   
    12   10   29 1   
    13   10   30 1   
    14   11   12 1   
    15   11   30 1   
    16   12   13 1   
    17   12   24 1   
    18   13   14 1   
    19   13   31 1   
    20   13   32 1   
    21   14   15 1   
    22   14   33 1   
    23   14   34 1   
    24   14   35 1   
    25   15   16 1   
    26   15   35 1   
    27   16   17 1   
    28   16   23 1   
    29   17   18 1   
    30   17   36 1   
    31   17   37 1   
    32   18   19 1   
    33   18   38 1   
    34   18   39 1   
    35   18   40 1   
    36   19   20 1   
    37   19   40 1   
    38   20   21 1   
    39   20   22 1   
    40   21   41 1   
    41   21   42 1   
    42   21   43 1   
    43   22   44 1   
    44   22   45 1   
    45   22   46 1   
    46   23   47 1   
    47   23   48 1   
    48   23   49 1   
    49   24   25 1   
    50   24   26 1   
    51   24   27 1   
@<TRIPOS>SUBSTRUCTURE
     1 FFF         1 TEMP              0 ****  ****    0 ROOT
