@<TRIPOS>MOLECULE
FFG
   73    76     1     0     0
SMALL
bcc


@<TRIPOS>ATOM
      1 C13         1.8920   -1.5460   -0.5230 c2        1 FFG     -0.065000
      2 C18         4.8750    3.3810    5.9220 cx        1 FFG      0.115000
      3 C17        -0.1750   -1.2530   -1.9350 c3        1 FFG     -0.085000
      4 C16         6.5830    0.2130    5.3120 c2        1 FFG     -0.139000
      5 C15         4.8620    5.9620    6.4360 c2        1 FFG      0.029000
      6 C19         3.1960   -0.1900    2.4690 c1        1 FFG     -0.085000
      7 C20         5.5750    1.1350    4.9890 c2        1 FFG     -0.114000
      8 C21         7.2600    0.7970    6.4430 c2        1 FFG     -0.217000
      9 C22         5.4640    7.0330    5.6880 c2        1 FFG      0.017000
     10 C23         4.6080    1.1170    3.8660 c2        1 FFG      0.376000
     11 C24         5.7320    9.0690    4.7070 c2        1 FFG      0.329000
     12 C11         2.4980   -0.2720    1.4970 c1        1 FFG     -0.129000
     13 C12         5.2510    4.6570    6.5240 cu        1 FFG     -0.111000
     14 C27         4.1040   -1.3000    4.3920 c3        1 FFG     -0.104000
     15 C1          2.5820    0.4280   -3.2890 c1        1 FFG     -0.201000
     16 C2         -0.9090   -2.3990   -3.8600 c1        1 FFG     -0.277000
     17 C3          3.1630    4.8070    7.5450 c2        1 FFG     -0.117000
     18 C4          2.0130   -0.4190   -2.6630 c1        1 FFG     -0.165000
     19 C5          2.5280   -2.6140   -0.1160 c1        1 FFG     -0.141000
     20 C6          1.6590   -0.3470    0.3420 c3        1 FFG      0.001000
     21 C7          3.5920    6.0610    7.1890 c2        1 FFG     -0.144000
     22 C8         -0.7540   -1.1970   -3.3280 c2        1 FFG     -0.116000
     23 C9          4.2560    3.8280    7.2940 cx        1 FFG     -0.197000
     24 C10         3.1580   -3.6800    0.2700 c2        1 FFG     -0.169000
     25 C14         1.3440   -1.4640   -1.9280 c3        1 FFG      0.053000
     26 C25         5.0230   -2.3520    4.0290 c1        1 FFG     -0.062000
     27 C26        -5.8500   -5.8960   -0.5980 c3        1 FFG     -0.213000
     28 C28        -0.8650   -3.6210   -3.2830 c2        1 FFG      0.023000
     29 C29        -4.8820   -3.6020   -0.9100 c2        1 FFG     -0.272000
     30 C30        -4.7410   -4.9280   -0.7730 c2        1 FFG      0.017000
     31 C32         8.4360    0.2000    7.1870 c3        1 FFG      0.515000
     32 N33         6.6940    1.9930    6.7760 n2        1 FFG      0.028000
     33 N34         6.6550    6.9870    5.0450 n2        1 FFG     -0.032000
     34 N35         5.7030    2.2060    5.9100 na        1 FFG     -0.058000
     35 N36         4.8700    8.3240    5.5630 ns        1 FFG     -0.314000
     36 N37         6.8800    8.2100    4.5260 ns        1 FFG     -0.257000
     37 N38         3.9840   -0.0990    3.5670 n         1 FFG     -0.222000
     38 N39        -1.1090   -3.6510   -1.9150 n7        1 FFG     -0.290000
     39 O41         5.5850   10.2330    4.3110 o         1 FFG     -0.326000
     40 O42        -3.4510   -5.4400   -0.7920 oh        1 FFG     -0.289000
     41 F43         9.5590    0.9860    7.1930 f         1 FFG     -0.154000
     42 F44         8.1840   -0.0650    8.5090 f         1 FFG     -0.154000
     43 F45         8.8540   -1.0010    6.6670 f         1 FFG     -0.154000
     44 H11         0.5770   -0.3500    0.6670 hc        1 FFG      0.116000
     45 H12         4.2860    3.4320    4.9690 h1        1 FFG      0.185000
     46 H27         3.0840   -1.8090    4.4330 h1        1 FFG      0.170000
     47 H27A        4.3440   -0.9910    5.4580 h1        1 FFG      0.170000
     48 H1          1.5490   -2.4480   -2.4550 hc        1 FFG      0.132000
     49 H2         -1.0720   -0.2410   -3.7470 ha        1 FFG      0.149000
     50 H3          2.2460    4.5450    8.0700 ha        1 FFG      0.158000
     51 H4          3.0840    1.1760   -3.8460 ha        1 FFG      0.224000
     52 H5          4.2450   -3.7970    0.1420 ha        1 FFG      0.134500
     53 H6          1.8210    0.5830   -0.2800 hc        1 FFG      0.116000
     54 H7          3.0780    7.0050    7.3670 ha        1 FFG      0.155000
     55 H8         -0.4110   -0.2960   -1.3960 hc        1 FFG      0.103000
     56 H9          4.5030    3.1910    8.1620 hc        1 FFG      0.181000
     57 H10         2.6420   -4.5300    0.7400 ha        1 FFG      0.134500
     58 H25         6.8300   -0.7280    4.8280 ha        1 FFG      0.186000
     59 H25A        5.6180   -2.2920    3.1100 ha        1 FFG      0.078000
     60 H26A       -5.8510   -6.6380   -1.4350 hc        1 FFG      0.095333
     61 H28        -0.6760   -4.5800   -3.7850 h4        1 FFG      0.161000
     62 H28A       -6.8350   -5.3700   -0.5880 hc        1 FFG      0.095333
     63 H29        -5.8700   -3.1300   -0.9020 ha        1 FFG      0.128000
     64 H29A       -1.8430   -4.2290   -1.5600 hn        1 FFG      0.226000
     65 H30        -4.0210   -2.9360   -1.0400 ha        1 FFG      0.128000
     66 HN36        3.9060    8.5030    5.6670 hn        1 FFG      0.266000
     67 HN37        7.4520    8.2670    3.7090 hn        1 FFG      0.272000
     68 HO42       -3.5080   -6.4010   -0.7080 ho        1 FFG      0.219000
     69 C31        -0.9190   -2.4050   -1.1870 c3        1 FFG     -0.060000
     70 O40         4.3680    2.1460    3.2110 o         1 FFG     -0.319000
     71 H26        -5.7310   -6.4500    0.3670 hc        1 FFG      0.095333
     72 H31        -1.9180   -1.9940   -0.8610 h1        1 FFG      0.088500
     73 H31A       -0.3250   -2.6640   -0.2660 h1        1 FFG      0.088500
@<TRIPOS>BOND
     1    1   19 1   
     2    1   20 1   
     3    1   25 1   
     4    2   13 1   
     5    2   23 1   
     6    2   34 1   
     7    2   45 1   
     8    3   22 1   
     9    3   25 1   
    10    3   55 1   
    11    3   69 1   
    12    4    7 1   
    13    4    8 1   
    14    4   58 1   
    15    5    9 1   
    16    5   13 1   
    17    5   21 1   
    18    6   12 1   
    19    6   37 1   
    20    7   10 1   
    21    7   34 1   
    22    8   31 1   
    23    8   32 1   
    24    9   33 1   
    25    9   35 1   
    26   10   37 1   
    27   10   70 1   
    28   11   35 1   
    29   11   36 1   
    30   11   39 1   
    31   12   20 1   
    32   13   23 1   
    33   14   26 1   
    34   14   37 1   
    35   14   46 1   
    36   14   47 1   
    37   15   18 1   
    38   15   51 1   
    39   16   22 1   
    40   16   28 1   
    41   17   21 1   
    42   17   23 1   
    43   17   50 1   
    44   18   25 1   
    45   19   24 1   
    46   20   44 1   
    47   20   53 1   
    48   21   54 1   
    49   22   49 1   
    50   23   56 1   
    51   24   52 1   
    52   24   57 1   
    53   25   48 1   
    54   26   59 1   
    55   27   30 1   
    56   27   60 1   
    57   27   62 1   
    58   27   71 1   
    59   28   38 1   
    60   28   61 1   
    61   29   30 1   
    62   29   63 1   
    63   29   65 1   
    64   30   40 1   
    65   31   41 1   
    66   31   42 1   
    67   31   43 1   
    68   32   34 1   
    69   33   36 1   
    70   35   66 1   
    71   36   67 1   
    72   38   64 1   
    73   38   69 1   
    74   40   68 1   
    75   69   72 1   
    76   69   73 1   
@<TRIPOS>SUBSTRUCTURE
     1 FFG         1 TEMP              0 ****  ****    0 ROOT
