@<TRIPOS>MOLECULE
FFG
   73    63     1     0     0
SMALL
bcc


@<TRIPOS>ATOM
      1 C13        -1.1510   -0.8280   -2.4130 c1        1 FFG     -0.003000
      2 C18         2.2200    3.2700    4.0990 c1        1 FFG     -0.003000
      3 C17        -2.6510   -1.9140   -4.1960 c1        1 FFG     -0.059000
      4 C16         2.6840   -0.2820    3.5160 c1        1 FFG     -0.082000
      5 C15         1.3240    5.2620    5.1210 c1        1 FFG     -0.034000
      6 C19         0.1850   -0.8280    0.0240 c1        1 FFG      0.059000
      7 C20         1.9440    0.8840    3.0420 c1        1 FFG     -0.165000
      8 C21         3.5030    0.1220    4.5270 c1        1 FFG     -0.165000
      9 C22         0.6600    6.4230    5.8620 c1        1 FFG      0.016000
     10 C23         0.8600    0.6430    1.8790 c1        1 FFG      0.389000
     11 C24         0.1090    7.5440    7.7320 c1        1 FFG      0.324000
     12 C11        -1.2030   -0.8300   -0.0110 c1        1 FFG     -0.160000
     13 C12         1.5160    3.8860    5.1350 c1        1 FFG     -0.064000
     14 C27         1.0310   -1.7270    2.1730 c3        1 FFG     -0.018000
     15 C1         -3.1690    0.7310   -4.8330 c1        1 FFG     -0.119667
     16 C2         -3.8350   -0.3000   -5.5050 c1        1 FFG     -0.119667
     17 C3          2.5420    5.4200    3.0280 c1        1 FFG     -0.128000
     18 C4         -2.2530    0.4320   -3.8510 c1        1 FFG     -0.119667
     19 C5          0.2380   -0.8260   -2.3780 c1        1 FFG     -0.119667
     20 C6         -1.8710   -0.8300   -1.2340 c1        1 FFG     -0.087500
     21 C7          1.8410    6.0350    4.0600 c2        1 FFG     -0.092000
     22 C8         -3.5740   -1.6120   -5.1850 c1        1 FFG     -0.119667
     23 C9          2.7340    4.0400    3.0420 c1        1 FFG     -0.087500
     24 C10         0.9040   -0.8260   -1.1530 c1        1 FFG     -0.119667
     25 C14        -1.9890   -0.8910   -3.5270 c1        1 FFG     -0.020000
     26 C25         2.2360   -1.6960    2.9790 c2        1 FFG     -0.115000
     27 C26        -1.6880   -5.0820   -7.1730 c3        1 FFG     -0.216000
     28 C28        -2.3390   -4.1220   -6.5540 c3        1 FFG     -0.080000
     29 C29        -1.5500   -5.3330   -4.7320 c3        1 FFG     -0.080000
     30 C30        -1.2770   -6.0680   -6.0630 c3        1 FFG      0.008000
     31 C31        -2.7750   -3.5160   -4.1820 c3        1 FFG     -0.039000
     32 C32         4.6700   -0.4410    5.3490 c2        1 FFG      0.516000
     33 N33         3.3130    1.5040    4.7160 n2        1 FFG     -0.006500
     34 N34        -0.6300    6.5380    5.8620 n1        1 FFG     -0.066000
     35 N35         2.3350    1.9520    3.7770 n2        1 FFG     -0.006500
     36 N36         1.2560    6.9660    6.9270 n2        1 FFG     -0.317000
     37 N37        -1.1210    7.1930    6.9230 n2        1 FFG     -0.248000
     38 N38         0.8090   -0.6280    1.3190 n3        1 FFG     -0.279000
     39 N39        -1.7720   -4.0840   -5.0680 n3        1 FFG     -0.232000
     40 O40         0.3880    1.6130    1.2600 o         1 FFG     -0.347000
     41 O41         0.1920    8.4230    8.5320 o         1 FFG     -0.323000
     42 O42         0.0530   -6.3730   -6.1720 oh        1 FFG     -0.319000
     43 F43         5.1610    0.5360    6.1600 f         1 FFG     -0.157333
     44 F44         4.2450   -1.4560    6.0850 f         1 FFG     -0.157333
     45 F45         5.6510   -0.8700    4.5100 f         1 FFG     -0.157333
     46 H11        -1.7000   -0.8330    0.8030 ha        1 FFG      0.133000
     47 H12         1.1600    3.3490    5.8690 ha        1 FFG      0.173000
     48 H27         1.0590   -2.5430    1.6180 h1        1 FFG      0.097500
     49 H27A        0.2350   -1.8000    2.8020 h1        1 FFG      0.097500
     50 H1         -3.3580    1.6800   -5.0630 ha        1 FFG      0.139167
     51 H2         -4.4550   -0.0970   -6.1710 ha        1 FFG      0.139167
     52 H3          2.8950    5.9450    2.3030 ha        1 FFG      0.151000
     53 H4         -1.7830    1.1630   -3.3760 ha        1 FFG      0.139167
     54 H5          0.7720   -0.8250   -3.2510 ha        1 FFG      0.139167
     55 H6         -2.9110   -0.8310   -1.2590 ha        1 FFG      0.154000
     56 H7          1.7040    7.0310    4.0490 ha        1 FFG      0.149000
     57 H8         -4.0140   -2.2900   -5.6290 ha        1 FFG      0.139167
     58 H9          3.2400    3.5960    2.2990 ha        1 FFG      0.154000
     59 H10         1.8730   -0.8230   -1.1290 ha        1 FFG      0.139167
     60 H25         2.9560   -2.0570    2.4520 ha        1 FFG      0.120500
     61 H25A        2.0970   -2.2950    3.7670 ha        1 FFG      0.120500
     62 H26        -2.2690   -5.5230   -7.8180 hc        1 FFG      0.092500
     63 H26A       -0.8440   -4.6980   -7.6480 hc        1 FFG      0.092500
     64 H28        -3.2890   -4.3150   -6.5450 h1        1 FFG      0.092500
     65 H28A       -2.1790   -3.2960   -6.9820 h1        1 FFG      0.092500
     66 H29        -0.7430   -5.3980   -4.1220 h1        1 FFG      0.102500
     67 H29A       -2.4010   -5.7380   -4.2580 h1        1 FFG      0.102500
     68 H30        -1.8190   -6.8870   -6.1170 h1        1 FFG      0.076000
     69 H31        -3.6790   -3.7850   -4.4910 h1        1 FFG      0.078500
     70 H31A       -2.6250   -3.8570   -3.2350 h1        1 FFG      0.078500
     71 HN36        2.1390    7.2190    6.9830 hn        1 FFG      0.266000
     72 HN37       -1.9680    7.1400    7.2360 hn        1 FFG      0.263000
     73 HO42        0.1530   -7.2880   -6.4940 ho        1 FFG      0.200000
@<TRIPOS>BOND
     1    1   20 1   
     2    2   23 1   
     3    3   25 1   
     4    3   31 1   
     5    4    7 1   
     6    4    8 1   
     7    5   13 1   
     8    5   21 1   
     9    6   12 1   
    10    6   38 1   
    11    7   35 1   
    12    8   33 1   
    13    9   34 1   
    14    9   36 1   
    15   10   38 1   
    16   10   40 1   
    17   11   37 1   
    18   11   41 1   
    19   12   46 1   
    20   13   47 1   
    21   14   26 1   
    22   14   38 1   
    23   14   48 1   
    24   14   49 1   
    25   15   18 1   
    26   15   50 1   
    27   16   22 1   
    28   16   51 1   
    29   17   21 1   
    30   17   52 1   
    31   18   53 1   
    32   19   24 1   
    33   19   54 1   
    34   20   55 1   
    35   21   56 1   
    36   22   57 1   
    37   23   58 1   
    38   24   59 1   
    39   26   60 1   
    40   26   61 1   
    41   27   28 1   
    42   27   30 1   
    43   27   62 1   
    44   27   63 1   
    45   28   39 1   
    46   28   64 1   
    47   28   65 1   
    48   29   30 1   
    49   29   39 1   
    50   29   66 1   
    51   29   67 1   
    52   30   42 1   
    53   30   68 1   
    54   31   39 1   
    55   31   69 1   
    56   31   70 1   
    57   32   43 1   
    58   32   44 1   
    59   32   45 1   
    60   33   35 1   
    61   36   71 1   
    62   37   72 1   
    63   42   73 1   
@<TRIPOS>SUBSTRUCTURE
     1 FFG         1 TEMP              0 ****  ****    0 ROOT
