@<TRIPOS>MOLECULE
FFG
   73    77     1     0     0
SMALL
bcc


@<TRIPOS>ATOM
      1 C13         0.1640    0.2080    0.1990 c2        1 FFG     -0.089000
      2 C18         5.0060    3.4710    5.4530 c3        1 FFG     -0.098000
      3 C17        -1.4990   -1.4430   -0.7500 c3        1 FFG     -0.045000
      4 C16         4.6750   -0.1890    5.6460 c2        1 FFG     -0.130000
      5 C15         6.4230    5.4970    5.3690 c2        1 FFG     -0.144000
      6 C19         1.5480    0.5290    2.5490 c2        1 FFG     -0.111000
      7 C20         4.3030    1.0360    5.0600 c2        1 FFG     -0.119000
      8 C21         5.6410    0.1670    6.6500 c2        1 FFG     -0.229000
      9 C22         7.6310    6.1120    4.8190 c2        1 FFG      0.036000
     10 C23         3.3770    1.3000    3.9330 c2        1 FFG      0.381000
     11 C24         9.6230    6.2690    3.7440 c2        1 FFG      0.320000
     12 C11         0.1120    0.5540    2.6710 c1        1 FFG     -0.064500
     13 C12         6.3460    4.0700    5.2480 c1        1 FFG     -0.002000
     14 C27         1.7620   -0.3930    4.7970 c3        1 FFG     -0.123000
     15 C1          1.8410   -1.9740   -2.0740 c2        1 FFG     -0.158000
     16 C2         -1.5790   -2.6510   -2.8950 c1        1 FFG     -0.162000
     17 C3          4.2740    5.5910    6.5940 c3        1 FFG     -0.248000
     18 C4          0.8770   -1.4340   -1.4000 c1        1 FFG     -0.132000
     19 C5          1.3940    0.9950    0.0310 c3        1 FFG     -0.138500
     20 C6         -0.6490    0.4610    1.4210 c3        1 FFG     -0.138500
     21 C7          5.4840    6.2310    6.0240 c2        1 FFG     -0.031000
     22 C8         -1.9710   -1.6530   -2.1550 c2        1 FFG     -0.117000
     23 C9          4.0740    4.1680    6.3690 c1        1 FFG     -0.002000
     24 C10         2.0380    0.7180    1.3040 c1        1 FFG     -0.064500
     25 C14        -0.0950   -0.9070   -0.6720 c2        1 FFG     -0.034000
     26 C25         1.9100   -1.8270    4.8090 c1        1 FFG     -0.069000
     27 C26        -1.8210   -5.0620   -3.2050 c3        1 FFG     -0.159000
     28 C28        -1.2050   -3.7430   -3.5010 c2        1 FFG     -0.109000
     29 C29        -1.6670   -5.0780   -0.6400 c3        1 FFG     -0.097000
     30 C30        -2.5860   -5.0800   -1.8820 c3        1 FFG     -0.015000
     31 C32         6.3610   -0.7820    7.5800 c3        1 FFG      0.516000
     32 N33         5.8380    1.5220    6.6670 n2        1 FFG      0.021000
     33 N34         8.0300    7.3940    4.9710 n2        1 FFG     -0.100000
     34 N35         5.0640    2.0300    5.7170 na        1 FFG     -0.023000
     35 N36         8.5470    5.3780    4.0190 n         1 FFG     -0.294000
     36 N37         9.1680    7.5530    4.2580 n         1 FFG     -0.243000
     37 N38         2.3500    0.3860    3.7110 n         1 FFG     -0.248000
     38 N39        -0.9110   -3.8920   -0.3310 n3        1 FFG     -0.302000
     39 O41        10.6510    6.0440    3.0930 o         1 FFG     -0.323000
     40 O42        -3.4340   -6.2160   -1.8280 oh        1 FFG     -0.317000
     41 F43         7.7290   -0.7540    7.4710 f         1 FFG     -0.158000
     42 F44         6.1170   -0.5610    8.9120 f         1 FFG     -0.158000
     43 F45         6.0280   -2.1000    7.3830 f         1 FFG     -0.158000
     44 H11        -1.4180   -0.3510    1.5810 hc        1 FFG      0.155250
     45 H12         4.5060    3.5920    4.4070 h1        1 FFG      0.252000
     46 H27         0.6260   -0.2240    4.8020 h1        1 FFG      0.181500
     47 H27A        2.1320    0.0010    5.7960 h1        1 FFG      0.181500
     48 H1          2.4370   -2.8120   -1.6780 ha        1 FFG      0.146000
     49 H2         -2.7190   -0.9300   -2.5220 ha        1 FFG      0.147000
     50 H3          3.3440    6.1240    6.2240 hc        1 FFG      0.181500
     51 H4          2.1240   -1.6280   -3.0810 ha        1 FFG      0.146000
     52 H5          1.2280    2.1080   -0.0470 hc        1 FFG      0.155250
     53 H6         -1.2200    1.4320    1.3140 hc        1 FFG      0.155250
     54 H7          5.5900    7.3180    6.1830 ha        1 FFG      0.166000
     55 H8         -2.1940   -0.6790   -0.2910 hc        1 FFG      0.105000
     56 H9          4.2680    5.7390    7.7200 hc        1 FFG      0.181500
     57 H10         2.0030    0.6810   -0.8600 hc        1 FFG      0.155250
     58 H25         4.3310   -1.1900    5.4020 ha        1 FFG      0.185000
     59 H25A        2.3920   -2.3470    3.9720 ha        1 FFG      0.068000
     60 H26A       -1.0150   -5.8440   -3.1830 hc        1 FFG      0.101500
     61 H28        -0.2680   -3.6650   -1.0670 hn        1 FFG      0.170000
     62 H28A       -0.3980   -3.7420   -4.2530 ha        1 FFG      0.145000
     63 H29        -2.3190   -5.3200    0.2480 h1        1 FFG      0.097500
     64 H29A       -0.9210   -5.9160   -0.7560 h1        1 FFG      0.097500
     65 H30        -3.3010   -4.2100   -1.8400 h1        1 FFG      0.123000
     66 HN36        8.6030    4.3880    4.0370 hn        1 FFG      0.291000
     67 HN37        9.8350    8.1970    4.6330 hn        1 FFG      0.256000
     68 HO42       -2.8690   -6.9980   -1.8310 ho        1 FFG      0.196000
     69 C31        -1.6610   -2.7320    0.0910 c3        1 FFG     -0.063000
     70 O40         3.5620    2.2820    3.1800 o         1 FFG     -0.374000
     71 H26        -2.5320   -5.3370   -4.0320 hc        1 FFG      0.101500
     72 H31        -1.3110   -2.4950    1.1390 h1        1 FFG      0.089000
     73 H31A       -2.7650   -2.9590    0.1440 h1        1 FFG      0.089000
@<TRIPOS>BOND
     1    1   19 1   
     2    1   20 1   
     3    1   25 1   
     4    2   13 1   
     5    2   23 1   
     6    2   34 1   
     7    2   45 1   
     8    3   22 1   
     9    3   25 1   
    10    3   55 1   
    11    3   69 1   
    12    4    7 1   
    13    4    8 1   
    14    4   58 1   
    15    5    9 1   
    16    5   13 1   
    17    5   21 1   
    18    6   12 1   
    19    6   24 1   
    20    6   37 1   
    21    7   10 1   
    22    7   34 1   
    23    8   31 1   
    24    8   32 1   
    25    9   33 1   
    26    9   35 1   
    27   10   37 1   
    28   10   70 1   
    29   11   35 1   
    30   11   36 1   
    31   11   39 1   
    32   12   20 1   
    33   14   26 1   
    34   14   37 1   
    35   14   46 1   
    36   14   47 1   
    37   15   18 1   
    38   15   48 1   
    39   15   51 1   
    40   16   22 1   
    41   16   28 1   
    42   17   21 1   
    43   17   23 1   
    44   17   50 1   
    45   17   56 1   
    46   18   25 1   
    47   19   24 1   
    48   19   52 1   
    49   19   57 1   
    50   20   44 1   
    51   20   53 1   
    52   21   54 1   
    53   22   49 1   
    54   26   59 1   
    55   27   28 1   
    56   27   30 1   
    57   27   60 1   
    58   27   71 1   
    59   28   62 1   
    60   29   30 1   
    61   29   38 1   
    62   29   63 1   
    63   29   64 1   
    64   30   40 1   
    65   30   65 1   
    66   31   41 1   
    67   31   42 1   
    68   31   43 1   
    69   32   34 1   
    70   33   36 1   
    71   35   66 1   
    72   36   67 1   
    73   38   61 1   
    74   38   69 1   
    75   40   68 1   
    76   69   72 1   
    77   69   73 1   
@<TRIPOS>SUBSTRUCTURE
     1 FFG         1 TEMP              0 ****  ****    0 ROOT
