@<TRIPOS>MOLECULE
FFG
   73    79     1     0     0
SMALL
bcc


@<TRIPOS>ATOM
      1 C13        -4.1660   -1.4930   -0.9740 cp        1 FFG     -0.038000
      2 C18         3.8400   -0.4280   -0.7160 ca        1 FFG     -0.006200
      3 C17        -6.6300   -1.6960   -0.5300 ca        1 FFG     -0.066300
      4 C16         1.6620    2.4870   -1.1410 cc        1 FFG     -0.151600
      5 C15         5.5370   -1.7860    0.3550 ca        1 FFG     -0.114900
      6 C19        -1.7630   -0.0270   -1.1440 ca        1 FFG      0.051600
      7 C20         1.8170    1.0890   -1.0020 cd        1 FFG     -0.166900
      8 C21         3.0000    3.0050   -1.1050 cc        1 FFG      0.212600
      9 C22         6.6320   -1.9150    1.3160 cc        1 FFG      0.393500
     10 C23         0.6720    0.1570   -0.9440 c         1 FFG      0.748100
     11 C24         8.6090   -2.5850    2.2210 c         1 FFG      0.733500
     12 C11        -2.7640    0.1160   -2.1290 ca        1 FFG     -0.142000
     13 C12         4.8940   -0.5510    0.2100 ca        1 FFG     -0.064000
     14 C27        -0.6760    2.0730   -1.7790 c3        1 FFG      0.099000
     15 C1         -6.5030   -4.4250   -1.1550 ca        1 FFG     -0.129000
     16 C2         -7.7230   -3.8460   -0.8050 ca        1 FFG     -0.128000
     17 C3          4.0860   -2.7580   -1.3140 ca        1 FFG     -0.124000
     18 C4         -5.3520   -3.6430   -1.1990 ca        1 FFG     -0.119000
     19 C5         -3.1690   -1.6470   -0.0040 ca        1 FFG     -0.098000
     20 C6         -3.9490   -0.6060   -2.0350 ca        1 FFG     -0.098000
     21 C7          5.1300   -2.8920   -0.4020 ca        1 FFG     -0.094000
     22 C8         -7.7830   -2.4910   -0.4920 ca        1 FFG     -0.131000
     23 C9          3.4390   -1.5370   -1.4850 ca        1 FFG     -0.073000
     24 C10        -1.9820   -0.9250   -0.0790 ca        1 FFG     -0.142000
     25 C14        -5.4040   -2.2750   -0.8940 cp        1 FFG     -0.020000
     26 C25         0.3380    3.1000   -1.2580 c3        1 FFG     -0.029100
     27 C26        -7.7840    0.5390    3.0550 c3        1 FFG     -0.137400
     28 C28        -7.0690   -0.5320    2.2160 c3        1 FFG      0.156800
     29 C29        -6.2840    1.5460    1.3910 c3        1 FFG      0.156800
     30 C30        -7.2980    1.8870    2.5120 c3        1 FFG      0.119100
     31 C32         3.4480    4.4470   -1.2170 c3        1 FFG      0.635600
     32 N33         3.8950    1.9780   -0.9510 nd        1 FFG     -0.432800
     33 N34         6.7420   -1.2690    2.4960 nd        1 FFG     -0.484300
     34 N35         3.1970    0.8420   -0.8890 na        1 FFG      0.227300
     35 N36         7.7340   -2.7940    1.1130 n         1 FFG     -0.478400
     36 N37         7.8630   -1.7160    3.1060 n         1 FFG     -0.268900
     37 N38        -0.5690    0.7400   -1.2140 n         1 FFG     -0.377000
     38 N39        -6.2990    0.1020    1.1440 n3        1 FFG     -0.706600
     39 O41         9.7000   -3.1310    2.4330 o         1 FFG     -0.599500
     40 O42        -6.5990    2.6510    3.4790 oh        1 FFG     -0.591800
     41 F43         4.0740    4.9280   -0.0950 f         1 FFG     -0.228633
     42 F44         4.3350    4.6820   -2.2370 f         1 FFG     -0.228633
     43 F45         2.4240    5.3330   -1.4450 f         1 FFG     -0.228633
     44 H11        -2.6200    0.7940   -2.9840 ha        1 FFG      0.144500
     45 H12         5.2170    0.3100    0.8200 ha        1 FFG      0.174000
     46 H27        -1.7110    2.4640   -1.5610 h1        1 FFG      0.057200
     47 H27A       -0.5590    1.9980   -2.9010 h1        1 FFG      0.057200
     48 H1         -6.4500   -5.4960   -1.3980 ha        1 FFG      0.134000
     49 H2         -8.6360   -4.4590   -0.7730 ha        1 FFG      0.132000
     50 H3          3.7580   -3.6280   -1.9040 ha        1 FFG      0.150000
     51 H4         -4.3880   -4.0980   -1.4760 ha        1 FFG      0.139000
     52 H5         -3.3280   -2.3410    0.8370 ha        1 FFG      0.140500
     53 H6         -4.7200   -0.4830   -2.8110 ha        1 FFG      0.140500
     54 H7          5.6170   -3.8700   -0.2700 ha        1 FFG      0.149000
     55 H8         -8.7470   -2.0380   -0.2150 ha        1 FFG      0.130000
     56 H9          2.5990   -1.4570   -2.1940 ha        1 FFG      0.162000
     57 H10        -1.2070   -1.0750    0.6900 ha        1 FFG      0.144500
     58 H25         0.0160    3.4870   -0.2530 hc        1 FFG      0.081200
     59 H25A        0.3580    3.9730   -1.9640 hc        1 FFG      0.081200
     60 H26A       -7.5220    0.4280    4.1350 hc        1 FFG      0.053200
     61 H28        -6.3310   -1.0880    2.8570 h1        1 FFG      0.053200
     62 H28A       -7.8080   -1.2780    1.8160 h1        1 FFG      0.053200
     63 H29        -6.5190    2.1440    0.4710 h1        1 FFG      0.062700
     64 H29A       -5.2470    1.8150    1.7360 h1        1 FFG      0.062700
     65 H30        -8.1530    2.4950    2.1110 h1        1 FFG      0.036700
     66 HN36        8.0300   -3.1150    0.2280 hn        1 FFG      0.352500
     67 HN37        8.3400   -1.0670    3.6990 hn        1 FFG      0.350500
     68 HO42       -7.2020    2.7800    4.2210 ho        1 FFG      0.401000
     69 C31        -6.7420   -0.2340   -0.2040 c3        1 FFG      0.205100
     70 O40         0.7970   -1.0440   -0.6440 o         1 FFG     -0.616500
     71 H26        -8.8920    0.4480    2.9530 hc        1 FFG      0.053200
     72 H31        -6.0790    0.3390   -0.9180 h1        1 FFG      0.039200
     73 H31A       -7.8080    0.0950   -0.3930 h1        1 FFG      0.039200
@<TRIPOS>BOND
     1    1   19 ar  
     2    1   20 ar  
     3    1   25 1   
     4    2   13 ar  
     5    2   23 ar  
     6    2   34 1   
     7    3   22 ar  
     8    3   25 ar  
     9    3   69 1   
    10    4    7 2   
    11    4    8 1   
    12    4   26 1   
    13    5    9 1   
    14    5   13 ar  
    15    5   21 ar  
    16    6   12 ar  
    17    6   24 ar  
    18    6   37 1   
    19    7   10 1   
    20    7   34 1   
    21    8   31 1   
    22    8   32 2   
    23    9   33 2   
    24    9   35 1   
    25   10   37 1   
    26   10   70 2   
    27   11   35 1   
    28   11   36 1   
    29   11   39 2   
    30   12   20 ar  
    31   12   44 1   
    32   13   45 1   
    33   14   26 1   
    34   14   37 1   
    35   14   46 1   
    36   14   47 1   
    37   15   16 ar  
    38   15   18 ar  
    39   15   48 1   
    40   16   22 ar  
    41   16   49 1   
    42   17   21 ar  
    43   17   23 ar  
    44   17   50 1   
    45   18   25 ar  
    46   18   51 1   
    47   19   24 ar  
    48   19   52 1   
    49   20   53 1   
    50   21   54 1   
    51   22   55 1   
    52   23   56 1   
    53   24   57 1   
    54   26   58 1   
    55   26   59 1   
    56   27   28 1   
    57   27   30 1   
    58   27   60 1   
    59   27   71 1   
    60   28   38 1   
    61   28   61 1   
    62   28   62 1   
    63   29   30 1   
    64   29   38 1   
    65   29   63 1   
    66   29   64 1   
    67   30   40 1   
    68   30   65 1   
    69   31   41 1   
    70   31   42 1   
    71   31   43 1   
    72   32   34 1   
    73   33   36 1   
    74   35   66 1   
    75   36   67 1   
    76   38   69 1   
    77   40   68 1   
    78   69   72 1   
    79   69   73 1   
@<TRIPOS>SUBSTRUCTURE
     1 FFG         1 TEMP              0 ****  ****    0 ROOT
