@<TRIPOS>MOLECULE
FFG
   73    76     1     0     0
SMALL
bcc


@<TRIPOS>ATOM
      1 C13         1.1080   -1.2500   -0.7040 c3        1 FFG     -0.031000
      2 C18         4.9230    3.0840    5.1840 c3        1 FFG     -0.098000
      3 C17        -0.6220   -0.5490   -2.4010 c2        1 FFG     -0.250000
      4 C16         3.9870   -0.2580    6.4100 c2        1 FFG     -0.129000
      5 C15         6.4910    4.9940    5.0740 c2        1 FFG     -0.143000
      6 C19         1.9860   -0.4370    2.4610 cu        1 FFG      0.138000
      7 C20         4.0030    0.7010    5.3800 c2        1 FFG     -0.132000
      8 C21         4.6550    0.3820    7.5100 c2        1 FFG     -0.228000
      9 C22         7.8840    5.4200    4.9440 c2        1 FFG      0.031000
     10 C23         3.5140    0.6090    3.9880 c2        1 FFG      0.392000
     11 C24        10.1450    5.2650    4.8500 c2        1 FFG      0.321000
     12 C11         1.0260   -0.8590    1.6290 cu        1 FFG     -0.215000
     13 C12         6.2960    3.6090    5.3870 c1        1 FFG      0.003000
     14 C27         1.4250   -0.5310    4.8070 c3        1 FFG     -0.112000
     15 C1         -4.4070    0.2540   -1.0880 c1        1 FFG     -0.248000
     16 C2         -4.3200   -0.3240   -2.1350 c1        1 FFG     -0.099000
     17 C3          4.0560    5.4440    5.1410 c3        1 FFG     -0.248000
     18 C4          1.4920    0.6540   -2.1270 c1        1 FFG      0.034000
     19 C5          2.4730   -0.7130   -0.2260 c2        1 FFG     -0.216000
     20 C6          0.1560   -1.3340    0.5600 c3        1 FFG     -0.056000
     21 C7          5.4630    5.8810    4.9810 c2        1 FFG     -0.027000
     22 C8         -4.2850   -0.9730   -3.3710 c2        1 FFG     -0.185000
     23 C9          3.7910    4.0280    5.3340 c1        1 FFG     -0.008000
     24 C10         2.3750   -0.5220    1.0850 cu        1 FFG     -0.092000
     25 C14         0.5490   -0.3540   -1.7670 c2        1 FFG     -0.155000
     26 C25         1.3980   -1.8770    5.3200 c1        1 FFG     -0.056000
     27 C26         1.1220   -5.0880   -1.0920 c3        1 FFG     -0.219000
     28 C28        -3.3170   -1.7790   -3.8690 c2        1 FFG      0.000000
     29 C29        -0.7750   -4.7830    0.5180 c2        1 FFG     -0.290000
     30 C30         0.4860   -5.1530    0.2470 c2        1 FFG      0.019000
     31 C32         4.9090   -0.2150    8.8770 c3        1 FFG      0.516000
     32 N33         5.0490    1.6470    7.1620 n2        1 FFG      0.033000
     33 N34         8.3360    6.6900    4.8480 n2        1 FFG     -0.095000
     34 N35         4.6860    1.8260    5.9000 na        1 FFG     -0.021000
     35 N36         8.9530    4.4860    4.8910 n         1 FFG     -0.294000
     36 N37         9.6780    6.6320    4.6910 n         1 FFG     -0.244000
     37 N38         2.3640   -0.1560    3.7470 n         1 FFG     -0.261000
     38 N39        -2.1650   -2.2820   -3.2920 n3        1 FFG     -0.282000
     39 O41        11.3150    4.8640    4.8160 o         1 FFG     -0.319000
     40 O42         1.2590   -5.6200    1.2960 oh        1 FFG     -0.266000
     41 F43         6.2340   -0.2880    9.2240 f         1 FFG     -0.155333
     42 F44         4.3170    0.4710    9.9070 f         1 FFG     -0.155333
     43 F45         4.4450   -1.5010    9.0040 f         1 FFG     -0.155333
     44 H11        -0.1740   -2.3940    0.7210 hc        1 FFG      0.121500
     45 H12         4.9150    2.8190    4.0490 h1        1 FFG      0.246000
     46 H27         0.3630   -0.3390    4.4320 h1        1 FFG      0.175500
     47 H27A        1.5730    0.1670    5.6920 h1        1 FFG      0.175500
     48 H1          1.3840    1.6630   -1.7090 ha        1 FFG      0.076000
     49 H2         -5.1760   -0.7980   -4.0030 ha        1 FFG      0.144000
     50 H3          3.4420    5.7810    4.2490 hc        1 FFG      0.184500
     51 H4         -4.4850    0.7640   -0.1640 ha        1 FFG      0.219000
     52 H5          3.3020   -0.5780   -0.9180 ha        1 FFG      0.181000
     53 H6         -0.7480   -0.6900    0.4230 hc        1 FFG      0.121500
     54 H7          5.6290    6.9590    4.8110 ha        1 FFG      0.169000
     55 H8         -0.9580    0.1650   -3.1700 ha        1 FFG      0.133000
     56 H9          3.5960    5.9810    6.0300 hc        1 FFG      0.184500
     57 H10         1.2490   -2.2840   -1.1200 hc        1 FFG      0.114000
     58 H25         3.5850   -1.2670    6.3990 ha        1 FFG      0.184000
     59 H25A        2.0430   -2.6610    4.9070 ha        1 FFG      0.082000
     60 H26A        2.0840   -4.5190   -1.0400 hc        1 FFG      0.095333
     61 H28        -3.4890   -2.2010   -4.8860 h4        1 FFG      0.131000
     62 H28A        0.4470   -4.5810   -1.8240 hc        1 FFG      0.095333
     63 H29        -1.4380   -4.4020   -0.2660 ha        1 FFG      0.130500
     64 H29A       -1.4930   -2.5860   -3.9690 hn        1 FFG      0.194000
     65 H30        -1.1980   -4.8600    1.5260 ha        1 FFG      0.130500
     66 HN36        8.8770    3.5620    5.2410 hn        1 FFG      0.290000
     67 HN37       10.2020    7.3860    5.0880 hn        1 FFG      0.258000
     68 HO42        2.1110   -5.9010    0.9350 ho        1 FFG      0.213000
     69 C31        -1.5430   -1.6940   -2.1320 c3        1 FFG     -0.019000
     70 O40         4.1140    1.1810    3.0580 o         1 FFG     -0.337000
     71 H26         1.3400   -6.1200   -1.4650 hc        1 FFG      0.095333
     72 H31        -2.3450   -1.3460   -1.4160 h1        1 FFG      0.104000
     73 H31A       -0.9760   -2.5300   -1.6200 h1        1 FFG      0.104000
@<TRIPOS>BOND
     1    1   19 1   
     2    1   20 1   
     3    1   25 1   
     4    1   57 1   
     5    2   13 1   
     6    2   23 1   
     7    2   34 1   
     8    2   45 1   
     9    3   25 1   
    10    3   55 1   
    11    3   69 1   
    12    4    7 1   
    13    4    8 1   
    14    4   58 1   
    15    5    9 1   
    16    5   13 1   
    17    5   21 1   
    18    6   12 1   
    19    6   24 1   
    20    6   37 1   
    21    7   10 1   
    22    7   34 1   
    23    8   31 1   
    24    8   32 1   
    25    9   33 1   
    26    9   35 1   
    27   10   37 1   
    28   10   70 1   
    29   11   35 1   
    30   11   36 1   
    31   11   39 1   
    32   12   20 1   
    33   12   24 1   
    34   14   26 1   
    35   14   37 1   
    36   14   46 1   
    37   14   47 1   
    38   15   16 1   
    39   15   51 1   
    40   16   22 1   
    41   17   21 1   
    42   17   23 1   
    43   17   50 1   
    44   17   56 1   
    45   18   25 1   
    46   18   48 1   
    47   19   24 1   
    48   19   52 1   
    49   20   44 1   
    50   20   53 1   
    51   21   54 1   
    52   22   28 1   
    53   22   49 1   
    54   26   59 1   
    55   27   30 1   
    56   27   60 1   
    57   27   62 1   
    58   27   71 1   
    59   28   38 1   
    60   28   61 1   
    61   29   30 1   
    62   29   63 1   
    63   29   65 1   
    64   30   40 1   
    65   31   41 1   
    66   31   42 1   
    67   31   43 1   
    68   32   34 1   
    69   33   36 1   
    70   35   66 1   
    71   36   67 1   
    72   38   64 1   
    73   38   69 1   
    74   40   68 1   
    75   69   72 1   
    76   69   73 1   
@<TRIPOS>SUBSTRUCTURE
     1 FFG         1 TEMP              0 ****  ****    0 ROOT
