@<TRIPOS>MOLECULE
FFM
   26    25     1     0     0
SMALL
bcc


@<TRIPOS>ATOM
      1 C           4.7540   -0.3170    0.1960 c         1 FFM      0.913600
      2 N           3.5460    0.8630   -1.6440 n3        1 FFM     -0.908800
      3 O           5.0880   -1.2930   -0.5400 o         1 FFM     -0.869800
      4 C1         -0.6360   -0.2050    0.1910 c3        1 FFM      0.171400
      5 P1         -3.8160   -0.1190   -0.1350 p5        1 FFM      1.181700
      6 C2         -1.9110    0.5900    0.0730 c3        1 FFM     -0.028100
      7 O2         -3.6720   -1.4680   -0.7800 o         1 FFM     -0.915167
      8 C3         -0.5820   -1.3310   -0.8030 c3        1 FFM     -0.122100
      9 O3         -4.2630   -0.1510    1.3020 o         1 FFM     -0.915167
     10 O4         -4.4310    0.9410   -0.9990 o         1 FFM     -0.915167
     11 CA          3.5400    0.5720   -0.2200 c3        1 FFM      0.059500
     12 CB          2.2580   -0.0900    0.2950 c3        1 FFM      0.005700
     13 SG          0.8260    0.9070   -0.0760 ss        1 FFM     -0.545200
     14 OXT         5.3730   -0.0170    1.2590 o         1 FFM     -0.869800
     15 H           3.8540    0.0420   -2.1370 hn        1 FFM      0.336800
     16 H2          2.6050    1.0670   -1.9370 hn        1 FFM      0.336800
     17 H1         -0.5170   -0.5890    1.2330 h1        1 FFM      0.028700
     18 H20        -1.8610    1.2730   -0.8070 h1        1 FFM      0.039700
     19 H3          0.1540   -2.1120   -0.4950 hc        1 FFM      0.041033
     20 H3A        -1.6170   -1.7800   -0.8750 hc        1 FFM      0.041033
     21 H3B        -0.2930   -0.9580   -1.8150 hc        1 FFM      0.041033
     22 HA          3.6510    1.5630    0.3100 h1        1 FFM      0.047700
     23 HB2         2.1380   -1.1020   -0.1590 h1        1 FFM      0.044200
     24 HB3         2.3450   -0.2160    1.4000 h1        1 FFM      0.044200
     25 O1         -2.1110    1.4050    1.2100 oh        1 FFM     -0.651800
     26 HO1        -2.6850    0.8980    1.8070 ho        1 FFM      0.408000
@<TRIPOS>BOND
     1    1    3 1   
     2    1   11 1   
     3    1   14 1   
     4    2   11 1   
     5    2   15 1   
     6    2   16 1   
     7    4    6 1   
     8    4    8 1   
     9    4   13 1   
    10    4   17 1   
    11    5    6 1   
    12    5    7 1   
    13    5    9 1   
    14    5   10 1   
    15    6   18 1   
    16    6   25 1   
    17    8   19 1   
    18    8   20 1   
    19    8   21 1   
    20   11   12 1   
    21   11   22 1   
    22   12   13 1   
    23   12   23 1   
    24   12   24 1   
    25   25   26 1   
@<TRIPOS>SUBSTRUCTURE
     1 FFM         1 TEMP              0 ****  ****    0 ROOT
