@<TRIPOS>MOLECULE
FFO
   55    57     1     0     0
SMALL
bcc


@<TRIPOS>ATOM
      1 N1          2.2790   -2.3450    1.2960 nc        1 FFO     -0.770300
      2 C2          1.5510   -2.6280    0.1660 cd        1 FFO      0.730800
      3 NA2         0.7230   -3.7410    0.1660 nh        1 FFO     -0.869800
      4 N3          1.6930   -1.9060   -1.0280 n         1 FFO     -0.471400
      5 C4          2.6170   -0.8560   -1.1330 c         1 FFO      0.730700
      6 O4          2.7740   -0.3060   -2.2470 o         1 FFO     -0.689500
      7 C4A         3.3670   -0.5170    0.0770 cd        1 FFO     -0.299600
      8 N5          4.1760    0.6450    0.1120 n         1 FFO     -0.338000
      9 C6          4.3080    1.2640    1.4150 c3        1 FFO      0.050700
     10 C7          4.6320    0.2100    2.5100 c3        1 FFO      0.183800
     11 N8          3.9420   -1.0510    2.3980 nh        1 FFO     -0.730000
     12 C8A         3.1770   -1.3020    1.2390 cc        1 FFO      0.412600
     13 C9          3.0560    2.0630    1.8760 c3        1 FFO      0.170800
     14 N10         2.4560    2.9470    0.9010 nh        1 FFO     -0.705600
     15 C11        -1.4410    1.8370   -0.3520 ca        1 FFO     -0.136600
     16 C12        -0.4300    2.0480   -1.2980 ca        1 FFO     -0.077500
     17 C13         0.8500    2.4140   -0.9000 ca        1 FFO     -0.175500
     18 C14         1.1510    2.5810    0.4690 ca        1 FFO      0.101600
     19 C15         0.1110    2.4280    1.4100 ca        1 FFO     -0.175500
     20 C16        -1.1680    2.0610    0.9990 ca        1 FFO     -0.077500
     21 O          -3.1710    1.6670   -1.9840 o         1 FFO     -0.669100
     22 N          -3.4290    0.4550   -0.0370 n         1 FFO     -0.503900
     23 CA         -4.5930   -0.3140   -0.4210 c3        1 FFO     -0.029300
     24 CB         -4.2660   -1.8030   -0.6320 c3        1 FFO     -0.077400
     25 CG         -3.2890   -2.0690   -1.7580 c3        1 FFO     -0.162400
     26 CD         -2.0430   -2.8220   -1.3300 c         1 FFO      0.905600
     27 OE1        -2.0470   -3.6430   -0.3590 o         1 FFO     -0.892300
     28 OE2        -0.9520   -2.6500   -1.9760 o         1 FFO     -0.892300
     29 CT         -5.7240   -0.2270    0.6620 c         1 FFO      0.912600
     30 O1         -5.4090   -0.0420    1.8720 o         1 FFO     -0.849800
     31 O2         -6.9110   -0.3540    0.2500 o         1 FFO     -0.849800
     32 C5A         5.0190    0.9700   -0.9310 c         1 FFO      0.660900
     33 O5B         5.8600    1.8890   -0.8450 o         1 FFO     -0.667100
     34 HN21        0.4100   -4.0420    1.0640 hn        1 FFO      0.465800
     35 HN22       -0.0140   -3.7690   -0.5440 hn        1 FFO      0.465800
     36 H6          5.1790    1.9840    1.3660 h1        1 FFO      0.083700
     37 H7          5.7360   -0.0180    2.4530 h1        1 FFO      0.036700
     38 H91         2.2920    1.3390    2.2760 h1        1 FFO      0.045700
     39 H92         3.3990    2.7130    2.7330 h1        1 FFO      0.045700
     40 HN0         3.0640    3.1000    0.1170 hn        1 FFO      0.382800
     41 H12        -0.6600    1.8900   -2.3650 ha        1 FFO      0.152000
     42 H13         1.6360    2.5310   -1.6610 ha        1 FFO      0.127000
     43 H15         0.3070    2.5840    2.4810 ha        1 FFO      0.127000
     44 H16        -1.9600    1.9430    1.7570 ha        1 FFO      0.152000
     45 HN         -3.1000    0.2770    0.8850 hn        1 FFO      0.320500
     46 HA         -4.9970    0.1150   -1.3830 h1        1 FFO      0.067700
     47 HB1        -3.8720   -2.2410    0.3240 hc        1 FFO      0.053700
     48 HB2        -5.2450   -2.3080   -0.8470 hc        1 FFO      0.053700
     49 HG1        -3.7850   -2.6900   -2.5500 hc        1 FFO      0.036700
     50 HG2        -2.9700   -1.1110   -2.2460 hc        1 FFO      0.036700
     51 H5A         4.8440    0.3820   -1.8630 h5        1 FFO      0.078200
     52 H22         1.0100   -2.0330   -1.7680 hn        1 FFO      0.403500
     53 H23         4.4310    0.6750    3.5170 h1        1 FFO      0.036700
     54 H24         3.5220   -1.3650    3.2480 hn        1 FFO      0.410800
     55 C          -2.7590    1.3170   -0.8490 c         1 FFO      0.665700
@<TRIPOS>BOND
     1    1    2 2   
     2    1   12 1   
     3    2    3 1   
     4    2    4 1   
     5    3   34 1   
     6    3   35 1   
     7    4    5 1   
     8    4   52 1   
     9    5    6 2   
    10    5    7 1   
    11    7    8 1   
    12    7   12 2   
    13    8    9 1   
    14    8   32 1   
    15    9   10 1   
    16    9   13 1   
    17    9   36 1   
    18   10   11 1   
    19   10   37 1   
    20   10   53 1   
    21   11   12 1   
    22   11   54 1   
    23   13   14 1   
    24   13   38 1   
    25   13   39 1   
    26   14   18 1   
    27   14   40 1   
    28   15   16 ar  
    29   15   20 ar  
    30   15   55 1   
    31   16   17 ar  
    32   16   41 1   
    33   17   18 ar  
    34   17   42 1   
    35   18   19 ar  
    36   19   20 ar  
    37   19   43 1   
    38   20   44 1   
    39   21   55 2   
    40   22   23 1   
    41   22   45 1   
    42   22   55 1   
    43   23   24 1   
    44   23   29 1   
    45   23   46 1   
    46   24   25 1   
    47   24   47 1   
    48   24   48 1   
    49   25   26 1   
    50   25   49 1   
    51   25   50 1   
    52   26   27 1   
    53   26   28 1   
    54   29   30 1   
    55   29   31 1   
    56   32   33 2   
    57   32   51 1   
@<TRIPOS>SUBSTRUCTURE
     1 FFO         1 TEMP              0 ****  ****    0 ROOT
