@<TRIPOS>MOLECULE
FFO
   55    52     1     0     0
SMALL
bcc


@<TRIPOS>ATOM
      1 N1          0.2490   -5.2480   -1.3500 n1        1 FFO     -0.273000
      2 C2          1.4810   -6.0760   -1.1460 c1        1 FFO      0.228000
      3 NA2         2.2270   -6.5140   -2.2620 n2        1 FFO     -0.319000
      4 N3          1.9270   -6.4640    0.2720 n         1 FFO     -0.340000
      5 C4          1.2450   -5.9040    1.4330 c2        1 FFO      0.379000
      6 O4          1.6100   -6.1970    2.5520 o         1 FFO     -0.364000
      7 C4A         0.0880   -5.0360    1.2470 c2        1 FFO     -0.245000
      8 N5         -0.8430   -4.7460    2.2390 n         1 FFO     -0.233000
      9 C6         -1.8010   -3.5550    1.9610 c3        1 FFO     -0.027000
     10 C7         -2.3530   -3.5950    0.8820 c3        1 FFO     -0.059000
     11 N8         -1.4180   -3.6760   -0.3010 n3        1 FFO     -0.286000
     12 C8A        -0.4070   -4.6800   -0.2460 c1        1 FFO      0.205000
     13 C9         -0.9260   -2.1580    2.0420 c3        1 FFO     -0.069000
     14 N10        -1.8080   -1.0380    1.9500 n3        1 FFO     -0.262000
     15 C11        -0.2810    2.7320    0.8710 c1        1 FFO     -0.125000
     16 C12        -1.4910    2.2970    0.3470 c1        1 FFO     -0.139500
     17 C13        -1.9970    1.0540    0.7080 c1        1 FFO     -0.139500
     18 C14        -1.2950    0.2490    1.5930 c1        1 FFO     -0.011000
     19 C15        -0.0860    0.6840    2.1170 c1        1 FFO     -0.172000
     20 C16         0.4210    1.9260    1.7560 c1        1 FFO     -0.081000
     21 C           0.3370    4.0270    0.3750 c2        1 FFO      0.326000
     22 O           1.3960    4.4100    0.8330 o         1 FFO     -0.390000
     23 N          -0.2760    4.7440   -0.6840 n         1 FFO     -0.273000
     24 CA          0.3980    5.8430   -1.2820 c3        1 FFO     -0.081000
     25 CB          0.9020    5.4410   -2.6510 c3        1 FFO     -0.129000
     26 CG          2.2080    6.1550   -2.9390 c3        1 FFO     -0.211000
     27 CD          2.2880    6.4860   -4.4150 c2        1 FFO      0.324000
     28 OE1         3.0830    5.8530   -5.1610 o         1 FFO     -0.608000
     29 OE2         1.5990    7.4300   -4.8860 o         1 FFO     -0.608000
     30 CT         -0.5570    7.0080   -1.4180 c2        1 FFO      0.318000
     31 O1         -0.5140    7.9570   -0.5880 o         1 FFO     -0.591500
     32 O2         -1.3430    7.0660   -2.4020 o         1 FFO     -0.591500
     33 C5A        -0.6190   -5.1840    3.5800 c2        1 FFO      0.261000
     34 O5B         0.1320   -6.1170    3.7980 o         1 FFO     -0.340000
     35 HN21        2.9740   -7.0260   -2.1400 hn        1 FFO      0.204000
     36 HN22        1.9420   -6.3180   -3.1070 hn        1 FFO      0.204000
     37 H6         -2.4850   -3.5360    2.6610 h1        1 FFO      0.096000
     38 H7         -2.9420   -4.3780    0.8650 h1        1 FFO      0.109500
     39 H91        -0.4430   -2.1240    2.8930 h1        1 FFO      0.106000
     40 H92        -0.2870   -2.1300    1.3030 h1        1 FFO      0.106000
     41 HN0        -2.6960   -1.1400    2.1350 hn        1 FFO      0.163000
     42 H12        -2.0080    2.8830   -0.2380 ha        1 FFO      0.172500
     43 H13        -2.8490    0.7480    0.3380 ha        1 FFO      0.172500
     44 H15         0.4080    0.1170    2.7400 ha        1 FFO      0.122000
     45 H16         1.2720    2.2310    2.1260 ha        1 FFO      0.142000
     46 HN         -1.1140    4.5200   -0.9590 hn        1 FFO      0.199000
     47 HA          1.1540    6.1050   -0.7210 h1        1 FFO      0.108000
     48 HB1         0.2390    5.6870   -3.3270 hc        1 FFO      0.092000
     49 HB2         1.0470    4.4740   -2.6740 hc        1 FFO      0.092000
     50 HG1         2.9570    5.5750   -2.6940 hc        1 FFO      0.060000
     51 HG2         2.2510    6.9820   -2.4160 hc        1 FFO      0.060000
     52 H5A        -1.1040   -4.7620    4.3210 h5        1 FFO      0.110000
     53 H22         2.6780   -6.9700    0.3890 hn        1 FFO      0.242000
     54 H23        -2.9050   -2.7880    0.7860 h1        1 FFO      0.109500
     55 H24        -1.6680   -3.3230   -1.1060 hn        1 FFO      0.260000
@<TRIPOS>BOND
     1    1    2 1   
     2    2    4 1   
     3    3   35 1   
     4    3   36 1   
     5    4    5 1   
     6    4   53 1   
     7    5    6 1   
     8    5    7 1   
     9    7    8 1   
    10    7   12 1   
    11    8    9 1   
    12    8   33 1   
    13    9   10 1   
    14    9   13 1   
    15    9   37 1   
    16   10   11 1   
    17   10   38 1   
    18   10   54 1   
    19   11   12 1   
    20   11   55 1   
    21   13   14 1   
    22   13   39 1   
    23   13   40 1   
    24   14   18 1   
    25   14   41 1   
    26   15   20 1   
    27   15   21 1   
    28   16   17 1   
    29   16   42 1   
    30   17   43 1   
    31   18   19 1   
    32   19   44 1   
    33   20   45 1   
    34   21   22 1   
    35   21   23 1   
    36   23   24 1   
    37   23   46 1   
    38   24   25 1   
    39   24   30 1   
    40   24   47 1   
    41   25   26 1   
    42   25   48 1   
    43   25   49 1   
    44   26   27 1   
    45   26   50 1   
    46   26   51 1   
    47   27   28 1   
    48   27   29 1   
    49   30   31 1   
    50   30   32 1   
    51   33   34 1   
    52   33   52 1   
@<TRIPOS>SUBSTRUCTURE
     1 FFO         1 TEMP              0 ****  ****    0 ROOT
