@<TRIPOS>MOLECULE
FFP
   13    13     1     0     0
SMALL
bcc


@<TRIPOS>ATOM
      1 F1          3.9760   -2.1880   -0.0400 f         1 FFP     -0.129900
      2 C6          2.9290   -1.6320    0.6090 ca        1 FFP      0.092400
      3 C5          1.8810   -1.0360   -0.1120 ca        1 FFP     -0.142000
      4 C4          0.8040   -0.4650    0.5620 ca        1 FFP     -0.118000
      5 C3          0.7430   -0.4710    1.9520 ca        1 FFP     -0.142000
      6 C2          1.7810   -1.0620    2.6880 ca        1 FFP      0.092400
      7 F2          1.7450   -1.0810    4.0450 f         1 FFP     -0.129900
      8 C1          2.8820   -1.6470    2.0240 ca        1 FFP      0.060100
      9 O           3.9280   -2.2400    2.6840 oh        1 FFP     -0.474100
     10 H5          1.9250   -1.0290   -1.2110 ha        1 FFP      0.155500
     11 H4         -0.0100   -0.0010   -0.0150 ha        1 FFP      0.146000
     12 H3         -0.1070   -0.0190    2.4840 ha        1 FFP      0.155500
     13 HO          3.7550   -2.1730    3.6370 ho        1 FFP      0.433000
@<TRIPOS>BOND
     1    1    2 1   
     2    2    3 ar  
     3    2    8 ar  
     4    3    4 ar  
     5    3   10 1   
     6    4    5 ar  
     7    4   11 1   
     8    5    6 ar  
     9    5   12 1   
    10    6    7 1   
    11    6    8 ar  
    12    8    9 1   
    13    9   13 1   
@<TRIPOS>SUBSTRUCTURE
     1 FFP         1 TEMP              0 ****  ****    0 ROOT
