@<TRIPOS>MOLECULE
FFP
   13    13     1     0     0
SMALL
bcc


@<TRIPOS>ATOM
      1 F1         -0.0650   -0.0420    0.1320 f         1 FFP     -0.129900
      2 C6          1.2860   -0.0460    0.0850 ca        1 FFP      0.092400
      3 C5          2.0380    0.0510    1.2680 ca        1 FFP     -0.142000
      4 C4          3.4290    0.0470    1.2150 ca        1 FFP     -0.118000
      5 C3          4.1010   -0.0520   -0.0000 ca        1 FFP     -0.142000
      6 C2          3.3650   -0.1490   -1.1920 ca        1 FFP      0.092400
      7 F2          3.9960   -0.2470   -2.3890 f         1 FFP     -0.129900
      8 C1          1.9530   -0.1470   -1.1590 ca        1 FFP      0.060100
      9 O           1.1760   -0.2400   -2.2860 oh        1 FFP     -0.474100
     10 H5          1.5120    0.1300    2.2310 ha        1 FFP      0.155500
     11 H4          4.0070    0.1240    2.1480 ha        1 FFP      0.146000
     12 H3          5.1990   -0.0550   -0.0420 ha        1 FFP      0.155500
     13 HO          1.7700   -0.3020   -3.0520 ho        1 FFP      0.433000
@<TRIPOS>BOND
     1    1    2 1   
     2    2    3 ar  
     3    2    8 ar  
     4    3    4 ar  
     5    3   10 1   
     6    4    5 ar  
     7    4   11 1   
     8    5    6 ar  
     9    5   12 1   
    10    6    7 1   
    11    6    8 ar  
    12    8    9 1   
    13    9   13 1   
@<TRIPOS>SUBSTRUCTURE
     1 FFP         1 TEMP              0 ****  ****    0 ROOT
