@<TRIPOS>MOLECULE
FFP
   13    11     1     0     0
SMALL
bcc


@<TRIPOS>ATOM
      1 F1         -2.5760   -0.0630    0.2590 f         1 FFP     -0.084000
      2 C6         -1.2370   -0.0630    0.2590 c2        1 FFP      0.089000
      3 C5         -0.5440   -0.0630    1.4590 c2        1 FFP     -0.147000
      4 C4          0.8420   -0.0630    1.4590 c1        1 FFP     -0.118000
      5 C3          1.5350   -0.0630    0.2590 c1        1 FFP     -0.137000
      6 C2          0.8420   -0.0630   -0.9410 c1        1 FFP      0.026000
      7 F2          1.5120   -0.0740   -2.1010 f         1 FFP     -0.106000
      8 C1         -0.5440   -0.0630   -0.9410 c2        1 FFP      0.015000
      9 O          -1.2470   -0.0680   -2.1600 oh        1 FFP     -0.228000
     10 H5         -1.0320   -0.0630    2.3050 ha        1 FFP      0.156000
     11 H4          1.3300   -0.0630    2.3050 ha        1 FFP      0.146000
     12 H3          2.5120   -0.0630    0.2590 ha        1 FFP      0.155000
     13 HO         -1.3950    0.7680   -2.4200 ho        1 FFP      0.232000
@<TRIPOS>BOND
     1    1    2 1   
     2    2    3 1   
     3    2    8 1   
     4    3    4 1   
     5    3   10 1   
     6    4   11 1   
     7    5    6 1   
     8    5   12 1   
     9    6    8 1   
    10    8    9 1   
    11    9   13 1   
@<TRIPOS>SUBSTRUCTURE
     1 FFP         1 TEMP              0 ****  ****    0 ROOT
