@<TRIPOS>MOLECULE
FFQ
   15    13     1     0     0
SMALL
bcc


@<TRIPOS>ATOM
      1 C1         -0.9240   -0.1240   -0.0790 c3        1 FFQ     -0.121400
      2 O1          1.0600   -1.3040   -0.6770 oh        1 FFQ     -0.550800
      3 P1          1.1720   -0.0710    1.6560 p4        1 FFQ      1.582000
      4 C2          0.5880   -0.1300   -0.0610 c3        1 FFQ     -0.030100
      5 O2          0.7040    1.2090    2.3040 o         1 FFQ     -0.953000
      6 C3         -1.4110    0.6200   -1.3030 c3        1 FFQ     -0.070100
      7 O3          0.6190   -1.2520    2.4170 o         1 FFQ     -1.001800
      8 O4          2.6810   -0.1230    1.6760 os        1 FFQ     -1.262000
      9 H          -1.2580    0.3190    0.7270 hc        1 FFQ      0.079200
     10 H2          1.6490   -1.0910   -1.3080 ho        1 FFQ      0.295000
     11 H1          0.9220    0.6500   -0.5460 h1        1 FFQ     -0.002300
     12 H20        -1.1590    0.1230   -2.1090 hc        1 FFQ     -0.014967
     13 HO2        -1.0030    1.5110   -1.3270 hc        1 FFQ     -0.014967
     14 H3         -2.3860    0.7080   -1.2650 hc        1 FFQ     -0.014967
     15 H3B        -1.2530   -1.0450   -0.1040 hc        1 FFQ      0.079200
@<TRIPOS>BOND
     1    1    4 1   
     2    1    6 1   
     3    1    9 1   
     4    1   15 1   
     5    2    4 1   
     6    2   10 1   
     7    3    4 1   
     8    3    5 1   
     9    3    7 2   
    10    4   11 1   
    11    6   12 1   
    12    6   13 1   
    13    6   14 1   
@<TRIPOS>SUBSTRUCTURE
     1 FFQ         1 TEMP              0 ****  ****    0 ROOT
