@<TRIPOS>MOLECULE
FFQ
   15    14     1     0     0
SMALL
bcc


@<TRIPOS>ATOM
      1 C1          1.8290    0.5600   -0.3950 c3        1 FFQ     -0.091400
      2 O1          0.9240   -1.6310   -0.7810 oh        1 FFQ     -0.680800
      3 P1         -0.8280    0.1220    0.1490 p5        1 FFQ      1.196700
      4 C2          0.8720   -0.5070    0.0750 c3        1 FFQ     -0.046100
      5 O2         -0.7460    1.6270    0.0040 o         1 FFQ     -0.942833
      6 C3          3.0560    0.6830    0.4760 c3        1 FFQ     -0.065100
      7 O3         -1.4680   -0.5770   -1.0380 o         1 FFQ     -0.942833
      8 O4         -1.3090   -0.3440    1.5030 o         1 FFQ     -0.942833
      9 H           2.1660    0.3440   -1.4460 hc        1 FFQ      0.047700
     10 H2          0.0870   -1.6300   -1.2860 ho        1 FFQ      0.427000
     11 H1          1.1540   -0.8760    1.0930 h1        1 FFQ      0.022700
     12 H20         2.7650    0.9350    1.5240 hc        1 FFQ     -0.009967
     13 HO2         3.6300   -0.2760    0.4950 hc        1 FFQ     -0.009967
     14 H3          3.7380    1.4870    0.1000 hc        1 FFQ     -0.009967
     15 H3B         1.2700    1.5410   -0.4010 hc        1 FFQ      0.047700
@<TRIPOS>BOND
     1    1    4 1   
     2    1    6 1   
     3    1    9 1   
     4    1   15 1   
     5    2    4 1   
     6    2   10 1   
     7    3    4 1   
     8    3    5 1   
     9    3    7 1   
    10    3    8 1   
    11    4   11 1   
    12    6   12 1   
    13    6   13 1   
    14    6   14 1   
@<TRIPOS>SUBSTRUCTURE
     1 FFQ         1 TEMP              0 ****  ****    0 ROOT
