@<TRIPOS>MOLECULE
FFQ
   15    14     1     0     0
SMALL
bcc


@<TRIPOS>ATOM
      1 C1          0.1880   -0.4920   -0.2220 c3        1 FFQ     -0.091400
      2 O1          2.5090   -0.8830   -0.7010 oh        1 FFQ     -0.680800
      3 P1          2.0610    0.3100    1.6200 p5        1 FFQ      1.196700
      4 C2          1.6010    0.0260   -0.1120 c3        1 FFQ     -0.046100
      5 O2          2.6880    1.6840    1.5880 o         1 FFQ     -0.942833
      6 C3         -0.6380    0.2470   -1.2470 c3        1 FFQ     -0.065100
      7 O3          0.7860    0.2290    2.4320 o         1 FFQ     -0.942833
      8 O4          3.0280   -0.8330    1.8750 o         1 FFQ     -0.942833
      9 H           0.1950   -1.5820   -0.4990 hc        1 FFQ      0.047700
     10 H2          3.0010   -1.2950    0.0370 ho        1 FFQ      0.427000
     11 H1          1.7170    0.9900   -0.6680 h1        1 FFQ      0.022700
     12 H20        -1.6790   -0.1610   -1.2960 hc        1 FFQ     -0.009967
     13 HO2        -0.7010    1.3310   -0.9870 hc        1 FFQ     -0.009967
     14 H3         -0.1840    0.1600   -2.2640 hc        1 FFQ     -0.009967
     15 H3B        -0.2920   -0.3920    0.7950 hc        1 FFQ      0.047700
@<TRIPOS>BOND
     1    1    4 1   
     2    1    6 1   
     3    1    9 1   
     4    1   15 1   
     5    2    4 1   
     6    2   10 1   
     7    3    4 1   
     8    3    5 1   
     9    3    7 1   
    10    3    8 1   
    11    4   11 1   
    12    6   12 1   
    13    6   13 1   
    14    6   14 1   
@<TRIPOS>SUBSTRUCTURE
     1 FFQ         1 TEMP              0 ****  ****    0 ROOT
