@<TRIPOS>MOLECULE
FFT
   45    44     1     0     0
SMALL
bcc


@<TRIPOS>ATOM
      1 O3          0.1210    1.0340   -0.4740 o         1 FFT     -0.932167
      2 P           1.2620    0.0480   -0.2830 p5        1 FFT      1.330900
      3 O1          1.7670   -0.0930    1.1200 o         1 FFT     -0.932167
      4 O2          1.1410   -1.1900   -1.1240 o         1 FFT     -0.932167
      5 O           2.5680    0.8780   -1.0770 os        1 FFT     -0.560200
      6 C14         2.2390    1.3550   -2.3200 c3        1 FFT      0.244600
      7 C13         2.5870    2.8120   -2.4470 c2        1 FFT     -0.099200
      8 C11         1.8890    3.7380   -3.1230 c2        1 FFT     -0.228400
      9 C12         2.3410    5.1480   -3.2090 c3        1 FFT     -0.024900
     10 C10         0.5870    3.4510   -3.7890 c3        1 FFT     -0.002200
     11 C9         -0.5430    3.4170   -2.7720 c3        1 FFT     -0.088200
     12 C8         -1.8530    3.1620   -3.4110 c2        1 FFT     -0.157200
     13 C6         -2.8640    2.4920   -2.8340 c2        1 FFT     -0.130400
     14 C7         -4.1520    2.2800   -3.5420 c3        1 FFT     -0.044900
     15 C5         -2.7660    1.8870   -1.4770 c3        1 FFT     -0.084200
     16 C4         -2.9120    2.9300   -0.3800 c3        1 FFT     -0.030200
     17 C3         -2.3030    2.4530    0.8850 c2        1 FFT     -0.119200
     18 C1         -2.8180    2.6590    2.1080 c2        1 FFT     -0.223400
     19 C2         -4.0930    3.3760    2.3490 c3        1 FFT     -0.032900
     20 C          -2.1210    2.1600    3.3180 c3        1 FFT     -0.032900
     21 H3          2.8570    0.8330   -3.1190 h1        1 FFT      0.003200
     22 H4          1.1480    1.1770   -2.5460 h1        1 FFT      0.003200
     23 H5          3.5080    3.0950   -1.9090 ha        1 FFT      0.100000
     24 H6          3.2830    5.3150   -2.6300 hc        1 FFT      0.006700
     25 H7          2.5300    5.4370   -4.2740 hc        1 FFT      0.006700
     26 H8          1.5540    5.8320   -2.8020 hc        1 FFT      0.006700
     27 H9          0.3750    4.2300   -4.5710 hc        1 FFT      0.013200
     28 H10         0.6370    2.4600   -4.3140 hc        1 FFT      0.013200
     29 H11        -0.3070    2.6290   -1.9820 hc        1 FFT      0.099700
     30 H12        -0.5880    4.4050   -2.2370 hc        1 FFT      0.099700
     31 H13        -1.9710    3.5620   -4.4330 ha        1 FFT      0.075000
     32 H14        -4.3120    1.1880   -3.7230 hc        1 FFT      0.016367
     33 H15        -5.0000    2.6550   -2.9160 hc        1 FFT      0.016367
     34 H16        -4.1800    2.8080   -4.5270 hc        1 FFT      0.016367
     35 H17        -3.5570    1.1030   -1.3480 hc        1 FFT      0.102200
     36 H18        -1.7530    1.3700   -1.3540 hc        1 FFT      0.102200
     37 H19        -2.3630    3.8640   -0.6890 hc        1 FFT      0.018200
     38 H20        -3.9930    3.2040   -0.2490 hc        1 FFT      0.018200
     39 H21        -1.3310    1.9060    0.7330 ha        1 FFT      0.253000
     40 H22        -4.0740    4.3910    1.8770 hc        1 FFT      0.018533
     41 H23        -4.2850    3.5060    3.4430 hc        1 FFT      0.018533
     42 H24        -4.9550    2.8120    1.9110 hc        1 FFT      0.018533
     43 H25        -1.8590    3.0110    3.9950 hc        1 FFT      0.018533
     44 H26        -1.1790    1.6190    3.0440 hc        1 FFT      0.018533
     45 H27        -2.7820    1.4590    3.8870 hc        1 FFT      0.018533
@<TRIPOS>BOND
     1    1    2 1   
     2    2    3 1   
     3    2    4 1   
     4    2    5 1   
     5    5    6 1   
     6    6    7 1   
     7    6   21 1   
     8    6   22 1   
     9    7    8 2   
    10    7   23 1   
    11    8    9 1   
    12    8   10 1   
    13    9   24 1   
    14    9   25 1   
    15    9   26 1   
    16   10   11 1   
    17   10   27 1   
    18   10   28 1   
    19   11   12 1   
    20   11   29 1   
    21   11   30 1   
    22   12   13 2   
    23   12   31 1   
    24   13   14 1   
    25   13   15 1   
    26   14   32 1   
    27   14   33 1   
    28   14   34 1   
    29   15   16 1   
    30   15   35 1   
    31   15   36 1   
    32   16   17 1   
    33   16   37 1   
    34   16   38 1   
    35   17   18 2   
    36   17   39 1   
    37   18   19 1   
    38   18   20 1   
    39   19   40 1   
    40   19   41 1   
    41   19   42 1   
    42   20   43 1   
    43   20   44 1   
    44   20   45 1   
@<TRIPOS>SUBSTRUCTURE
     1 FFT         1 TEMP              0 ****  ****    0 ROOT
