@<TRIPOS>MOLECULE
FFT
   45    44     1     0     0
SMALL
bcc


@<TRIPOS>ATOM
      1 O3          0.2130    1.0640    0.3450 o         1 FFT     -0.932167
      2 P           1.2030    2.1890    0.5960 p5        1 FFT      1.330900
      3 O1          0.9630    3.4470   -0.1820 o         1 FFT     -0.932167
      4 O2          1.6360    2.3090    2.0280 o         1 FFT     -0.932167
      5 O           2.6410    1.5510   -0.1470 os        1 FFT     -0.560200
      6 C14         2.9210    0.2600    0.2210 c3        1 FFT      0.244600
      7 C13         3.1400   -0.6090   -0.9860 c2        1 FFT     -0.099200
      8 C11         2.7780   -1.8950   -1.1130 c2        1 FFT     -0.228400
      9 C12         3.0710   -2.6710   -2.3430 c3        1 FFT     -0.024900
     10 C10         2.0080   -2.6310   -0.0700 c3        1 FFT     -0.002200
     11 C9          0.5350   -2.2640   -0.1280 c3        1 FFT     -0.088200
     12 C8         -0.2580   -3.0040    0.8800 c2        1 FFT     -0.157200
     13 C6         -1.3500   -2.5200    1.4940 c2        1 FFT     -0.130400
     14 C7         -2.0940   -3.3280    2.4940 c3        1 FFT     -0.044900
     15 C5         -1.8730   -1.1470    1.2560 c3        1 FFT     -0.084200
     16 C4         -2.6440   -1.0530   -0.0520 c3        1 FFT     -0.030200
     17 C3         -2.6930    0.3470   -0.5360 c2        1 FFT     -0.119200
     18 C1         -3.7610    0.9200   -1.1130 c2        1 FFT     -0.223400
     19 C2         -5.0540    0.2230   -1.3180 c3        1 FFT     -0.032900
     20 C          -3.7050    2.3250   -1.5860 c3        1 FFT     -0.032900
     21 H3          3.9020    0.2180    0.7970 h1        1 FFT      0.003200
     22 H4          2.1080   -0.1580    0.8810 h1        1 FFT      0.003200
     23 H5          3.6430   -0.0890   -1.8190 ha        1 FFT      0.100000
     24 H6          3.7300   -3.5450   -2.1100 hc        1 FFT      0.006700
     25 H7          2.1220   -3.0650   -2.7860 hc        1 FFT      0.006700
     26 H8          3.5830   -2.0430   -3.1130 hc        1 FFT      0.006700
     27 H9          2.1340   -3.7390   -0.2110 hc        1 FFT      0.013200
     28 H10         2.4090   -2.3800    0.9480 hc        1 FFT      0.013200
     29 H11         0.4280   -1.1370    0.0080 hc        1 FFT      0.099700
     30 H12         0.1330   -2.5050   -1.1500 hc        1 FFT      0.099700
     31 H13         0.1040   -4.0190    1.1190 ha        1 FFT      0.075000
     32 H14        -2.0340   -2.8400    3.4990 hc        1 FFT      0.016367
     33 H15        -3.1720   -3.3970    2.2060 hc        1 FFT      0.016367
     34 H16        -1.6850   -4.3650    2.5820 hc        1 FFT      0.016367
     35 H17        -2.5430   -0.8390    2.1010 hc        1 FFT      0.102200
     36 H18        -1.0070   -0.4010    1.2210 hc        1 FFT      0.102200
     37 H19        -2.1100   -1.6630   -0.8340 hc        1 FFT      0.018200
     38 H20        -3.6700   -1.4920    0.0720 hc        1 FFT      0.018200
     39 H21        -1.7230    0.9010   -0.3950 ha        1 FFT      0.253000
     40 H22        -5.5270   -0.0320   -0.3360 hc        1 FFT      0.018533
     41 H23        -5.7710    0.8600   -1.8930 hc        1 FFT      0.018533
     42 H24        -4.9060   -0.7300   -1.8850 hc        1 FFT      0.018533
     43 H25        -2.7020    2.7780   -1.3780 hc        1 FFT      0.018533
     44 H26        -3.8970    2.3740   -2.6870 hc        1 FFT      0.018533
     45 H27        -4.4870    2.9400   -1.0730 hc        1 FFT      0.018533
@<TRIPOS>BOND
     1    1    2 1   
     2    2    3 1   
     3    2    4 1   
     4    2    5 1   
     5    5    6 1   
     6    6    7 1   
     7    6   21 1   
     8    6   22 1   
     9    7    8 2   
    10    7   23 1   
    11    8    9 1   
    12    8   10 1   
    13    9   24 1   
    14    9   25 1   
    15    9   26 1   
    16   10   11 1   
    17   10   27 1   
    18   10   28 1   
    19   11   12 1   
    20   11   29 1   
    21   11   30 1   
    22   12   13 2   
    23   12   31 1   
    24   13   14 1   
    25   13   15 1   
    26   14   32 1   
    27   14   33 1   
    28   14   34 1   
    29   15   16 1   
    30   15   35 1   
    31   15   36 1   
    32   16   17 1   
    33   16   37 1   
    34   16   38 1   
    35   17   18 2   
    36   17   39 1   
    37   18   19 1   
    38   18   20 1   
    39   19   40 1   
    40   19   41 1   
    41   19   42 1   
    42   20   43 1   
    43   20   44 1   
    44   20   45 1   
@<TRIPOS>SUBSTRUCTURE
     1 FFT         1 TEMP              0 ****  ****    0 ROOT
