@<TRIPOS>MOLECULE
FFT
   45    44     1     0     0
SMALL
bcc


@<TRIPOS>ATOM
      1 O3          0.1240    1.0380   -0.4690 o         1 FFT     -0.932167
      2 P           1.2650    0.0530   -0.2760 p5        1 FFT      1.330900
      3 O1          1.7750   -0.0800    1.1270 o         1 FFT     -0.932167
      4 O2          1.1420   -1.1890   -1.1100 o         1 FFT     -0.932167
      5 O           2.5690    0.8800   -1.0780 os        1 FFT     -0.560200
      6 C14         2.2360    1.3510   -2.3220 c3        1 FFT      0.244600
      7 C13         2.5830    2.8070   -2.4580 c2        1 FFT     -0.099200
      8 C11         1.8830    3.7290   -3.1370 c2        1 FFT     -0.228400
      9 C12         2.3340    5.1390   -3.2320 c3        1 FFT     -0.024900
     10 C10         0.5790    3.4380   -3.7970 c3        1 FFT     -0.002200
     11 C9         -0.5470    3.4090   -2.7780 c3        1 FFT     -0.088200
     12 C8         -1.8600    3.1500   -3.4110 c2        1 FFT     -0.157200
     13 C6         -2.8690    2.4820   -2.8270 c2        1 FFT     -0.130400
     14 C7         -4.1590    2.2670   -3.5310 c3        1 FFT     -0.044900
     15 C5         -2.7660    1.8850   -1.4680 c3        1 FFT     -0.084200
     16 C4         -2.9100    2.9330   -0.3760 c3        1 FFT     -0.030200
     17 C3         -2.2960    2.4640    0.8900 c2        1 FFT     -0.119200
     18 C1         -2.8090    2.6750    2.1130 c2        1 FFT     -0.223400
     19 C2         -4.0830    3.3940    2.3540 c3        1 FFT     -0.032900
     20 C          -2.1070    2.1830    3.3240 c3        1 FFT     -0.032900
     21 H3          2.8530    0.8250   -3.1210 h1        1 FFT      0.003200
     22 H4          1.1450    1.1710   -2.5450 h1        1 FFT      0.003200
     23 H5          3.5060    3.0930   -1.9240 ha        1 FFT      0.100000
     24 H6          3.2770    5.3090   -2.6570 hc        1 FFT      0.006700
     25 H7          2.5200    5.4230   -4.2990 hc        1 FFT      0.006700
     26 H8          1.5480    5.8240   -2.8260 hc        1 FFT      0.006700
     27 H9          0.3650    4.2120   -4.5830 hc        1 FFT      0.013200
     28 H10         0.6280    2.4440   -4.3180 hc        1 FFT      0.013200
     29 H11        -0.3090    2.6250   -1.9840 hc        1 FFT      0.099700
     30 H12        -0.5920    4.3990   -2.2480 hc        1 FFT      0.099700
     31 H13        -1.9800    3.5440   -4.4350 ha        1 FFT      0.075000
     32 H14        -4.3180    1.1730   -3.7060 hc        1 FFT      0.016367
     33 H15        -5.0050    2.6440   -2.9050 hc        1 FFT      0.016367
     34 H16        -4.1900    2.7890   -4.5180 hc        1 FFT      0.016367
     35 H17        -3.5570    1.1010   -1.3330 hc        1 FFT      0.102200
     36 H18        -1.7530    1.3690   -1.3450 hc        1 FFT      0.102200
     37 H19        -2.3620    3.8650   -0.6910 hc        1 FFT      0.018200
     38 H20        -3.9900    3.2080   -0.2440 hc        1 FFT      0.018200
     39 H21        -1.3250    1.9160    0.7380 ha        1 FFT      0.253000
     40 H22        -4.0660    4.4060    1.8770 hc        1 FFT      0.018533
     41 H23        -4.2720    3.5290    3.4480 hc        1 FFT      0.018533
     42 H24        -4.9460    2.8260    1.9210 hc        1 FFT      0.018533
     43 H25        -1.8440    3.0380    3.9960 hc        1 FFT      0.018533
     44 H26        -1.1660    1.6420    3.0500 hc        1 FFT      0.018533
     45 H27        -2.7660    1.4850    3.8990 hc        1 FFT      0.018533
@<TRIPOS>BOND
     1    1    2 1   
     2    2    3 1   
     3    2    4 1   
     4    2    5 1   
     5    5    6 1   
     6    6    7 1   
     7    6   21 1   
     8    6   22 1   
     9    7    8 2   
    10    7   23 1   
    11    8    9 1   
    12    8   10 1   
    13    9   24 1   
    14    9   25 1   
    15    9   26 1   
    16   10   11 1   
    17   10   27 1   
    18   10   28 1   
    19   11   12 1   
    20   11   29 1   
    21   11   30 1   
    22   12   13 2   
    23   12   31 1   
    24   13   14 1   
    25   13   15 1   
    26   14   32 1   
    27   14   33 1   
    28   14   34 1   
    29   15   16 1   
    30   15   35 1   
    31   15   36 1   
    32   16   17 1   
    33   16   37 1   
    34   16   38 1   
    35   17   18 2   
    36   17   39 1   
    37   18   19 1   
    38   18   20 1   
    39   19   40 1   
    40   19   41 1   
    41   19   42 1   
    42   20   43 1   
    43   20   44 1   
    44   20   45 1   
@<TRIPOS>SUBSTRUCTURE
     1 FFT         1 TEMP              0 ****  ****    0 ROOT
