@<TRIPOS>MOLECULE
FFX
   19    19     1     0     0
SMALL
bcc


@<TRIPOS>ATOM
      1 F1          0.0760   -0.1310    0.0440 f         1 FFX     -0.212800
      2 C1          1.4400    0.0020    0.0750 c3        1 FFX      0.350900
      3 C2          1.9940    0.0170    1.5210 c3        1 FFX      0.069100
      4 O2          1.6920    1.2520    2.1440 oh        1 FFX     -0.586300
      5 C3          3.5290   -0.0880    1.5020 c3        1 FFX      0.155100
      6 O3          3.9990   -0.3120    2.8190 oh        1 FFX     -0.582800
      7 C4          3.9710   -1.3000    0.6680 c3        1 FFX      0.069100
      8 O4          5.3590   -1.1520    0.4370 oh        1 FFX     -0.586300
      9 C5          3.2610   -1.3040   -0.7160 c3        1 FFX      0.350900
     10 F5          3.3620   -2.5210   -1.3360 f         1 FFX     -0.212800
     11 O5          1.8460   -1.1830   -0.6010 os        1 FFX     -0.451600
     12 H1          1.7620    0.9230   -0.4900 h2        1 FFX      0.069700
     13 H2          1.5560   -0.8390    2.1040 h1        1 FFX      0.082200
     14 HO2         0.7310    1.2850    2.2440 ho        1 FFX      0.419500
     15 H3          3.9770    0.8560    1.0840 h1        1 FFX      0.071700
     16 HO3         3.7800    0.4830    3.3240 ho        1 FFX      0.422000
     17 H4          3.7410   -2.2490    1.2230 h1        1 FFX      0.082200
     18 HO4         5.7150   -2.0380    0.2950 ho        1 FFX      0.419500
     19 H5          3.6790   -0.4870   -1.3730 h2        1 FFX      0.069700
@<TRIPOS>BOND
     1    1    2 1   
     2    2    3 1   
     3    2   11 1   
     4    2   12 1   
     5    3    4 1   
     6    3    5 1   
     7    3   13 1   
     8    4   14 1   
     9    5    6 1   
    10    5    7 1   
    11    5   15 1   
    12    6   16 1   
    13    7    8 1   
    14    7    9 1   
    15    7   17 1   
    16    8   18 1   
    17    9   10 1   
    18    9   11 1   
    19    9   19 1   
@<TRIPOS>SUBSTRUCTURE
     1 FFX         1 TEMP              0 ****  ****    0 ROOT
