@<TRIPOS>MOLECULE
FFX
   19    19     1     0     0
SMALL
bcc


@<TRIPOS>ATOM
      1 F1         -2.1430   -1.7200    0.3280 f         1 FFX     -0.212800
      2 C1         -1.1960   -0.9440   -0.2890 c3        1 FFX      0.350900
      3 C2         -1.2580    0.5340    0.1920 c3        1 FFX      0.069100
      4 O2         -2.3280    1.1610   -0.4900 oh        1 FFX     -0.586300
      5 C3          0.0210    1.2870   -0.2010 c3        1 FFX      0.155100
      6 O3         -0.0020    2.5150    0.5040 oh        1 FFX     -0.582800
      7 C4          1.2640    0.4840    0.2180 c3        1 FFX      0.069100
      8 O4          2.3750    1.1550   -0.3450 oh        1 FFX     -0.586300
      9 C5          1.1790   -0.9600   -0.3350 c3        1 FFX      0.350900
     10 F5          2.1460   -1.7760    0.1920 f         1 FFX     -0.212800
     11 O5         -0.0040   -1.6010    0.1280 os        1 FFX     -0.451600
     12 H1         -1.3090   -0.9960   -1.4110 h2        1 FFX      0.069700
     13 H2         -1.3970    0.5720    1.3060 h1        1 FFX      0.082200
     14 HO2        -3.1260    0.9950    0.0280 ho        1 FFX      0.419500
     15 H3          0.0360    1.4750   -1.3100 h1        1 FFX      0.071700
     16 HO3         0.7680    3.0150    0.2030 ho        1 FFX      0.422000
     17 H4          1.3460    0.4560    1.3400 h1        1 FFX      0.082200
     18 HO4         3.1670    0.7120   -0.0130 ho        1 FFX      0.419500
     19 H5          1.2280   -0.9640   -1.4620 h2        1 FFX      0.069700
@<TRIPOS>BOND
     1    1    2 1   
     2    2    3 1   
     3    2   11 1   
     4    2   12 1   
     5    3    4 1   
     6    3    5 1   
     7    3   13 1   
     8    4   14 1   
     9    5    6 1   
    10    5    7 1   
    11    5   15 1   
    12    6   16 1   
    13    7    8 1   
    14    7    9 1   
    15    7   17 1   
    16    8   18 1   
    17    9   10 1   
    18    9   11 1   
    19    9   19 1   
@<TRIPOS>SUBSTRUCTURE
     1 FFX         1 TEMP              0 ****  ****    0 ROOT
