@<TRIPOS>MOLECULE
FFX
   19    19     1     0     0
SMALL
bcc


@<TRIPOS>ATOM
      1 F1         -1.7160    1.2370   -1.1190 f         1 FFX     -0.236300
      2 C1         -0.4010    1.2370   -1.1190 c3        1 FFX      0.351400
      3 C2          0.0880    1.2370    0.3140 c3        1 FFX      0.075600
      4 O2          1.5110    1.4670    0.3200 oh        1 FFX     -0.592800
      5 C3         -0.1920   -0.0450    1.0060 c3        1 FFX      0.116100
      6 O3         -1.6260   -0.1700    1.1980 oh        1 FFX     -0.602800
      7 C4          0.2950   -1.2230    0.2300 c3        1 FFX      0.075600
      8 O4          1.7270   -1.2180    0.2300 oh        1 FFX     -0.592800
      9 C5         -0.1960   -1.2120   -1.2080 c3        1 FFX      0.351400
     10 F5         -1.5020   -1.4260   -1.2170 f         1 FFX     -0.236300
     11 O5          0.0800    0.0570   -1.8850 os        1 FFX     -0.443600
     12 H1         -0.0860    2.0490   -1.5590 h2        1 FFX      0.112700
     13 H2         -0.3520    1.9610    0.7990 h1        1 FFX      0.077200
     14 HO2         1.6770    2.2860    0.6200 ho        1 FFX      0.424000
     15 H3          0.2450   -0.0370    1.8780 h1        1 FFX      0.077700
     16 HO3        -1.8050   -0.2140    2.0670 ho        1 FFX      0.429000
     17 H4         -0.0190   -2.0390    0.6640 h1        1 FFX      0.077200
     18 HO4         2.0260   -2.0160    0.4780 ho        1 FFX      0.424000
     19 H5          0.2450   -1.9320   -1.6980 h2        1 FFX      0.112700
@<TRIPOS>BOND
     1    1    2 1   
     2    2    3 1   
     3    2   11 1   
     4    2   12 1   
     5    3    4 1   
     6    3    5 1   
     7    3   13 1   
     8    4   14 1   
     9    5    6 1   
    10    5    7 1   
    11    5   15 1   
    12    6   16 1   
    13    7    8 1   
    14    7    9 1   
    15    7   17 1   
    16    8   18 1   
    17    9   10 1   
    18    9   11 1   
    19    9   19 1   
@<TRIPOS>SUBSTRUCTURE
     1 FFX         1 TEMP              0 ****  ****    0 ROOT
