@<TRIPOS>MOLECULE
FG1
   56    55     1     0     0
SMALL
bcc


@<TRIPOS>ATOM
      1 O30         0.8250    1.2940    0.8390 o         1 FG1     -0.223000
      2 C27         1.1380    0.9690   -0.2500 c1        1 FG1      0.447000
      3 O28         1.4540    0.6390   -1.3610 o         1 FG1     -0.223000
      4 C26         1.5220   -0.3810   -5.2030 c1        1 FG1      0.028000
      5 O29         2.0280   -1.0740   -6.0900 o         1 FG1     -0.508000
      6 N25         2.3480   -0.1490   -3.9320 n4        1 FG1     -0.080000
      7 C22         3.7820   -0.3550   -4.0680 ca        1 FG1     -0.087000
      8 C23         4.6080    0.7010   -4.4950 ca        1 FG1     -0.108000
      9 C24         5.9360    0.4470   -4.8310 ca        1 FG1     -0.126000
     10 C19         6.4520   -0.8510   -4.7450 ca        1 FG1     -0.113000
     11 C20         5.6630   -1.8710   -4.1950 ca        1 FG1     -0.126000
     12 C21         4.3360   -1.6310   -3.8520 ca        1 FG1     -0.108000
     13 C18         7.8210   -1.1560   -5.2390 c3        1 FG1     -0.164000
     14 C17         7.8460   -1.3470   -6.7540 c3        1 FG1     -0.123000
     15 N16         6.7820   -2.3070   -7.2370 n4        1 FG1     -0.081000
     16 C12         5.6950   -1.6790   -8.0390 c2        1 FG1      0.245000
     17 O13         5.9530   -0.7180   -8.7500 o         1 FG1     -0.144000
     18 C11         4.2820   -2.2920   -7.9320 c3        1 FG1     -0.105000
     19 N10         3.4330   -1.8540   -9.0990 n4        1 FG1     -0.112000
     20 C8          2.2760   -0.9330   -8.7040 c2        1 FG1      0.286000
     21 O9          2.5940    0.0880   -8.1200 o         1 FG1     -0.152000
     22 C7          0.8990   -1.3370   -9.1500 c3        1 FG1     -0.203000
     23 C6         -0.1390   -1.2420   -8.0320 c3        1 FG1     -0.112000
     24 N5         -0.3460    0.1060   -7.4370 n4        1 FG1     -0.130000
     25 C3         -1.0910    1.0710   -8.3500 c2        1 FG1      0.280000
     26 O4         -0.6190    1.1980   -9.4690 o         1 FG1     -0.175000
     27 C2         -2.2820    1.7700   -7.7890 c3        1 FG1     -0.317000
     28 BR1        -3.0400    1.0510   -6.1900 br        1 FG1      0.113000
     29 C14         4.3510   -3.8350   -7.8220 c3        1 FG1     -0.044000
     30 O15         5.3840   -4.2400   -8.6950 oh        1 FG1     -0.377000
     31 H25         1.9750   -0.7520   -3.1870 hn        1 FG1      0.259000
     32 H23         4.2240    1.7340   -4.5640 ha        1 FG1      0.172500
     33 H24         6.5830    1.2810   -5.1560 ha        1 FG1      0.170500
     34 H20         6.1050   -2.8580   -3.9770 ha        1 FG1      0.170500
     35 H21         3.7370   -2.4410   -3.4020 ha        1 FG1      0.172500
     36 H181        8.2370   -2.0630   -4.7210 hc        1 FG1      0.162500
     37 H182        8.5260   -0.3040   -5.0080 hc        1 FG1      0.162500
     38 H171        8.8470   -1.7730   -7.0640 hx        1 FG1      0.176000
     39 H172        7.7030   -0.3580   -7.2800 hx        1 FG1      0.176000
     40 H16         6.3700   -2.7830   -6.4190 hn        1 FG1      0.281000
     41 H11         3.8000   -1.8770   -6.9770 hx        1 FG1      0.239000
     42 H10         4.0200   -1.3310   -9.7760 hn        1 FG1      0.280500
     43 H71         0.6250   -0.6510  -10.0130 hc        1 FG1      0.188500
     44 H72         0.8530   -2.3930   -9.5390 hc        1 FG1      0.188500
     45 H61         0.1610   -1.9300   -7.1830 hx        1 FG1      0.179000
     46 H62        -1.1280   -1.5960   -8.4560 hx        1 FG1      0.179000
     47 HN5         0.5700    0.5120   -7.1790 hn        1 FG1      0.284000
     48 H21A       -2.0030    2.8450   -7.5950 h1        1 FG1      0.217500
     49 H22        -3.0860    1.7810   -8.5820 h1        1 FG1      0.217500
     50 H141        4.6020   -4.1130   -6.7600 h1        1 FG1      0.133500
     51 H142        3.3700   -4.3170   -8.0820 h1        1 FG1      0.133500
     52 H15         5.2970   -5.1920   -8.8740 ho        1 FG1      0.292000
     53 H252        2.1590    0.8180   -3.6390 hn        1 FG1      0.259000
     54 H162        7.2140   -3.0290   -7.8450 hn        1 FG1      0.281000
     55 H102        3.0700   -2.6880   -9.5790 hn        1 FG1      0.280500
     56 H52        -0.8870   -0.0080   -6.5530 hn        1 FG1      0.284000
@<TRIPOS>BOND
     1    1    2 1   
     2    2    3 1   
     3    4    5 1   
     4    4    6 1   
     5    6    7 1   
     6    6   31 1   
     7    6   53 1   
     8    7    8 1   
     9    7   12 1   
    10    8    9 1   
    11    8   32 1   
    12    9   10 1   
    13    9   33 1   
    14   10   11 1   
    15   10   13 1   
    16   11   12 1   
    17   11   34 1   
    18   12   35 1   
    19   13   14 1   
    20   13   36 1   
    21   13   37 1   
    22   14   15 1   
    23   14   38 1   
    24   14   39 1   
    25   15   16 1   
    26   15   40 1   
    27   15   54 1   
    28   16   17 1   
    29   16   18 1   
    30   18   19 1   
    31   18   29 1   
    32   18   41 1   
    33   19   20 1   
    34   19   42 1   
    35   19   55 1   
    36   20   21 1   
    37   20   22 1   
    38   22   23 1   
    39   22   43 1   
    40   22   44 1   
    41   23   24 1   
    42   23   45 1   
    43   23   46 1   
    44   24   25 1   
    45   24   47 1   
    46   24   56 1   
    47   25   26 1   
    48   25   27 1   
    49   27   28 1   
    50   27   48 1   
    51   27   49 1   
    52   29   30 1   
    53   29   50 1   
    54   29   51 1   
    55   30   52 1   
@<TRIPOS>SUBSTRUCTURE
     1 FG1         1 TEMP              0 ****  ****    0 ROOT
