@<TRIPOS>MOLECULE
FG1
   52    52     1     0     0
SMALL
bcc


@<TRIPOS>ATOM
      1 O30         2.4850   -1.7920   10.2260 o         1 FG1     -0.780300
      2 C27         3.2100   -1.3940    9.2910 c         1 FG1      0.890600
      3 O28         4.4570   -1.4830    9.1750 o         1 FG1     -0.780300
      4 C26         2.4630   -0.7140    8.0810 c         1 FG1      0.544100
      5 O29         1.6310    0.2030    8.1990 o         1 FG1     -0.648100
      6 N25         2.8120   -1.2330    6.8230 n         1 FG1     -0.472100
      7 C22         2.3460   -0.8530    5.5730 ca        1 FG1      0.114600
      8 C23         1.1780   -0.0690    5.3990 ca        1 FG1     -0.197000
      9 C24         0.7470    0.2910    4.1320 ca        1 FG1     -0.094000
     10 C19         1.4330   -0.1210    2.9840 ca        1 FG1     -0.167300
     11 C20         2.5750   -0.9120    3.1420 ca        1 FG1     -0.094000
     12 C21         3.0310   -1.2740    4.4010 ca        1 FG1     -0.197000
     13 C18         0.9740    0.2930    1.6350 c3        1 FG1     -0.037100
     14 C17        -0.1470   -0.5950    1.0860 c3        1 FG1      0.086000
     15 N16        -1.3830   -0.5100    1.8190 n         1 FG1     -0.540900
     16 C12        -2.5800   -0.2390    1.2220 c         1 FG1      0.635100
     17 O13        -2.7100   -0.0920   -0.0160 o         1 FG1     -0.661100
     18 C11        -3.8270   -0.1620    2.1430 c3        1 FG1     -0.002300
     19 N10        -3.8860    1.0770    2.8700 n         1 FG1     -0.570900
     20 C8         -3.2240    1.2640    4.0680 c         1 FG1      0.659100
     21 O9         -2.4690    0.3730    4.5130 o         1 FG1     -0.621100
     22 C7         -3.4600    2.5690    4.7990 c3        1 FG1     -0.172400
     23 C6         -3.0460    2.4620    6.2710 c3        1 FG1      0.106000
     24 N5         -1.6290    2.4320    6.4820 n         1 FG1     -0.565900
     25 C3         -0.9810    3.3770    7.2490 c         1 FG1      0.671100
     26 O4         -1.6050    4.3280    7.7670 o         1 FG1     -0.626100
     27 C2          0.5100    3.2250    7.4410 c3        1 FG1     -0.101000
     28 BR1         1.4820    4.0120    5.9770 br        1 FG1     -0.156400
     29 C14        -5.0850   -0.3910    1.2750 c3        1 FG1      0.139400
     30 O15        -5.3670    0.7020    0.4320 oh        1 FG1     -0.617800
     31 H25         3.6160   -1.8270    6.8320 hn        1 FG1      0.326500
     32 H23         0.6050    0.2570    6.2830 ha        1 FG1      0.143500
     33 H24        -0.1580    0.9150    4.0380 ha        1 FG1      0.118000
     34 H20         3.1300   -1.2490    2.2520 ha        1 FG1      0.118000
     35 H21         3.9380   -1.8900    4.4880 ha        1 FG1      0.143500
     36 H181        1.8260    0.2320    0.9050 hc        1 FG1      0.047200
     37 H182        0.6330    1.3630    1.6620 hc        1 FG1      0.047200
     38 H171       -0.3400   -0.3150    0.0110 h1        1 FG1      0.055700
     39 H172        0.2010   -1.6690    1.1130 h1        1 FG1      0.055700
     40 H16        -1.3260   -0.5370    2.8170 hn        1 FG1      0.349500
     41 H11        -3.7640   -1.0120    2.8910 h1        1 FG1      0.092700
     42 H10        -4.4160    1.8110    2.4620 hn        1 FG1      0.328500
     43 H71        -2.8830    3.3780    4.2790 hc        1 FG1      0.074700
     44 H72        -4.5480    2.8410    4.7660 hc        1 FG1      0.074700
     45 H61        -3.4980    1.5180    6.6940 h1        1 FG1      0.066700
     46 H62        -3.4820    3.3470    6.8210 h1        1 FG1      0.066700
     47 HN5        -1.1330    1.6440    6.1260 hn        1 FG1      0.341500
     48 H21A        0.8330    2.1550    7.5310 h1        1 FG1      0.129200
     49 H22         0.8080    3.7730    8.3670 h1        1 FG1      0.129200
     50 H141       -5.9920   -0.4960    1.9290 h1        1 FG1      0.056200
     51 H142       -4.9290   -1.3280    0.6770 h1        1 FG1      0.056200
     52 H15        -4.6520    0.7550   -0.2200 ho        1 FG1      0.435000
@<TRIPOS>BOND
     1    1    2 1   
     2    2    3 1   
     3    2    4 1   
     4    4    5 2   
     5    4    6 1   
     6    6    7 1   
     7    6   31 1   
     8    7    8 ar  
     9    7   12 ar  
    10    8    9 ar  
    11    8   32 1   
    12    9   10 ar  
    13    9   33 1   
    14   10   11 ar  
    15   10   13 1   
    16   11   12 ar  
    17   11   34 1   
    18   12   35 1   
    19   13   14 1   
    20   13   36 1   
    21   13   37 1   
    22   14   15 1   
    23   14   38 1   
    24   14   39 1   
    25   15   16 1   
    26   15   40 1   
    27   16   17 2   
    28   16   18 1   
    29   18   19 1   
    30   18   29 1   
    31   18   41 1   
    32   19   20 1   
    33   19   42 1   
    34   20   21 2   
    35   20   22 1   
    36   22   23 1   
    37   22   43 1   
    38   22   44 1   
    39   23   24 1   
    40   23   45 1   
    41   23   46 1   
    42   24   25 1   
    43   24   47 1   
    44   25   26 2   
    45   25   27 1   
    46   27   28 1   
    47   27   48 1   
    48   27   49 1   
    49   29   30 1   
    50   29   50 1   
    51   29   51 1   
    52   30   52 1   
@<TRIPOS>SUBSTRUCTURE
     1 FG1         1 TEMP              0 ****  ****    0 ROOT
