@<TRIPOS>MOLECULE
FG1
   55    55     1     0     0
SMALL
bcc


@<TRIPOS>ATOM
      1 O30         0.0000    0.0000    0.0000 o         1 FG1     -0.637800
      2 C27         1.3420    0.0000    0.0000 c         1 FG1      0.897600
      3 O28         2.0660    0.0000    0.9750 o         1 FG1     -0.637800
      4 C26         1.8660    0.0020   -1.4230 c         1 FG1      0.508100
      5 O29         1.0570    0.0040   -2.3380 o         1 FG1     -0.574100
      6 N25         3.2570    0.0010   -1.4770 ns        1 FG1     -0.039100
      7 C22         4.0710    0.0030   -2.6110 ca        1 FG1     -0.006400
      8 C23         3.4960    0.0060   -3.8810 ca        1 FG1     -0.143500
      9 C24         4.3100    0.0070   -5.0150 ca        1 FG1     -0.067000
     10 C19         5.6870    0.0060   -4.8630 ca        1 FG1     -0.235300
     11 C20         6.2730    0.0030   -3.6060 ca        1 FG1     -0.067000
     12 C21         5.4590    0.0020   -2.4730 ca        1 FG1     -0.143500
     13 C18         6.5670    0.0060   -6.0890 c3        1 FG1      0.043900
     14 C17         6.9130   -1.4000   -6.5750 c3        1 FG1     -0.032200
     15 N16         5.7440   -2.1590   -6.9510 ny        1 FG1      0.159200
     16 C12         5.2260   -2.1550   -8.2380 c         1 FG1      0.291100
     17 O13         5.6940   -1.5190   -9.1810 o         1 FG1     -0.388100
     18 C11         3.9630   -3.0010   -8.3530 c3        1 FG1     -0.138500
     19 N10         3.0630   -2.3460   -9.2650 ny        1 FG1      0.181200
     20 C8          1.6800   -2.3960   -9.1330 c         1 FG1      0.176100
     21 O9          1.0780   -2.9910   -8.2430 o         1 FG1     -0.466100
     22 C7          0.9820   -1.6160  -10.2310 c3        1 FG1     -0.087400
     23 C6         -0.3510   -1.0350   -9.7770 c3        1 FG1     -0.007200
     24 N5         -0.1370   -0.1270   -8.6760 ny        1 FG1      0.136200
     25 C3          0.1010    1.2270   -8.8560 c         1 FG1      0.322100
     26 O4          0.1570    1.7980   -9.9430 o         1 FG1     -0.350100
     27 C2          0.3120    1.9630   -7.5610 c3        1 FG1     -0.027000
     28 Br1         2.1050    2.6950   -7.6270 br        1 FG1     -0.039400
     29 C14         4.2710   -4.4290   -8.7910 c3        1 FG1      0.229400
     30 O15         4.9040   -4.4280  -10.0660 oh        1 FG1     -0.604800
     31 H25         3.7310   -0.0000   -0.5960 hn        1 FG1      0.217500
     32 H23         2.4180   -0.0130   -3.9880 ha        1 FG1      0.145000
     33 H24         3.8690    0.0090   -6.0050 ha        1 FG1      0.086000
     34 H20         7.3510    0.0030   -3.5050 ha        1 FG1      0.086000
     35 H21         5.9060    0.0000   -1.4860 ha        1 FG1      0.145000
     36 H181        6.0550    0.5340   -6.8850 hc        1 FG1      0.051200
     37 H182        7.4870    0.5310   -5.8580 hc        1 FG1      0.051200
     38 H171        7.4320   -1.9260   -5.7820 hx        1 FG1      0.096700
     39 H172        7.5700   -1.3220   -7.4320 hx        1 FG1      0.096700
     40 H16         5.0050   -1.8480   -6.3520 hn        1 FG1      0.265300
     41 H11         3.4910   -3.0410   -7.3790 hx        1 FG1      0.100700
     42 H10         3.3090   -1.3760   -9.2490 hn        1 FG1      0.255300
     43 H71         1.6260   -0.8050  -10.5500 hc        1 FG1      0.074700
     44 H72         0.8070   -2.2750  -11.0730 hc        1 FG1      0.074700
     45 H61        -1.0040   -1.8380   -9.4590 hx        1 FG1      0.115200
     46 H62        -0.8100   -0.5010  -10.5990 hx        1 FG1      0.115200
     47 HN5         0.6480   -0.4830   -8.1680 hn        1 FG1      0.266800
     48 H21A        0.2200    1.2790   -6.7260 h1        1 FG1      0.087700
     49 H22        -0.4120    2.7630   -7.4670 h1        1 FG1      0.087700
     50 H141        4.9280   -4.8930   -8.0660 h1        1 FG1      0.038700
     51 H142        3.3480   -4.9920   -8.8500 h1        1 FG1      0.038700
     52 H15         5.1000   -5.3140  -10.3200 ho        1 FG1      0.467000
     53 H162        5.9520   -3.1150   -6.7380 hn        1 FG1      0.265300
     54 H102        3.2700   -2.7150  -10.1720 hn        1 FG1      0.255300
     55 H52        -0.9520   -0.1920   -8.0980 hn        1 FG1      0.266800
@<TRIPOS>BOND
     1    1    2 1   
     2    2    3 1   
     3    2    4 1   
     4    4    5 2   
     5    4    6 1   
     6    6    7 1   
     7    6   31 1   
     8    7    8 ar  
     9    7   12 ar  
    10    8    9 ar  
    11    8   32 1   
    12    9   10 ar  
    13    9   33 1   
    14   10   11 ar  
    15   10   13 1   
    16   11   12 ar  
    17   11   34 1   
    18   12   35 1   
    19   13   14 1   
    20   13   36 1   
    21   13   37 1   
    22   14   15 1   
    23   14   38 1   
    24   14   39 1   
    25   15   16 1   
    26   15   40 1   
    27   15   53 1   
    28   16   17 2   
    29   16   18 1   
    30   18   19 1   
    31   18   29 1   
    32   18   41 1   
    33   19   20 1   
    34   19   42 1   
    35   19   54 1   
    36   20   21 2   
    37   20   22 1   
    38   22   23 1   
    39   22   43 1   
    40   22   44 1   
    41   23   24 1   
    42   23   45 1   
    43   23   46 1   
    44   24   25 1   
    45   24   47 1   
    46   24   55 1   
    47   25   26 2   
    48   25   27 1   
    49   27   28 1   
    50   27   48 1   
    51   27   49 1   
    52   29   30 1   
    53   29   50 1   
    54   29   51 1   
    55   30   52 1   
@<TRIPOS>SUBSTRUCTURE
     1 FG1         1 TEMP              0 ****  ****    0 ROOT
