@<TRIPOS>MOLECULE
FG1
   52    50     1     0     0
SMALL
bcc


@<TRIPOS>ATOM
      1 O30        -9.1790    2.0600    5.9400 o         1 FG1     -0.518500
      2 C27        -8.1880    1.4970    6.4370 c2        1 FG1      0.358000
      3 O28        -8.2460    1.0430    7.6050 o         1 FG1     -0.518500
      4 C26        -6.9430    1.2950    5.6110 c2        1 FG1      0.231000
      5 O29        -6.8950    0.4120    4.8160 o         1 FG1     -0.378000
      6 N25        -5.8140    2.1720    5.7830 n         1 FG1     -0.327000
      7 C22        -4.6180    1.9780    4.9880 c2        1 FG1      0.128000
      8 C23        -4.5920    2.3910    3.6760 c1        1 FG1     -0.183000
      9 C24        -3.4330    2.1980    2.8990 c1        1 FG1     -0.092000
     10 C19        -2.3230    1.5930    3.4540 c1        1 FG1     -0.167000
     11 C20        -2.3490    1.1760    4.7780 c1        1 FG1     -0.090000
     12 C21        -3.5000    1.3690    5.5490 c2        1 FG1     -0.223000
     13 C18        -1.0190    1.4590    2.6230 c3        1 FG1     -0.120000
     14 C17        -1.2420    0.4560    1.4720 c3        1 FG1     -0.036000
     15 N16         0.0270   -0.1150    1.0760 n         1 FG1     -0.362000
     16 C12         0.6350    0.2800   -0.1620 c2        1 FG1      0.275000
     17 O13         0.2020    1.2310   -0.7720 o         1 FG1     -0.383000
     18 C11         1.8910   -0.4220   -0.6450 c3        1 FG1     -0.057000
     19 N10         1.9280   -0.4070   -2.0800 n         1 FG1     -0.350000
     20 C8          2.4450   -1.5480   -2.8030 c2        1 FG1      0.298000
     21 O9          2.7650   -2.5490   -2.2060 o         1 FG1     -0.361000
     22 C7          2.5790   -1.4890   -4.3470 c3        1 FG1     -0.210000
     23 C6          3.9210   -2.1510   -4.7830 c3        1 FG1     -0.019000
     24 N5          4.0250   -2.1170   -6.2130 n         1 FG1     -0.374000
     25 C3          5.2420   -2.5090   -6.8490 c2        1 FG1      0.307000
     26 O4          6.2660   -2.6240   -6.1880 o         1 FG1     -0.355000
     27 C2          5.3000   -2.6270   -8.3570 c3        1 FG1     -0.263000
     28 BR1         6.9810   -3.4160   -8.8700 br        1 FG1     -0.010000
     29 C14         3.0930    0.2850   -0.1080 c3        1 FG1     -0.019000
     30 O15         4.2180   -0.5380   -0.2450 oh        1 FG1     -0.322000
     31 H25        -5.8580    2.8710    6.3950 hn        1 FG1      0.238000
     32 H23        -5.3950    2.7580    3.2660 ha        1 FG1      0.176000
     33 H24        -3.4390    2.4260    1.9430 ha        1 FG1      0.120000
     34 H20        -1.6060    0.6640    5.1380 ha        1 FG1      0.110000
     35 H21        -3.4950    1.1390    6.4980 ha        1 FG1      0.125000
     36 H181       -0.2990    1.1370    3.1980 hc        1 FG1      0.077000
     37 H182       -0.7730    2.3410    2.2490 hc        1 FG1      0.077000
     38 H171       -1.6450    0.9200    0.7090 h1        1 FG1      0.110000
     39 H172       -1.8400   -0.2550    1.7720 h1        1 FG1      0.110000
     40 H16         0.3970   -0.7920    1.5710 hn        1 FG1      0.223000
     41 H11         1.8890   -1.3440   -0.3290 h1        1 FG1      0.152000
     42 H10         1.6760    0.3490   -2.5370 hn        1 FG1      0.232000
     43 H71         1.8280   -1.9710   -4.7600 hc        1 FG1      0.114500
     44 H72         2.5660   -0.5520   -4.6400 hc        1 FG1      0.114500
     45 H61         4.6670   -1.6620   -4.3920 h1        1 FG1      0.121000
     46 H62         3.9440   -3.0870   -4.4750 h1        1 FG1      0.121000
     47 HN5         3.3320   -1.8150   -6.7090 hn        1 FG1      0.232000
     48 H21A        5.2210   -1.7390   -8.7560 h1        1 FG1      0.142000
     49 H22         4.5740   -3.1850   -8.6660 h1        1 FG1      0.142000
     50 H141        3.2330    1.1190   -0.6090 h1        1 FG1      0.098000
     51 H142        2.9530    0.4910    0.8390 h1        1 FG1      0.098000
     52 H15         4.8900   -0.1990    0.2170 ho        1 FG1      0.209000
@<TRIPOS>BOND
     1    1    2 1   
     2    2    3 1   
     3    2    4 1   
     4    4    5 1   
     5    4    6 1   
     6    6    7 1   
     7    6   31 1   
     8    7    8 1   
     9    7   12 1   
    10    8   32 1   
    11    9   10 1   
    12    9   33 1   
    13   10   13 1   
    14   11   12 1   
    15   11   34 1   
    16   12   35 1   
    17   13   14 1   
    18   13   36 1   
    19   13   37 1   
    20   14   15 1   
    21   14   38 1   
    22   14   39 1   
    23   15   16 1   
    24   15   40 1   
    25   16   17 1   
    26   16   18 1   
    27   18   19 1   
    28   18   29 1   
    29   18   41 1   
    30   19   20 1   
    31   19   42 1   
    32   20   21 1   
    33   20   22 1   
    34   22   23 1   
    35   22   43 1   
    36   22   44 1   
    37   23   24 1   
    38   23   45 1   
    39   23   46 1   
    40   24   25 1   
    41   24   47 1   
    42   25   26 1   
    43   25   27 1   
    44   27   28 1   
    45   27   48 1   
    46   27   49 1   
    47   29   30 1   
    48   29   50 1   
    49   29   51 1   
    50   30   52 1   
@<TRIPOS>SUBSTRUCTURE
     1 FG1         1 TEMP              0 ****  ****    0 ROOT
