@<TRIPOS>MOLECULE
FG2
   40    42     1     0     0
SMALL
bcc


@<TRIPOS>ATOM
      1 CAA         0.5700    0.7710    0.6680 c3        1 FG2     -0.083000
      2 OAC         8.3980   -1.1890    5.0920 o         1 FG2     -0.188000
      3 OAD         7.4230   -0.1510    9.1750 o         1 FG2     -0.898500
      4 OAE         6.2510   -0.7860    7.1630 o         1 FG2     -0.898500
      5 CAF         9.0240    1.9570    5.1520 c3        1 FG2     -0.234000
      6 CAG         8.0880    1.0460    5.8260 c2        1 FG2      0.080000
      7 CAH         2.2670   -0.6170    2.3720 c3        1 FG2     -0.213000
      8 CAI         3.2040   -1.3040    3.2600 c1        1 FG2     -0.042000
      9 CAJ         8.8060    3.3490    7.1810 c2        1 FG2     -0.151000
     10 CAK         3.8020    1.3730    2.1860 c2        1 FG2     -0.219000
     11 CAL         5.9910    1.0550    3.5580 c2        1 FG2     -0.212000
     12 NAM         7.9770    2.4750    7.7570 n2        1 FG2      0.087000
     13 NAN         5.3960    1.0900    8.5060 n3        1 FG2     -0.953000
     14 NAO         5.4700   -1.0480    4.3220 na        1 FG2     -0.046000
     15 OAP         1.7760    1.4320    1.0440 os        1 FG2     -0.198000
     16 CAQ         7.6870   -0.1890    5.0720 c2        1 FG2      0.309000
     17 CAR         9.3780    3.1670    5.9000 c2        1 FG2      0.150000
     18 CAS         2.6290    0.7390    1.8680 c2        1 FG2      0.078000
     19 CAT         7.6330    1.3300    7.1070 c2        1 FG2     -0.682000
     20 CAU         6.4230   -0.0480    4.3490 c2        1 FG2     -0.121000
     21 CAV         4.7190    0.7030    3.0370 c2        1 FG2      0.022000
     22 CAW         4.4000   -0.6130    3.5420 c2        1 FG2     -0.146000
     23 SAX         6.6080    0.1860    8.1040 s6        1 FG2      2.871000
     24 HAA        -0.0600    0.5590    1.5660 h1        1 FG2      0.095333
     25 HAAA        0.0680    1.5180    0.0000 h1        1 FG2      0.095333
     26 HAAB        0.7920   -0.1700    0.1100 h1        1 FG2      0.095333
     27 HAB        10.6390    3.8640    4.2980 hc        1 FG2      0.155000
     28 HABA        9.8130    5.1600    5.2810 hc        1 FG2      0.155000
     29 HABB       11.2060    4.2540    5.9860 hc        1 FG2      0.155000
     30 HAF         9.9780    1.3690    4.9050 hc        1 FG2      0.245000
     31 HAG         8.6210    2.2370    4.1200 hc        1 FG2      0.245000
     32 HAH         1.2780   -0.5660    2.9210 hc        1 FG2      0.174000
     33 HAI         2.1010   -1.3150    1.4930 hc        1 FG2      0.174000
     34 HAJ         9.0420    4.2580    7.7770 h4        1 FG2      0.219000
     35 HAK         4.0380    2.3700    1.7930 ha        1 FG2      0.158000
     36 HAL         6.5420    1.9680    3.3630 ha        1 FG2      0.140000
     37 HNAN        4.5390    1.1370    8.0020 hn        1 FG2      0.274500
     38 HNAO        5.4960   -1.8830    4.8640 hn        1 FG2      0.296000
     39 HAN2        5.3790    1.6730    9.3120 hn        1 FG2      0.274500
     40 CAB        10.2990    4.1450    5.3260 c3        1 FG2     -0.263000
@<TRIPOS>BOND
     1    1   15 1   
     2    1   24 1   
     3    1   25 1   
     4    1   26 1   
     5    2   16 1   
     6    3   23 1   
     7    4   23 1   
     8    5    6 1   
     9    5   17 1   
    10    5   30 1   
    11    5   31 1   
    12    6   16 1   
    13    6   19 1   
    14    7    8 1   
    15    7   18 1   
    16    7   32 1   
    17    7   33 1   
    18    8   22 1   
    19    9   12 1   
    20    9   17 1   
    21    9   34 1   
    22   10   18 1   
    23   10   21 1   
    24   10   35 1   
    25   11   20 1   
    26   11   21 1   
    27   11   36 1   
    28   12   19 1   
    29   13   23 1   
    30   13   37 1   
    31   13   39 1   
    32   14   20 1   
    33   14   22 1   
    34   14   38 1   
    35   15   18 1   
    36   16   20 1   
    37   17   40 1   
    38   19   23 1   
    39   21   22 1   
    40   27   40 1   
    41   28   40 1   
    42   29   40 1   
@<TRIPOS>SUBSTRUCTURE
     1 FG2         1 TEMP              0 ****  ****    0 ROOT
