@<TRIPOS>MOLECULE
FG2
   40    42     1     0     0
SMALL
bcc


@<TRIPOS>ATOM
      1 CAA         0.5320    0.9410    0.7150 c3        1 FG2     -0.083000
      2 OAC         8.3000   -1.2920    5.1170 o         1 FG2     -0.188000
      3 OAD         7.3990   -0.1590    9.1910 o         1 FG2     -0.898000
      4 OAE         6.1860   -0.7700    7.1960 o         1 FG2     -0.898000
      5 CAF         9.0610    1.8250    5.1300 c3        1 FG2     -0.234000
      6 CAG         8.0910    0.9630    5.8220 c2        1 FG2      0.080000
      7 CAH         2.1790   -0.4940    2.4290 c3        1 FG2     -0.213000
      8 CAI         3.0930   -1.2080    3.3200 c1        1 FG2     -0.042000
      9 CAJ         8.9170    3.2510    7.1410 c2        1 FG2     -0.151000
     10 CAK         3.7980    1.4240    2.2040 c2        1 FG2     -0.219000
     11 CAL         5.9810    1.0310    3.5670 c2        1 FG2     -0.212000
     12 NAM         8.0550    2.4220    7.7350 n2        1 FG2      0.087000
     13 NAN         5.4220    1.1590    8.5180 n3        1 FG2     -0.953000
     14 NAO         5.3750   -1.0360    4.3650 na        1 FG2     -0.046000
     15 OAP         1.7690    1.5550    1.0740 os        1 FG2     -0.198000
     16 CAQ         7.6320   -0.2630    5.0870 c2        1 FG2      0.309000
     17 CAR         9.4710    3.0280    5.8590 c2        1 FG2      0.150000
     18 CAS         2.5970    0.8380    1.9030 c2        1 FG2      0.078000
     19 CAT         7.6580    1.2840    7.1020 c2        1 FG2     -0.682000
     20 CAU         6.3710   -0.0780    4.3700 c2        1 FG2     -0.121000
     21 CAV         4.6920    0.7280    3.0590 c2        1 FG2      0.022000
     22 CAW         4.3190   -0.5660    3.5850 c2        1 FG2     -0.146000
     23 SAX         6.5910    0.1980    8.1210 s6        1 FG2      2.871000
     24 HAA        -0.1000    0.7690    1.6200 h1        1 FG2      0.095333
     25 HAAA        0.7100   -0.0160    0.1690 h1        1 FG2      0.095333
     26 HAAB        0.0590    1.7000    0.0400 h1        1 FG2      0.095333
     27 HAB        10.7490    3.6490    4.2390 hc        1 FG2      0.155000
     28 HABA       11.3450    4.0360    5.9190 hc        1 FG2      0.155000
     29 HABB        9.9880    4.9920    5.2110 hc        1 FG2      0.155000
     30 HAF         9.9870    1.1930    4.8840 hc        1 FG2      0.245000
     31 HAG         8.6630    2.1090    4.0970 hc        1 FG2      0.245000
     32 HAH         1.1980   -0.3930    2.9840 hc        1 FG2      0.174000
     33 HAI         1.9780   -1.1960    1.5620 hc        1 FG2      0.174000
     34 HAJ         9.1960    4.1570    7.7240 h4        1 FG2      0.219000
     35 HAK         4.0750    2.4050    1.7950 ha        1 FG2      0.158000
     36 HAL         6.5690    1.9170    3.3550 ha        1 FG2      0.140000
     37 HNAN        4.5640    1.2350    8.0200 hn        1 FG2      0.274500
     38 HNAO        5.3690   -1.8630    4.9180 hn        1 FG2      0.296000
     39 HAN2        5.4360    1.7530    9.3170 hn        1 FG2      0.274500
     40 CAB        10.4290    3.9580    5.2670 c3        1 FG2     -0.263000
@<TRIPOS>BOND
     1    1   15 1   
     2    1   24 1   
     3    1   25 1   
     4    1   26 1   
     5    2   16 1   
     6    3   23 1   
     7    4   23 1   
     8    5    6 1   
     9    5   17 1   
    10    5   30 1   
    11    5   31 1   
    12    6   16 1   
    13    6   19 1   
    14    7    8 1   
    15    7   18 1   
    16    7   32 1   
    17    7   33 1   
    18    8   22 1   
    19    9   12 1   
    20    9   17 1   
    21    9   34 1   
    22   10   18 1   
    23   10   21 1   
    24   10   35 1   
    25   11   20 1   
    26   11   21 1   
    27   11   36 1   
    28   12   19 1   
    29   13   23 1   
    30   13   37 1   
    31   13   39 1   
    32   14   20 1   
    33   14   22 1   
    34   14   38 1   
    35   15   18 1   
    36   16   20 1   
    37   17   40 1   
    38   19   23 1   
    39   21   22 1   
    40   27   40 1   
    41   28   40 1   
    42   29   40 1   
@<TRIPOS>SUBSTRUCTURE
     1 FG2         1 TEMP              0 ****  ****    0 ROOT
