@<TRIPOS>MOLECULE
FG2
   39    41     1     0     0
SMALL
bcc


@<TRIPOS>ATOM
      1 CAA         7.8710   -0.7870    0.2970 c3        1 FG2      0.113700
      2 OAC        -0.9180    0.0730   -1.8750 o         1 FG2     -0.556100
      3 OAD        -3.0040    2.5900    1.0070 o         1 FG2     -0.633800
      4 OAE        -3.1170    2.2590   -1.3440 o         1 FG2     -0.633800
      5 CAF        -5.0800   -1.4410   -0.5840 ca        1 FG2     -0.119000
      6 CAG        -4.4460   -0.2120   -0.7980 ca        1 FG2     -0.114300
      7 CAH         5.2520   -0.3090    1.1720 ca        1 FG2     -0.164000
      8 CAI         3.9550   -0.0430    1.5840 ca        1 FG2     -0.113000
      9 CAJ        -3.7390   -1.6710    1.4040 ca        1 FG2      0.375200
     10 CAK         4.5890   -0.3180   -1.1960 ca        1 FG2     -0.103000
     11 CAL         2.0400    0.1150   -1.5210 cc        1 FG2     -0.083200
     12 NAM        -3.1280   -0.5000    1.2090 nb        1 FG2     -0.596000
     13 NAN        -1.1240    1.4060   -0.0260 n         1 FG2     -0.669300
     14 NAO         1.6010    0.4160    0.7260 na        1 FG2     -0.171400
     15 OAP         6.8360   -0.7110   -0.6740 os        1 FG2     -0.327900
     16 CAQ        -0.3810    0.5860   -0.8790 c         1 FG2      0.725300
     17 CAR        -4.7340   -2.1960    0.5360 ca        1 FG2     -0.123600
     18 CAS         5.5630   -0.4430   -0.1980 ca        1 FG2      0.097100
     19 CAT        -3.4810    0.2340    0.1200 ca        1 FG2      0.114200
     20 CAU         1.0460    0.3590   -0.5750 cd        1 FG2     -0.153300
     21 CAV         3.2800   -0.0610   -0.7980 ca        1 FG2     -0.084800
     22 CAW         2.9620    0.0860    0.6040 ca        1 FG2     -0.063200
     23 SAX        -2.7310    1.7620   -0.0940 sy        1 FG2      1.441500
     24 HAA         7.9630    0.1750    0.8570 h1        1 FG2      0.043700
     25 HAAA        7.6900   -1.6350    1.0020 h1        1 FG2      0.043700
     26 HAAB        8.7890   -0.9750   -0.3160 h1        1 FG2      0.043700
     27 HAB        -4.5970   -4.3210    0.7200 hc        1 FG2      0.056700
     28 HABA       -5.7450   -3.5250    1.8760 hc        1 FG2      0.056700
     29 HABB       -6.2030   -3.7150    0.1300 hc        1 FG2      0.056700
     30 HAF        -5.8390   -1.8030   -1.2940 ha        1 FG2      0.150000
     31 HAG        -4.6900    0.4030   -1.6830 ha        1 FG2      0.177000
     32 HAH         6.0410   -0.4160    1.9310 ha        1 FG2      0.140000
     33 HAI         3.7180    0.0670    2.6510 ha        1 FG2      0.140000
     34 HAJ        -3.4300   -2.2370    2.3010 h4        1 FG2      0.029100
     35 HAK         4.8580   -0.4220   -2.2550 ha        1 FG2      0.158000
     36 HAL         1.9070    0.0690   -2.6000 ha        1 FG2      0.176000
     37 HNAN       -0.6030    1.8210    0.7180 hn        1 FG2      0.343500
     38 HNAO        1.0750    0.1910    1.5340 hn        1 FG2      0.290700
     39 CAB        -5.3550   -3.5030    0.8270 c3        1 FG2     -0.064800
@<TRIPOS>BOND
     1    1   15 1   
     2    1   24 1   
     3    1   25 1   
     4    1   26 1   
     5    2   16 2   
     6    3   23 2   
     7    4   23 2   
     8    5    6 ar  
     9    5   17 ar  
    10    5   30 1   
    11    6   19 ar  
    12    6   31 1   
    13    7    8 ar  
    14    7   18 ar  
    15    7   32 1   
    16    8   22 ar  
    17    8   33 1   
    18    9   12 ar  
    19    9   17 ar  
    20    9   34 1   
    21   10   18 ar  
    22   10   21 ar  
    23   10   35 1   
    24   11   20 2   
    25   11   21 1   
    26   11   36 1   
    27   12   19 ar  
    28   13   16 1   
    29   13   23 1   
    30   13   37 1   
    31   14   20 1   
    32   14   22 1   
    33   14   38 1   
    34   15   18 1   
    35   16   20 1   
    36   17   39 1   
    37   19   23 1   
    38   21   22 ar  
    39   27   39 1   
    40   28   39 1   
    41   29   39 1   
@<TRIPOS>SUBSTRUCTURE
     1 FG2         1 TEMP              0 ****  ****    0 ROOT
