@<TRIPOS>MOLECULE
FG2
   40    42     1     0     0
SMALL
bcc


@<TRIPOS>ATOM
      1 CAA         0.6570    0.8310    0.5470 c3        1 FG2     -0.083000
      2 OAC         8.2420   -1.2960    5.3050 o         1 FG2     -0.188000
      3 OAD         7.2300    0.0490    9.2880 o         1 FG2     -0.898500
      4 OAE         6.0720   -0.6420    7.2850 o         1 FG2     -0.898500
      5 CAF         9.0520    1.8070    5.1910 c3        1 FG2     -0.234000
      6 CAG         8.0480    0.9940    5.8930 c2        1 FG2      0.080000
      7 CAH         2.2250   -0.5430    2.3810 c3        1 FG2     -0.213000
      8 CAI         3.0980   -1.2250    3.3360 c1        1 FG2     -0.042000
      9 CAJ         8.8660    3.3330    7.1260 c2        1 FG2     -0.151000
     10 CAK         3.8810    1.3390    2.1170 c2        1 FG2     -0.219000
     11 CAL         6.0130    0.9820    3.5680 c2        1 FG2     -0.212000
     12 NAM         7.9730    2.5450    7.7300 n2        1 FG2      0.086000
     13 NAN         5.2960    1.3600    8.4880 n8        1 FG2     -0.953000
     14 NAO         5.3480   -1.0340    4.4460 na        1 FG2     -0.046000
     15 OAP         1.8920    1.4430    0.9160 os        1 FG2     -0.198000
     16 CAQ         7.5920   -0.2600    5.2040 c2        1 FG2      0.309000
     17 CAR         9.4570    3.0390    5.8750 c2        1 FG2      0.150000
     18 CAS         2.6810    0.7560    1.8050 c2        1 FG2      0.078000
     19 CAT         7.5780    1.3840    7.1410 c2        1 FG2     -0.682000
     20 CAU         6.3580   -0.0920    4.4380 c2        1 FG2     -0.121000
     21 CAV         4.7350    0.6720    3.0340 c2        1 FG2      0.022000
     22 CAW         4.3250   -0.5890    3.6100 c2        1 FG2     -0.146000
     23 SAX         6.4630    0.3640    8.1760 s6        1 FG2      2.871000
     24 HAA        -0.0060    0.7140    1.4380 h1        1 FG2      0.095333
     25 HAAA        0.2180    1.5620   -0.1800 h1        1 FG2      0.095333
     26 HAAB        0.8370   -0.1550    0.0550 h1        1 FG2      0.095333
     27 HAB        10.0250    4.9620    5.1490 hc        1 FG2      0.155000
     28 HABA       11.3450    4.0220    5.9460 hc        1 FG2      0.155000
     29 HABB       10.7960    3.5620    4.2690 hc        1 FG2      0.155000
     30 HAF         9.9750    1.1510    5.0080 hc        1 FG2      0.245000
     31 HAG         8.6920    2.0450    4.1330 hc        1 FG2      0.245000
     32 HAH         1.2280   -0.4000    2.8980 hc        1 FG2      0.174000
     33 HAI         2.0400   -1.2830    1.5430 hc        1 FG2      0.174000
     34 HAJ         9.1400    4.2610    7.6720 h4        1 FG2      0.219000
     35 HAK         4.1870    2.2940    1.6700 ha        1 FG2      0.158000
     36 HAL         6.6220    1.8470    3.3330 ha        1 FG2      0.140000
     37 HNAN        4.4570    1.4240    7.9580 hn        1 FG2      0.274500
     38 HNAO        5.3110   -1.8330    5.0380 hn        1 FG2      0.296000
     39 HAN2        5.2940    1.9920    9.2570 hn        1 FG2      0.274500
     40 CAB        10.4490    3.9250    5.2690 c3        1 FG2     -0.263000
@<TRIPOS>BOND
     1    1   15 1   
     2    1   24 1   
     3    1   25 1   
     4    1   26 1   
     5    2   16 1   
     6    3   23 1   
     7    4   23 1   
     8    5    6 1   
     9    5   17 1   
    10    5   30 1   
    11    5   31 1   
    12    6   16 1   
    13    6   19 1   
    14    7    8 1   
    15    7   18 1   
    16    7   32 1   
    17    7   33 1   
    18    8   22 1   
    19    9   12 1   
    20    9   17 1   
    21    9   34 1   
    22   10   18 1   
    23   10   21 1   
    24   10   35 1   
    25   11   20 1   
    26   11   21 1   
    27   11   36 1   
    28   12   19 1   
    29   13   23 1   
    30   13   37 1   
    31   13   39 1   
    32   14   20 1   
    33   14   22 1   
    34   14   38 1   
    35   15   18 1   
    36   16   20 1   
    37   17   40 1   
    38   19   23 1   
    39   21   22 1   
    40   27   40 1   
    41   28   40 1   
    42   29   40 1   
@<TRIPOS>SUBSTRUCTURE
     1 FG2         1 TEMP              0 ****  ****    0 ROOT
