@<TRIPOS>MOLECULE
FG3
   45    45     1     0     0
SMALL
bcc


@<TRIPOS>ATOM
      1 C          -0.4590   -1.0980    1.1180 c2        1 FG3      0.357000
      2 N          -0.3250    0.2140    3.2610 n3        1 FG3      0.082000
      3 OXT        -0.2990   -2.3080    1.4040 o         1 FG3     -0.502000
      4 CA         -1.2210   -0.2420    2.2390 c3        1 FG3     -0.223000
      5 CAA         1.7150   -3.9910    4.3510 c3        1 FG3     -0.024000
      6 OAD        -0.9700    2.8240    1.6570 o         1 FG3     -0.280000
      7 OAE         0.9300    5.9030    3.9790 o         1 FG3     -0.867500
      8 OAF         1.0250    6.0510    1.5970 o         1 FG3     -0.867500
      9 CAH        -2.5080    6.6620    0.7660 c2        1 FG3     -0.130000
     10 CAI        -1.8500    6.0720    1.7100 c1        1 FG3      0.034000
     11 CAJ         1.5850   -2.5230    4.5980 c2        1 FG3      0.017000
     12 CAK         0.2050   -1.9930    4.3830 c3        1 FG3     -0.159000
     13 CAL        -2.1880    4.9930    4.9240 c1        1 FG3     -0.012000
     14 CAM         2.5580   -0.3310    5.2000 c1        1 FG3      0.037000
     15 CAN         1.2280    1.6510    4.3320 c1        1 FG3     -0.100000
     16 NAP        -1.9300    4.7050    3.6750 n3        1 FG3     -0.146000
     17 NAQ         0.9520    3.7560    2.6360 n4        1 FG3     -0.588000
     18 CAU        -1.6770    6.1080    5.6800 c2        1 FG3     -0.547000
     19 CAV         2.6300   -1.7330    4.9590 c2        1 FG3     -0.278000
     20 CAW        -1.1970    5.4460    2.6770 c2        1 FG3     -0.797000
     21 CAX         0.2450    1.5400    3.3350 c2        1 FG3     -0.353000
     22 CAY         1.2560    0.3180    5.0240 c3        1 FG3     -0.176000
     23 CAZ         0.2570   -0.5230    4.2050 c2        1 FG3     -0.025000
     24 SBB         0.4610    5.4870    2.7380 s6        1 FG3      2.766000
     25 O          -0.1170   -0.4620    0.1040 o         1 FG3     -0.502000
     26 HA         -2.0020   -0.9040    2.6990 h1        1 FG3      0.124000
     27 HAA        -1.7020    0.6410    1.7400 h1        1 FG3      0.124000
     28 HAAA        3.0300   -4.4050    5.7090 ho        1 FG3      0.199000
     29 HAAB        1.6710   -4.1740    3.2350 h1        1 FG3      0.128000
     30 HAAC        0.8660   -4.5370    4.8470 h1        1 FG3      0.128000
     31 HAB        -3.3100    2.2510    2.0010 ha        1 FG3      0.002500
     32 HABA       -3.4840    2.8250    1.6860 ha        1 FG3      0.002500
     33 HABB       -2.7690    6.1420   -0.1740 ha        1 FG3      0.189000
     34 HAH        -0.8280    6.7160    5.2870 ha        1 FG3      0.198000
     35 HAI        -2.8290    7.7150    0.8350 ha        1 FG3      0.189000
     36 HAJ        -0.4400   -2.2450    5.2700 hc        1 FG3      0.171000
     37 HAK        -0.2480   -2.4970    3.4670 hc        1 FG3      0.171000
     38 HAL        -2.4380    3.9300    3.2780 hn        1 FG3      0.274000
     39 HAM         3.6350   -2.1830    5.0730 ha        1 FG3      0.170000
     40 HAN         0.8610    0.4870    6.0770 hc        1 FG3      0.205000
     41 HNAQ        1.4920    3.4790    3.5110 hn        1 FG3      0.296000
     42 OAR         2.9520   -4.5330    4.7550 oh        1 FG3     -0.304000
     43 CAT        -0.0660    2.6300    2.4670 c2        1 FG3      0.390000
     44 HAQ2        1.5990    3.6360    1.8500 hn        1 FG3      0.296000
     45 CAB        -2.1190    6.4200    6.8870 c1        1 FG3      0.330000
@<TRIPOS>BOND
     1    1    3 1   
     2    1    4 1   
     3    1   25 1   
     4    2    4 1   
     5    2   21 1   
     6    2   23 1   
     7    4   26 1   
     8    4   27 1   
     9    5   11 1   
    10    5   29 1   
    11    5   30 1   
    12    5   42 1   
    13    6   43 1   
    14    7   24 1   
    15    8   24 1   
    16    9   10 1   
    17    9   33 1   
    18    9   35 1   
    19   10   20 1   
    20   11   12 1   
    21   11   19 1   
    22   12   23 1   
    23   12   36 1   
    24   12   37 1   
    25   13   16 1   
    26   13   18 1   
    27   14   19 1   
    28   14   22 1   
    29   15   21 1   
    30   15   22 1   
    31   16   20 1   
    32   16   38 1   
    33   17   24 1   
    34   17   41 1   
    35   17   43 1   
    36   17   44 1   
    37   18   34 1   
    38   18   45 1   
    39   19   39 1   
    40   20   24 1   
    41   21   43 1   
    42   22   23 1   
    43   22   40 1   
    44   28   42 1   
    45   31   32 1   
@<TRIPOS>SUBSTRUCTURE
     1 FG3         1 TEMP              0 ****  ****    0 ROOT
