@<TRIPOS>MOLECULE
FG3
   45    44     1     0     0
SMALL
bcc


@<TRIPOS>ATOM
      1 C           0.4340    0.4690    1.3610 c2        1 FG3      0.358000
      2 N           0.1860    0.4790    3.8460 n3        1 FG3      0.009000
      3 OXT         0.5900   -0.7370    1.0640 o         1 FG3     -0.505500
      4 CA         -0.5270    0.7280    2.6070 c3        1 FG3     -0.223000
      5 CAA         0.4170   -4.1690    4.8140 c2        1 FG3     -0.153000
      6 OAD         0.4210    3.3980    5.2390 o         1 FG3     -0.304000
      7 OAE         1.4640    5.8950    3.9280 o         1 FG3     -0.898000
      8 OAF         1.5400    5.5340    1.5670 o         1 FG3     -0.898000
      9 CAH        -1.9380    5.7690    0.4590 c2        1 FG3     -0.132000
     10 CAI        -1.3400    5.5950    1.5930 c1        1 FG3      0.001000
     11 CAJ         0.7520   -3.0650    4.1410 c2        1 FG3     -0.169000
     12 CAK        -0.2560   -1.9980    3.8400 c3        1 FG3     -0.154000
     13 CAL        -2.7210    5.0760    4.0250 c1        1 FG3     -0.041000
     14 CAM         2.6190   -1.5580    3.9100 c1        1 FG3     -0.086000
     15 CAN         2.5230    0.9830    4.3250 c2        1 FG3      0.067000
     16 NAP        -1.4290    5.3580    3.9780 n7        1 FG3     -0.146000
     17 NAQ         1.1110    3.5740    3.0410 ns        1 FG3     -0.845000
     18 CAU        -3.4180    5.0540    5.3060 c2        1 FG3     -0.538000
     19 CAV         2.1640   -2.9020    3.5890 c3        1 FG3      0.175000
     20 CAW        -0.7250    5.4070    2.7460 c2        1 FG3     -0.657000
     21 CAX         1.2320    1.4110    4.1850 c2        1 FG3     -0.103000
     22 CAY         2.7710   -0.3910    4.1630 c1        1 FG3     -0.182000
     23 CAZ         0.2110   -0.7070    4.4330 c2        1 FG3      0.077000
     24 SBB         0.9820    5.2070    2.8060 s6        1 FG3      2.824000
     25 O           0.9450    1.4960    0.8670 o         1 FG3     -0.505500
     26 HA         -1.4110    0.0400    2.5360 h1        1 FG3      0.130500
     27 HAA        -0.8810    1.7920    2.5930 h1        1 FG3      0.130500
     28 HAAA        1.7160   -2.4790    1.7290 ho        1 FG3      0.256000
     29 HAAB       -0.5940   -4.3380    5.2110 ha        1 FG3      0.130000
     30 HAAC        1.1310   -4.9850    4.9960 ha        1 FG3      0.130000
     31 HAB        -2.8780    5.2740    6.2520 ha        1 FG3      0.176000
     32 HABA       -5.5450    4.3910    3.4420 ha        1 FG3      0.016500
     33 HABB       -4.9400    4.5160    3.1480 ha        1 FG3      0.016500
     34 HAH        -2.3250    4.9240   -0.1330 ha        1 FG3      0.165500
     35 HAI        -2.0710    6.7680    0.0130 ha        1 FG3      0.165500
     36 HAJ        -1.2630   -2.2620    4.2650 hc        1 FG3      0.162500
     37 HAK        -0.3610   -1.9150    2.7120 hc        1 FG3      0.162500
     38 HAL        -0.8520    5.5680    4.7770 hn        1 FG3      0.201000
     39 HAM         2.8490   -3.6790    4.0450 h1        1 FG3      0.146000
     40 HAN         0.6690   -0.7710    5.4480 h4        1 FG3      0.180000
     41 HNAQ        3.3490    1.6880    4.5180 ha        1 FG3      0.196000
     42 OAR         2.2180   -3.1650    2.2040 oh        1 FG3     -0.300000
     43 CAT         0.8780    2.8750    4.2130 c2        1 FG3      0.391000
     44 HAQ2        1.3210    2.9860    2.2380 hn        1 FG3      0.311000
     45 CAB        -4.7070    4.7770    5.3900 c1        1 FG3      0.261000
@<TRIPOS>BOND
     1    1    3 1   
     2    1    4 1   
     3    1   25 1   
     4    2    4 1   
     5    2   21 1   
     6    2   23 1   
     7    4   26 1   
     8    4   27 1   
     9    5   11 1   
    10    5   29 1   
    11    5   30 1   
    12    6   43 1   
    13    7   24 1   
    14    8   24 1   
    15    9   10 1   
    16    9   34 1   
    17    9   35 1   
    18   10   20 1   
    19   11   12 1   
    20   11   19 1   
    21   12   23 1   
    22   12   36 1   
    23   12   37 1   
    24   13   16 1   
    25   13   18 1   
    26   14   19 1   
    27   14   22 1   
    28   15   21 1   
    29   15   22 1   
    30   15   41 1   
    31   16   20 1   
    32   16   38 1   
    33   17   24 1   
    34   17   43 1   
    35   17   44 1   
    36   18   31 1   
    37   18   45 1   
    38   19   39 1   
    39   19   42 1   
    40   20   24 1   
    41   21   43 1   
    42   23   40 1   
    43   28   42 1   
    44   32   33 1   
@<TRIPOS>SUBSTRUCTURE
     1 FG3         1 TEMP              0 ****  ****    0 ROOT
