@<TRIPOS>MOLECULE
FG3
   44    44     1     0     0
SMALL
bcc


@<TRIPOS>ATOM
      1 C          -1.0820   -1.2140    1.1510 c2        1 FG3      0.324000
      2 N           0.3360    0.1560    2.7510 n3        1 FG3      0.074000
      3 OXT        -0.9210   -1.6960    0.0020 o         1 FG3     -0.548500
      4 CA         -0.2910    0.1010    1.4520 c3        1 FG3     -0.178000
      5 CAA         2.0680   -4.3950    3.3020 c3        1 FG3     -0.017000
      6 OAD        -0.0010    2.9540    1.7890 o         1 FG3     -0.395000
      7 OAE         1.3270    6.0600    4.5410 o         1 FG3     -0.931000
      8 OAF         1.4540    5.7240    2.2110 o         1 FG3     -0.931000
      9 CAH        -1.7910    6.2700    0.8810 c2        1 FG3     -0.167000
     10 CAI        -1.3650    5.9920    2.0720 c1        1 FG3     -0.006000
     11 CAJ         1.8420   -3.0060    3.8050 c2        1 FG3     -0.031000
     12 CAK         0.6800   -2.3220    3.1710 c3        1 FG3     -0.138000
     13 CAL        -2.7960    5.7880    4.6780 c2        1 FG3      0.036000
     14 CAM         2.3650   -1.1460    5.3480 c1        1 FG3      0.019000
     15 CAN         1.2840    1.1050    4.6970 c1        1 FG3     -0.110000
     16 NAP        -1.5740    5.4600    4.4440 n2        1 FG3     -0.088000
     17 NAQ         0.9060    3.7700    3.7250 n         1 FG3     -0.862000
     18 CAU        -3.7700    6.4290    3.8730 c1        1 FG3     -0.165000
     19 CAV         2.6240   -2.4190    4.7440 c2        1 FG3     -0.265000
     20 CAW        -0.8710    5.6630    3.2510 c2        1 FG3     -0.666000
     21 CAX         0.7020    1.3700    3.4610 c2        1 FG3     -0.343000
     22 CAY         1.2170   -0.4010    4.8620 c3        1 FG3     -0.189000
     23 CAZ         0.6650   -0.8820    3.5100 c2        1 FG3     -0.020000
     24 SBB         0.8410    5.3550    3.4200 s6        1 FG3      2.844000
     25 O          -1.8030   -1.7010    2.0620 o         1 FG3     -0.548500
     26 HA         -1.0090    0.9650    1.3740 h1        1 FG3      0.131500
     27 HAA         0.5120    0.2340    0.6740 h1        1 FG3      0.131500
     28 HAAA        2.7650   -5.1060    4.9620 ho        1 FG3      0.201000
     29 HAAB        1.0900   -4.9530    3.2880 h1        1 FG3      0.112000
     30 HAAC        2.4820   -4.3550    2.2540 h1        1 FG3      0.112000
     31 HAB        -3.5660    4.6810    7.8110 ha        1 FG3      0.001000
     32 HABA       -5.3880    7.4420    2.6690 ha        1 FG3      0.220000
     33 HABB       -4.0780    5.1220    7.7790 ha        1 FG3      0.001000
     34 HAH        -2.0950    5.4750    0.1800 ha        1 FG3      0.156000
     35 HAI        -1.8500    7.2990    0.4990 ha        1 FG3      0.156000
     36 HAJ        -0.3040   -2.7790    3.4970 hc        1 FG3      0.172500
     37 HAK         0.7160   -2.4820    2.0510 hc        1 FG3      0.172500
     38 HAL        -3.1560    5.5240    5.7020 h4        1 FG3      0.164000
     39 HAM         3.5170   -2.9490    5.1220 ha        1 FG3      0.146000
     40 HAN         0.4150   -0.5500    5.6590 hc        1 FG3      0.202000
     41 HNAQ        1.2400    3.4530    4.6220 hn        1 FG3      0.293000
     42 OAR         3.0280   -5.1310    4.0340 oh        1 FG3     -0.323000
     43 CAT         0.4970    2.7000    2.9050 c2        1 FG3      0.439000
     44 CAB        -4.6290    6.9690    3.2370 c1        1 FG3     -0.183000
@<TRIPOS>BOND
     1    1    3 1   
     2    1    4 1   
     3    1   25 1   
     4    2    4 1   
     5    2   21 1   
     6    2   23 1   
     7    4   26 1   
     8    4   27 1   
     9    5   11 1   
    10    5   29 1   
    11    5   30 1   
    12    5   42 1   
    13    6   43 1   
    14    7   24 1   
    15    8   24 1   
    16    9   10 1   
    17    9   34 1   
    18    9   35 1   
    19   10   20 1   
    20   11   12 1   
    21   11   19 1   
    22   12   23 1   
    23   12   36 1   
    24   12   37 1   
    25   13   16 1   
    26   13   18 1   
    27   13   38 1   
    28   14   19 1   
    29   14   22 1   
    30   15   21 1   
    31   15   22 1   
    32   16   20 1   
    33   17   24 1   
    34   17   41 1   
    35   17   43 1   
    36   18   44 1   
    37   19   39 1   
    38   20   24 1   
    39   21   43 1   
    40   22   23 1   
    41   22   40 1   
    42   28   42 1   
    43   31   33 1   
    44   32   44 1   
@<TRIPOS>SUBSTRUCTURE
     1 FG3         1 TEMP              0 ****  ****    0 ROOT
