@<TRIPOS>MOLECULE
FG3
   44    46     1     0     0
SMALL
bcc


@<TRIPOS>ATOM
      1 C          -2.7150    3.4010    0.2160 c         1 FG3      0.914600
      2 N          -1.7670    1.0730    0.5360 na        1 FG3      0.047600
      3 OXT        -2.4080    3.8470   -0.9150 o         1 FG3     -0.812800
      4 CA         -1.6780    2.4560    0.9210 c3        1 FG3     -0.128700
      5 CAA        -7.1700   -2.2760    0.2470 c3        1 FG3      0.120700
      6 OAD         1.2590    1.4480    0.6830 o         1 FG3     -0.571100
      7 OAE         3.1590   -0.3700   -2.7980 o         1 FG3     -0.641800
      8 OAF         3.3840    1.6820   -1.6320 o         1 FG3     -0.641800
      9 CAH         5.2690   -0.3600    1.5680 ca        1 FG3     -0.121000
     10 CAI         4.6190    0.2940    0.5170 ca        1 FG3     -0.121300
     11 CAJ        -5.2020   -0.3580    0.8930 ca        1 FG3     -0.186000
     12 CAK        -4.2410    0.6270    0.9520 ca        1 FG3     -0.075000
     13 CAL         4.0950   -2.3590    0.9180 ca        1 FG3      0.373200
     14 CAM        -3.6070   -2.0140    0.0200 ca        1 FG3     -0.126000
     15 CAN        -1.2180   -1.0210   -0.2620 cc        1 FG3     -0.179200
     16 NAP         3.4680   -1.7430   -0.0890 nb        1 FG3     -0.587000
     17 NAQ         1.3540    0.1960   -1.2280 n         1 FG3     -0.680300
     18 CAU         5.0120   -1.7140    1.7870 ca        1 FG3     -0.140600
     19 CAV        -4.8830   -1.6640    0.4360 ca        1 FG3      0.074100
     20 CAW         3.7280   -0.4270   -0.2960 ca        1 FG3      0.137200
     21 CAX        -0.7390    0.2730    0.0300 cd        1 FG3     -0.148300
     22 CAY        -2.6060   -1.0340    0.0770 ca        1 FG3     -0.095800
     23 CAZ        -2.9250    0.2960    0.5570 ca        1 FG3     -0.051200
     24 SBB         2.9250    0.3580   -1.6150 sy        1 FG3      1.439500
     25 O          -3.7590    3.6680    0.8700 o         1 FG3     -0.812800
     26 HA         -0.6450    2.8310    0.6830 h1        1 FG3      0.060700
     27 HAA        -1.8490    2.5140    2.0320 h1        1 FG3      0.060700
     28 HAAA       -7.2620   -1.5110   -0.5610 h1        1 FG3      0.033033
     29 HAAB       -7.7100   -3.2150   -0.0340 h1        1 FG3      0.033033
     30 HAAC       -7.5720   -1.8720    1.2080 h1        1 FG3      0.033033
     31 HAB         6.5520   -1.9310    3.2720 hc        1 FG3      0.049700
     32 HABA        4.9220   -2.5780    3.7360 hc        1 FG3      0.049700
     33 HABB        5.9510   -3.4850    2.5500 hc        1 FG3      0.049700
     34 HAH         5.9670    0.1900    2.2160 ha        1 FG3      0.141000
     35 HAI         4.7860    1.3690    0.3270 ha        1 FG3      0.178000
     36 HAJ        -6.2320   -0.1270    1.1970 ha        1 FG3      0.128000
     37 HAK        -4.4710    1.6650    1.2660 ha        1 FG3      0.206000
     38 HAL         3.8560   -3.4290    1.0550 h4        1 FG3      0.023100
     39 HAM        -3.3850   -3.0270   -0.3370 ha        1 FG3      0.134000
     40 HAN        -0.6390   -1.8550   -0.6440 ha        1 FG3      0.145000
     41 HNAQ        0.7760   -0.3630   -1.8250 hn        1 FG3      0.353500
     42 OAR        -5.8230   -2.6930    0.4190 os        1 FG3     -0.347900
     43 CAT         0.6610    0.7110   -0.1170 c         1 FG3      0.743300
     44 CAB         5.6460   -2.4630    2.8890 c3        1 FG3     -0.057800
@<TRIPOS>BOND
     1    1    3 1   
     2    1    4 1   
     3    1   25 1   
     4    2    4 1   
     5    2   21 1   
     6    2   23 1   
     7    4   26 1   
     8    4   27 1   
     9    5   28 1   
    10    5   29 1   
    11    5   30 1   
    12    5   42 1   
    13    6   43 2   
    14    7   24 2   
    15    8   24 2   
    16    9   10 ar  
    17    9   18 ar  
    18    9   34 1   
    19   10   20 ar  
    20   10   35 1   
    21   11   12 ar  
    22   11   19 ar  
    23   11   36 1   
    24   12   23 ar  
    25   12   37 1   
    26   13   16 ar  
    27   13   18 ar  
    28   13   38 1   
    29   14   19 ar  
    30   14   22 ar  
    31   14   39 1   
    32   15   21 2   
    33   15   22 1   
    34   15   40 1   
    35   16   20 ar  
    36   17   24 1   
    37   17   41 1   
    38   17   43 1   
    39   18   44 1   
    40   19   42 1   
    41   20   24 1   
    42   21   43 1   
    43   22   23 ar  
    44   31   44 1   
    45   32   44 1   
    46   33   44 1   
@<TRIPOS>SUBSTRUCTURE
     1 FG3         1 TEMP              0 ****  ****    0 ROOT
