@<TRIPOS>MOLECULE
FG3
   44    37     1     0     0
SMALL
bcc


@<TRIPOS>ATOM
      1 C           0.2690    1.5930   -3.8770 c1        1 FG3      0.337000
      2 N          -0.9600    0.2540   -2.2820 n2        1 FG3     -0.066000
      3 OXT         1.4270    1.3700   -3.4310 o         1 FG3     -0.557500
      4 CA         -0.9320    1.5310   -2.9410 c1        1 FG3     -0.136000
      5 CAA        -4.7210   -4.6540   -3.7120 c3        1 FG3     -0.068000
      6 CAB         5.2750    3.0040    5.6100 c3        1 FG3     -0.179000
      7 OAD        -1.8270    0.5300    1.3550 o         1 FG3     -0.316000
      8 OAE        -0.4000    0.7110    3.4600 o         1 FG3     -0.920000
      9 OAF         1.0130   -0.9430    2.9980 o         1 FG3     -0.920000
     10 CAH         3.4880    3.2960    3.8900 c1        1 FG3     -0.066000
     11 CAI         2.4810    2.8180    3.0950 c1        1 FG3     -0.066000
     12 CAJ        -2.2620   -2.7670   -4.1300 c1        1 FG3     -0.157000
     13 CAK        -1.6150   -1.5420   -3.9820 c1        1 FG3     -0.090000
     14 CAL         3.8120    1.1010    4.7770 c1        1 FG3     -0.097000
     15 CAM        -2.7430   -2.8000   -1.7660 c1        1 FG3     -0.103000
     16 CAN        -1.8650   -0.7580   -0.5100 c1        1 FG3     -0.185000
     17 NAP         2.8070    0.6250    3.9820 n1        1 FG3     -0.083000
     18 NAQ         0.4490    0.6140    1.0490 n         1 FG3     -0.858000
     19 OAR        -3.4260   -4.6750   -3.1330 os        1 FG3     -0.233000
     20 CAT        -0.8970    0.5140    0.5690 c2        1 FG3      0.405000
     21 CAU         4.1570    2.4470    4.7310 c1        1 FG3     -0.083000
     22 CAV        -2.8250   -3.3960   -3.0210 c1        1 FG3      0.006000
     23 CAW         2.1390    1.4710    3.1430 c1        1 FG3     -0.741000
     24 CAX        -1.1660    0.3630   -0.9300 c2        1 FG3     -0.096000
     25 CAY        -2.0880   -1.5600   -1.6150 c1        1 FG3     -0.093000
     26 CAZ        -1.5310   -0.9380   -2.7100 c1        1 FG3      0.002000
     27 SBB         0.7670    0.4340    2.6640 s6        1 FG3      2.850000
     28 O           0.1110    1.9290   -5.0820 o         1 FG3     -0.557500
     29 HA         -0.8610    2.2440   -2.2700 ha        1 FG3      0.101000
     30 HAA        -1.7590    1.6510   -3.4600 ha        1 FG3      0.101000
     31 HAAA       -5.2250   -5.4430   -3.4160 h1        1 FG3      0.068667
     32 HAAB       -5.1920   -3.8410   -3.4310 h1        1 FG3      0.068667
     33 HAAC       -4.6420   -4.6640   -4.6910 h1        1 FG3      0.068667
     34 HAB         5.9290    3.4740    5.0490 hc        1 FG3      0.085333
     35 HABA        5.7190    2.2650    6.0820 hc        1 FG3      0.085333
     36 HABB        4.8960    3.6300    6.2660 hc        1 FG3      0.085333
     37 HAH         3.7100    4.2510    3.8800 ha        1 FG3      0.198500
     38 HAI         2.0020    3.4250    2.4930 ha        1 FG3      0.198500
     39 HAJ        -2.3210   -3.1870   -5.0150 ha        1 FG3      0.131000
     40 HAK        -1.2160   -1.1010   -4.7620 ha        1 FG3      0.188000
     41 HAL         4.2910    0.4920    5.3800 ha        1 FG3      0.150000
     42 HAM        -3.1400   -3.2440   -0.9850 ha        1 FG3      0.135000
     43 HAN        -2.2640   -1.2740    0.2220 DU        1 FG3      0.148000
     44 HNAQ        1.1360    0.7480    0.4590 hn        1 FG3      0.260000
@<TRIPOS>BOND
     1    1    3 1   
     2    1   28 1   
     3    2   24 1   
     4    2   26 1   
     5    4   29 1   
     6    4   30 1   
     7    5   19 1   
     8    5   31 1   
     9    5   32 1   
    10    5   33 1   
    11    6   21 1   
    12    6   34 1   
    13    6   35 1   
    14    6   36 1   
    15    7   20 1   
    16    8   27 1   
    17    9   27 1   
    18   10   11 1   
    19   10   37 1   
    20   11   38 1   
    21   12   22 1   
    22   12   39 1   
    23   13   26 1   
    24   13   40 1   
    25   14   21 1   
    26   14   41 1   
    27   15   25 1   
    28   15   42 1   
    29   16   24 1   
    30   16   25 1   
    31   17   23 1   
    32   18   20 1   
    33   18   27 1   
    34   18   44 1   
    35   19   22 1   
    36   20   24 1   
    37   23   27 1   
@<TRIPOS>SUBSTRUCTURE
     1 FG3         1 TEMP              0 ****  ****    0 ROOT
