@<TRIPOS>MOLECULE
FG4
   44    47     1     0     0
SMALL
bcc


@<TRIPOS>ATOM
      1 C          -2.1650   -2.1130    2.6990 c         1 FG4      0.914600
      2 N          -1.7290   -0.6150    0.6910 na        1 FG4      0.038600
      3 O          -2.0250   -1.5010    3.7850 o         1 FG4     -0.814300
      4 CA         -1.2310   -1.6850    1.5120 c3        1 FG4     -0.125700
      5 CAA        -7.5760   -0.4600   -1.8070 c3        1 FG4      0.120700
      6 OAC         0.5960    2.2460    0.8670 o         1 FG4     -0.554000
      7 CAE         6.7290    0.0470   -2.4790 ca        1 FG4     -0.156000
      8 CAF         7.3840    0.8200   -1.5100 ca        1 FG4     -0.123000
      9 CAG        -5.1170   -1.3340   -0.7150 ca        1 FG4     -0.181000
     10 CAH         5.4150   -0.3850   -2.3050 ca        1 FG4     -0.085000
     11 CAI         6.7520    1.1940   -0.3250 ca        1 FG4     -0.125000
     12 CAJ        -3.9900   -1.5890    0.0330 ca        1 FG4     -0.082000
     13 CAK        -4.2820    0.8660   -1.4270 ca        1 FG4     -0.118000
     14 CAL         3.4320   -0.2680   -0.5800 cc        1 FG4     -0.159200
     15 CAM        -1.9340    1.3900   -0.4380 cc        1 FG4     -0.137200
     16 CAN         2.3660    0.4920    1.7020 c3        1 FG4      0.195600
     17 OAQ         1.0890    0.0940    1.2100 os        1 FG4     -0.422900
     18 OAR         4.6150    1.0110    0.9350 os        1 FG4     -0.205200
     19 CAU        -5.2560   -0.1210   -1.4400 ca        1 FG4      0.067100
     20 CAV         3.3910    0.3640    0.6400 cd        1 FG4      0.023900
     21 CAW        -1.1080    0.6070    0.3980 cd        1 FG4     -0.133300
     22 CAX         4.7520   -0.0300   -1.1330 ca        1 FG4     -0.097800
     23 CAY        -3.1180    0.6290   -0.6820 ca        1 FG4     -0.107800
     24 CAZ         5.4420    0.7600   -0.1600 ca        1 FG4      0.062100
     25 CBA        -2.9660   -0.6120    0.0490 ca        1 FG4     -0.046200
     26 OXT        -2.9410   -3.0830    2.4830 o         1 FG4     -0.814300
     27 HA         -0.2470   -1.3820    1.9600 h1        1 FG4      0.057200
     28 HAA        -1.0800   -2.5820    0.8480 h1        1 FG4      0.057200
     29 HAAA       -8.3690    0.0920   -2.3710 h1        1 FG4      0.032367
     30 HAAB       -7.5940   -1.5440   -2.0770 h1        1 FG4      0.032367
     31 HAAC       -7.7160   -0.3350   -0.7060 h1        1 FG4      0.032367
     32 HAG        -5.9260   -2.0770   -0.7460 ha        1 FG4      0.127000
     33 HAH         4.9110   -0.9890   -3.0720 ha        1 FG4      0.137000
     34 HAI         7.2560    1.8000    0.4380 ha        1 FG4      0.145000
     35 HAJ        -3.8750   -2.5080    0.6420 ha        1 FG4      0.206000
     36 HAK        -4.4130    1.8000   -1.9870 ha        1 FG4      0.135000
     37 HAL         2.6320   -0.8370   -1.0490 ha        1 FG4      0.178000
     38 HAM        -1.6960    2.3820   -0.8080 ha        1 FG4      0.156000
     39 HAN         2.3480    1.5410    2.1050 h1        1 FG4      0.092200
     40 HANA        2.5790   -0.2410    2.5300 h1        1 FG4      0.092200
     41 OAP        -6.3620    0.1320   -2.2490 os        1 FG4     -0.347900
     42 CAT         0.1990    1.0770    0.8370 c         1 FG4      0.684300
     43 HAE         7.2670   -0.2240   -3.3990 ha        1 FG4      0.125000
     44 HAF         8.4210    1.1390   -1.6900 ha        1 FG4      0.126000
@<TRIPOS>BOND
     1    1    3 1   
     2    1    4 1   
     3    1   26 1   
     4    2    4 1   
     5    2   21 1   
     6    2   25 1   
     7    4   27 1   
     8    4   28 1   
     9    5   29 1   
    10    5   30 1   
    11    5   31 1   
    12    5   41 1   
    13    6   42 2   
    14    7    8 ar  
    15    7   10 ar  
    16    7   43 1   
    17    8   11 ar  
    18    8   44 1   
    19    9   12 ar  
    20    9   19 ar  
    21    9   32 1   
    22   10   22 ar  
    23   10   33 1   
    24   11   24 ar  
    25   11   34 1   
    26   12   25 ar  
    27   12   35 1   
    28   13   19 ar  
    29   13   23 ar  
    30   13   36 1   
    31   14   20 2   
    32   14   22 1   
    33   14   37 1   
    34   15   21 2   
    35   15   23 1   
    36   15   38 1   
    37   16   17 1   
    38   16   20 1   
    39   16   39 1   
    40   16   40 1   
    41   17   42 1   
    42   18   20 1   
    43   18   24 1   
    44   19   41 1   
    45   21   42 1   
    46   22   24 ar  
    47   23   25 ar  
@<TRIPOS>SUBSTRUCTURE
     1 FG4         1 TEMP              0 ****  ****    0 ROOT
