@<TRIPOS>MOLECULE
FG4
   44    47     1     0     0
SMALL
bcc


@<TRIPOS>ATOM
      1 C          -0.1540   -0.5370   -0.4180 c2        1 FG4      0.328000
      2 N           0.1740   -0.2770    2.1020 n3        1 FG4     -0.093000
      3 O           0.8390   -1.3010   -0.5020 o         1 FG4     -0.549500
      4 CA         -0.7430   -0.2030    0.9940 c3        1 FG4     -0.144000
      5 CAA         2.4970   -3.5060    6.8380 c3        1 FG4     -0.045000
      6 OAC         2.1640    2.8440    1.9060 o         1 FG4     -0.362000
      7 CAE        -4.7390    4.2350   -2.8560 ca        1 FG4     -0.167000
      8 CAF        -4.7970    5.5030   -2.2620 ca        1 FG4     -0.121000
      9 CAG         0.1760   -3.4120    4.0540 c2        1 FG4      0.024000
     10 CAH        -3.7630    3.3050   -2.5010 ca        1 FG4     -0.068000
     11 CAI        -3.8810    5.8970   -1.2870 ca        1 FG4     -0.139000
     12 CAJ        -0.2020   -2.6080    2.9750 c2        1 FG4     -0.279000
     13 CAK         2.1110   -1.9930    4.6520 c1        1 FG4     -0.220000
     14 CAL        -1.6950    3.0080   -0.9070 c2        1 FG4     -0.126000
     15 CAM         2.1630    0.1780    3.2130 c2        1 FG4     -0.092000
     16 CAN        -0.0260    3.8800    0.9200 c3        1 FG4      0.056000
     17 OAQ        -0.0240    2.5820    1.5420 os        1 FG4     -0.255000
     18 OAR        -1.8990    5.1290    0.0050 os        1 FG4     -0.130000
     19 CAU         1.2520   -3.0590    4.8870 c2        1 FG4     -0.127000
     20 CAV        -1.1720    3.9070   -0.0110 c2        1 FG4     -0.058000
     21 CAW         1.1880    0.6930    2.3890 c2        1 FG4     -0.056000
     22 CAX        -2.8320    3.6630   -1.5310 ca        1 FG4     -0.092000
     23 CAY         1.9020   -1.2840    3.3950 c3        1 FG4     -0.097000
     24 CAZ        -2.9110    4.9630   -0.9370 ca        1 FG4      0.018000
     25 CBA         0.5360   -1.4490    2.7300 c2        1 FG4      0.112000
     26 OXT        -0.7690   -0.0070   -1.3840 o         1 FG4     -0.549500
     27 HA         -1.5680   -0.9430    1.1910 h1        1 FG4      0.107500
     28 HAA        -1.1830    0.8310    0.9600 h1        1 FG4      0.107500
     29 HAAA        2.3700   -2.4650    7.2190 h1        1 FG4      0.068000
     30 HAAB        3.4550   -3.5800    6.2670 h1        1 FG4      0.068000
     31 HAAC        2.4670   -4.2490    7.6740 h1        1 FG4      0.068000
     32 HAG        -0.4110   -4.3170    4.2790 ha        1 FG4      0.129000
     33 HAH        -3.7220    2.3110   -2.9700 ha        1 FG4      0.153000
     34 HAI        -3.9190    6.8870   -0.8180 ha        1 FG4      0.138000
     35 HAJ        -1.0850   -2.8590    2.3750 ha        1 FG4      0.147000
     36 HAK         2.6460   -1.8270    2.7040 hc        1 FG4      0.213000
     37 HAL        -1.3440    1.9850   -1.1210 ha        1 FG4      0.244000
     38 HAM         3.0150    0.7000    3.6420 ha        1 FG4      0.177000
     39 HAN        -0.1370    4.6460    1.7330 h1        1 FG4      0.112500
     40 HANA        0.9370    4.0480    0.3650 h1        1 FG4      0.112500
     41 OAP         1.3970   -3.8740    6.0160 os        1 FG4     -0.239000
     42 CAT         1.1910    2.0830    1.9260 c2        1 FG4      0.382000
     43 HAE        -5.4840    3.9690   -3.6200 ha        1 FG4      0.123000
     44 HAF        -5.5850    6.2060   -2.5710 ha        1 FG4      0.121000
@<TRIPOS>BOND
     1    1    3 1   
     2    1    4 1   
     3    1   26 1   
     4    2    4 1   
     5    2   21 1   
     6    2   25 1   
     7    4   27 1   
     8    4   28 1   
     9    5   29 1   
    10    5   30 1   
    11    5   31 1   
    12    5   41 1   
    13    6   42 1   
    14    7    8 1   
    15    7   10 1   
    16    7   43 1   
    17    8   11 1   
    18    8   44 1   
    19    9   12 1   
    20    9   19 1   
    21    9   32 1   
    22   10   22 1   
    23   10   33 1   
    24   11   24 1   
    25   11   34 1   
    26   12   25 1   
    27   12   35 1   
    28   13   19 1   
    29   13   23 1   
    30   14   20 1   
    31   14   22 1   
    32   14   37 1   
    33   15   21 1   
    34   15   23 1   
    35   15   38 1   
    36   16   17 1   
    37   16   20 1   
    38   16   39 1   
    39   16   40 1   
    40   17   42 1   
    41   18   20 1   
    42   18   24 1   
    43   19   41 1   
    44   21   42 1   
    45   22   24 1   
    46   23   25 1   
    47   23   36 1   
@<TRIPOS>SUBSTRUCTURE
     1 FG4         1 TEMP              0 ****  ****    0 ROOT
