@<TRIPOS>MOLECULE
FG4
   44    47     1     0     0
SMALL
bcc


@<TRIPOS>ATOM
      1 C          -0.1710   -0.5460   -0.4140 c2        1 FG4      0.328000
      2 N           0.1710   -0.2790    2.1030 n3        1 FG4     -0.093000
      3 O           0.8160   -1.3160   -0.5010 o         1 FG4     -0.549500
      4 CA         -0.7510   -0.2040    0.9990 c3        1 FG4     -0.144000
      5 CAA         2.4980   -3.5040    6.8390 c3        1 FG4     -0.045000
      6 OAC         2.1780    2.8300    1.8850 o         1 FG4     -0.362000
      7 CAE        -4.7420    4.2440   -2.8460 ca        1 FG4     -0.167000
      8 CAF        -4.7890    5.5150   -2.2560 ca        1 FG4     -0.121000
      9 CAG         0.1640   -3.4060    4.0670 c2        1 FG4      0.024000
     10 CAH        -3.7690    3.3100   -2.4930 ca        1 FG4     -0.068000
     11 CAI        -3.8650    5.9070   -1.2880 ca        1 FG4     -0.139000
     12 CAJ        -0.2150   -2.6040    2.9870 c2        1 FG4     -0.279000
     13 CAK         2.1110   -1.9970    4.6490 c1        1 FG4     -0.220000
     14 CAL        -1.6940    3.0060   -0.9090 c2        1 FG4     -0.126000
     15 CAM         2.1670    0.1690    3.2030 c2        1 FG4     -0.092000
     16 CAN        -0.0110    3.8750    0.9070 c3        1 FG4      0.056000
     17 OAQ        -0.0130    2.5790    1.5330 os        1 FG4     -0.255000
     18 OAR        -1.8820    5.1320   -0.0030 os        1 FG4     -0.130000
     19 CAU         1.2460   -3.0560    4.8920 c2        1 FG4     -0.127000
     20 CAV        -1.1610    3.9060   -0.0180 c2        1 FG4     -0.058000
     21 CAW         1.1920    0.6870    2.3820 c2        1 FG4     -0.056000
     22 CAX        -2.8300    3.6670   -1.5300 ca        1 FG4     -0.092000
     23 CAY         1.8990   -1.2900    3.3910 c3        1 FG4     -0.097000
     24 CAZ        -2.9000    4.9690   -0.9400 ca        1 FG4      0.018000
     25 CBA         0.5280   -1.4500    2.7330 c2        1 FG4      0.112000
     26 OXT        -0.7880   -0.0150   -1.3790 o         1 FG4     -0.549500
     27 HA         -1.5800   -0.9370    1.2030 h1        1 FG4      0.107500
     28 HAA        -1.1850    0.8330    0.9630 h1        1 FG4      0.107500
     29 HAAA        2.3790   -2.4600    7.2170 h1        1 FG4      0.068000
     30 HAAB        3.4520   -3.5860    6.2640 h1        1 FG4      0.068000
     31 HAAC        2.4680   -4.2440    7.6780 h1        1 FG4      0.068000
     32 HAG        -0.4270   -4.3070    4.2980 ha        1 FG4      0.129000
     33 HAH        -3.7350    2.3140   -2.9590 ha        1 FG4      0.153000
     34 HAI        -3.8960    6.8980   -0.8220 ha        1 FG4      0.138000
     35 HAJ        -1.1030   -2.8520    2.3910 ha        1 FG4      0.147000
     36 HAK         2.6360   -1.8410    2.6990 hc        1 FG4      0.213000
     37 HAL        -1.3500    1.9810   -1.1210 ha        1 FG4      0.244000
     38 HAM         3.0250    0.6880    3.6250 ha        1 FG4      0.177000
     39 HAN        -0.1130    4.6450    1.7170 h1        1 FG4      0.112500
     40 HANA        0.9500    4.0360    0.3470 h1        1 FG4      0.112500
     41 OAP         1.3920   -3.8680    6.0240 os        1 FG4     -0.239000
     42 CAT         1.2000    2.0750    1.9130 c2        1 FG4      0.382000
     43 HAE        -5.4920    3.9800   -3.6060 ha        1 FG4      0.123000
     44 HAF        -5.5740    6.2210   -2.5640 ha        1 FG4      0.121000
@<TRIPOS>BOND
     1    1    3 1   
     2    1    4 1   
     3    1   26 1   
     4    2    4 1   
     5    2   21 1   
     6    2   25 1   
     7    4   27 1   
     8    4   28 1   
     9    5   29 1   
    10    5   30 1   
    11    5   31 1   
    12    5   41 1   
    13    6   42 1   
    14    7    8 1   
    15    7   10 1   
    16    7   43 1   
    17    8   11 1   
    18    8   44 1   
    19    9   12 1   
    20    9   19 1   
    21    9   32 1   
    22   10   22 1   
    23   10   33 1   
    24   11   24 1   
    25   11   34 1   
    26   12   25 1   
    27   12   35 1   
    28   13   19 1   
    29   13   23 1   
    30   14   20 1   
    31   14   22 1   
    32   14   37 1   
    33   15   21 1   
    34   15   23 1   
    35   15   38 1   
    36   16   17 1   
    37   16   20 1   
    38   16   39 1   
    39   16   40 1   
    40   17   42 1   
    41   18   20 1   
    42   18   24 1   
    43   19   41 1   
    44   21   42 1   
    45   22   24 1   
    46   23   25 1   
    47   23   36 1   
@<TRIPOS>SUBSTRUCTURE
     1 FG4         1 TEMP              0 ****  ****    0 ROOT
