@<TRIPOS>MOLECULE
FG4
   44    37     1     0     0
SMALL
bcc


@<TRIPOS>ATOM
      1 C          -2.8380    0.8870   -1.6520 c1        1 FG4      0.337000
      2 N          -1.4580   -1.0840   -1.4910 n2        1 FG4     -0.059000
      3 O          -3.9650    0.3650   -1.4460 o         1 FG4     -0.553000
      4 CA         -1.7290    0.0690   -2.2960 c1        1 FG4     -0.135000
      5 CAA        -3.1860   -7.3460   -1.0540 c3        1 FG4     -0.069000
      6 OAC         1.0540   -1.2410    1.1140 o         1 FG4     -0.366000
      7 CAE         4.5380    6.3480    2.5900 c1        1 FG4     -0.126333
      8 CAF         3.8290    6.8900    1.5220 c1        1 FG4     -0.126333
      9 CAG        -2.9720   -4.3690   -2.5410 c1        1 FG4     -0.126333
     10 CAH         4.2860    5.0460    3.0020 c1        1 FG4     -0.126333
     11 CAI         2.8680    6.1290    0.8670 c1        1 FG4     -0.126333
     12 CAJ        -2.6050   -3.0350   -2.6750 c1        1 FG4     -0.126333
     13 CAK        -2.0550   -4.3980   -0.3120 c1        1 FG4     -0.117000
     14 CAL         2.8910    2.9620    2.5100 c1        1 FG4     -0.128000
     15 CAM        -1.0200   -2.1810    0.4010 c1        1 FG4     -0.149000
     16 CAN         1.8630    1.3040    0.9300 c3        1 FG4      0.054000
     17 OAP        -2.3220   -6.2690   -0.7540 os        1 FG4     -0.231000
     18 OAQ         0.5060    0.9420    0.7170 os        1 FG4     -0.266000
     19 OAR         1.7510    3.8290    0.7950 os        1 FG4     -0.132000
     20 CAT         0.3000   -0.4520    0.5690 c2        1 FG4      0.386000
     21 CAU        -2.6970   -5.0510   -1.3590 c1        1 FG4      0.022000
     22 CAV         1.9260    2.6940    1.5510 c2        1 FG4     -0.078000
     23 CAW        -0.8830   -0.9670   -0.2500 c2        1 FG4     -0.082000
     24 CAX         3.3120    4.2740    2.3390 c1        1 FG4     -0.087000
     25 CAY        -1.6830   -3.0480   -0.4470 c1        1 FG4     -0.095000
     26 CAZ         2.6110    4.8100    1.2840 c1        1 FG4      0.016000
     27 CBA        -1.9550   -2.3730   -1.6150 c1        1 FG4     -0.003000
     28 OXT        -2.6530    2.1110   -1.3970 o         1 FG4     -0.553000
     29 HA         -2.0100   -0.2160   -3.1910 ha        1 FG4      0.099500
     30 HAA        -0.9170    0.6180   -2.3660 ha        1 FG4      0.099500
     31 HAAA       -4.0990   -7.1210   -0.7740 h1        1 FG4      0.072000
     32 HAAB       -3.1720   -7.5170   -2.0200 h1        1 FG4      0.072000
     33 HAAC       -2.8860   -8.1500   -0.5750 h1        1 FG4      0.072000
     34 HAE         5.2170    6.8840    3.0490 ha        1 FG4      0.144000
     35 HAF         4.0080    7.8090    1.2310 ha        1 FG4      0.144000
     36 HAG        -3.4310   -4.8270   -3.2740 ha        1 FG4      0.144000
     37 HAH         4.7850    4.6650    3.7540 ha        1 FG4      0.144000
     38 HAI         2.3690    6.5110    0.1150 ha        1 FG4      0.144000
     39 HAJ        -2.7790   -2.5620   -3.5140 ha        1 FG4      0.144000
     40 HAK        -1.9170   -4.8600    0.5420 ha        1 FG4      0.135000
     41 HAL         3.1950    2.3460    3.2080 DU        1 FG4      0.200500
     42 HAM        -0.7020   -2.3890    1.3030 DU        1 FG4      0.200500
     43 HAN         2.3400    1.3070    0.0720 h1        1 FG4      0.116500
     44 HANA        2.2840    0.6560    1.5360 h1        1 FG4      0.116500
@<TRIPOS>BOND
     1    1    3 1   
     2    1   28 1   
     3    2   23 1   
     4    2   27 1   
     5    4   29 1   
     6    4   30 1   
     7    5   17 1   
     8    5   31 1   
     9    5   32 1   
    10    5   33 1   
    11    6   20 1   
    12    7   10 1   
    13    7   34 1   
    14    8   11 1   
    15    8   35 1   
    16    9   12 1   
    17    9   36 1   
    18   10   37 1   
    19   11   38 1   
    20   12   39 1   
    21   13   21 1   
    22   13   40 1   
    23   14   22 1   
    24   14   24 1   
    25   15   23 1   
    26   15   25 1   
    27   16   18 1   
    28   16   22 1   
    29   16   43 1   
    30   16   44 1   
    31   17   21 1   
    32   18   20 1   
    33   19   22 1   
    34   19   26 1   
    35   20   23 1   
    36   24   26 1   
    37   25   27 1   
@<TRIPOS>SUBSTRUCTURE
     1 FG4         1 TEMP              0 ****  ****    0 ROOT
