@<TRIPOS>MOLECULE
FG5
   46    38     1     0     0
SMALL
bcc


@<TRIPOS>ATOM
      1 C           3.4230   -2.2160    0.7910 c1        1 FG5      0.332000
      2 N           1.8110   -1.9580   -0.9630 n2        1 FG5     -0.107000
      3 OXT         4.6650   -2.2990    1.2740 os        1 FG5     -0.521000
      4 CA          3.1930   -1.9990   -0.7170 c2        1 FG5     -0.115000
      5 CAA        -2.0420   -7.3480   -1.5730 c3        1 FG5     -0.069000
      6 OAC         2.2660    2.7430    0.7650 o         1 FG5     -0.550900
      7 OAD         1.5540    3.4340   -1.2220 o         1 FG5     -0.550900
      8 CAF        -2.5580    6.8580    3.2790 c1        1 FG5     -0.118750
      9 CAG        -2.4740    7.5750    2.0830 c1        1 FG5     -0.118750
     10 CAH         0.6170   -5.6250   -1.2380 c1        1 FG5     -0.186000
     11 CAI        -1.9480    5.6100    3.3800 c1        1 FG5     -0.118750
     12 CAJ        -1.7930    7.0470    1.0140 c1        1 FG5     -0.118750
     13 CAK         1.5580   -4.5630   -1.0550 c1        1 FG5     -0.089000
     14 CAL        -1.1610   -4.0030   -1.5310 c1        1 FG5     -0.117000
     15 CAM        -0.3500   -1.5090   -1.3400 c1        1 FG5     -0.217000
     16 CAN        -0.6330    3.8500    2.0990 c1        1 FG5     -0.067000
     17 CAO         0.9440    0.5600   -1.4200 c3        1 FG5      0.052000
     18 NAQ         0.4870    1.2970   -0.2900 n3        1 FG5     -0.898000
     19 OAR        -1.9450   -5.9600   -1.9210 os        1 FG5     -0.230000
     20 OAS        -0.5030    4.9940    0.2020 os        1 FG5     -0.068000
     21 CAU        -0.7390   -5.3280   -1.4750 c1        1 FG5      0.021000
     22 CAV         0.8940   -0.9400   -1.1040 c2        1 FG5     -0.054000
     23 CAW        -0.1730    3.8090    0.8110 c1        1 FG5     -0.344000
     24 CAX        -1.2600    5.0810    2.2940 c1        1 FG5     -0.067000
     25 CAY        -0.1950   -2.9180   -1.3440 c1        1 FG5     -0.068000
     26 CAZ        -1.1790    5.7830    1.1260 c1        1 FG5     -0.344000
     27 CBA         1.1190   -3.2000   -1.1140 c1        1 FG5     -0.017000
     28 SBC         1.0740    2.8000    0.0030 s4        1 FG5      2.085800
     29 O           2.3980   -2.4660    1.5730 o         1 FG5     -0.594000
     30 HA          3.6360   -1.0860   -1.0190 ha        1 FG5      0.089000
     31 HAA         3.6000   -2.7520   -1.2310 ha        1 FG5      0.089000
     32 HAAA       -1.7460   -7.4730   -0.6550 h1        1 FG5      0.071000
     33 HAAB       -2.9450   -7.6350   -1.6540 h1        1 FG5      0.071000
     34 HAAC       -1.4670   -7.8840   -2.1860 h1        1 FG5      0.071000
     35 HAF        -3.0400    7.2280    4.0350 ha        1 FG5      0.135500
     36 HAG        -2.9760    8.3500    1.9720 ha        1 FG5      0.135500
     37 HAH         0.9280   -6.5990   -1.2010 ha        1 FG5      0.124000
     38 HAI        -1.9910    5.1150    4.2100 ha        1 FG5      0.135500
     39 HAJ        -1.7300    7.5660    0.1460 ha        1 FG5      0.135500
     40 HAK         2.4530   -4.7550   -0.8970 ha        1 FG5      0.164000
     41 HAL        -2.1390   -3.7860   -1.7240 ha        1 FG5      0.137000
     42 HAM        -1.2050   -1.0120   -1.4830 DU        1 FG5      0.195000
     43 HAN        -0.5380    3.1390    2.7660 DU        1 FG5      0.195000
     44 HAO         1.8650    0.8160   -1.6280 h1        1 FG5      0.102000
     45 HAOA        0.4170    0.7360   -2.1260 h1        1 FG5      0.102000
     46 HNAQ       -0.1700    0.9210    0.2900 hn        1 FG5      0.303000
@<TRIPOS>BOND
     1    1    4 1   
     2    1   29 1   
     3    2   22 1   
     4    2   27 1   
     5    4   30 1   
     6    4   31 1   
     7    5   19 1   
     8    5   32 1   
     9    5   33 1   
    10    5   34 1   
    11    6   28 1   
    12    7   28 1   
    13    8   11 1   
    14    8   35 1   
    15    9   12 1   
    16    9   36 1   
    17   10   21 1   
    18   10   37 1   
    19   11   38 1   
    20   12   39 1   
    21   13   27 1   
    22   13   40 1   
    23   14   25 1   
    24   14   41 1   
    25   15   22 1   
    26   15   25 1   
    27   16   23 1   
    28   16   24 1   
    29   17   18 1   
    30   17   22 1   
    31   17   44 1   
    32   17   45 1   
    33   18   28 1   
    34   18   46 1   
    35   19   21 1   
    36   20   23 1   
    37   20   26 1   
    38   24   26 1   
@<TRIPOS>SUBSTRUCTURE
     1 FG5         1 TEMP              0 ****  ****    0 ROOT
