@<TRIPOS>MOLECULE
FG5
   47    49     1     0     0
SMALL
bcc


@<TRIPOS>ATOM
      1 C           0.8440   -1.0840    0.7710 c2        1 FG5      0.269000
      2 N           0.8330   -0.2980    3.1790 nh        1 FG5     -0.141000
      3 OXT         1.8470   -0.5940    0.2530 o         1 FG5     -0.302000
      4 CA          0.0770   -0.5430    1.9640 c3        1 FG5     -0.102000
      5 CAA         1.3370    5.9920    4.4290 c3        1 FG5     -0.077000
      6 OAC        -2.0340   -3.7470    4.6520 o         1 FG5     -0.938000
      7 OAD        -1.2570   -3.3890    2.4060 o         1 FG5     -0.938000
      8 CAF         0.6210   -9.8960    3.3100 ca        1 FG5     -0.157000
      9 CAG         1.5890   -9.3270    2.4600 ca        1 FG5     -0.083000
     10 CAH         0.5630    3.3720    3.7770 ca        1 FG5     -0.152500
     11 CAI        -0.3270   -9.1160    3.9610 ca        1 FG5     -0.056000
     12 CAJ         1.6480   -7.9570    2.2300 ca        1 FG5     -0.133000
     13 CAK         0.2330    2.0590    3.4600 ca        1 FG5     -0.119500
     14 CAL         2.9010    2.7320    3.9820 ca        1 FG5     -0.152500
     15 CAM         3.0420   -1.0090    4.0090 c1        1 FG5      0.159000
     16 CAN        -1.0760   -6.6090    4.2210 c2        1 FG5      0.004000
     17 NAQ         0.3300   -3.1180    4.2790 n7        1 FG5     -0.886000
     18 OAS         0.5550   -5.8010    2.8140 os        1 FG5     -0.072000
     19 CAU         1.8950    3.7110    4.0450 ca        1 FG5      0.068000
     20 CAV         1.8130   -1.2680    3.5300 c2        1 FG5     -0.311000
     21 CAW        -0.5460   -5.4720    3.6410 c2        1 FG5     -0.754000
     22 CAX        -0.2990   -7.7350    3.7540 ca        1 FG5     -0.140000
     23 CAY         2.5660    1.4270    3.6470 ca        1 FG5     -0.119500
     24 CAZ         0.6940   -7.1810    2.8880 ca        1 FG5      0.058000
     25 CBA         1.2280    1.0600    3.3950 ca        1 FG5     -0.009000
     26 SBC        -0.9870   -3.8440    3.7170 s6        1 FG5      2.890000
     27 O           0.3970   -2.2150    0.1570 oh        1 FG5     -0.299000
     28 HA         -0.7460   -1.2690    2.2340 h1        1 FG5      0.131500
     29 HAA        -0.4060    0.4170    1.6210 h1        1 FG5      0.131500
     30 HAAA        0.5740    5.7590    5.2110 h1        1 FG5      0.085000
     31 HAAB        0.8500    6.1170    3.4310 h1        1 FG5      0.085000
     32 HAAC        1.9160    6.9100    4.7040 h1        1 FG5      0.085000
     33 HAH        -0.2320    4.1300    3.8210 ha        1 FG5      0.150000
     34 HAJ         2.3960   -7.5050    1.5670 ha        1 FG5      0.160000
     35 HAK        -0.8240    1.8080    3.2760 ha        1 FG5      0.156000
     36 HAL         3.9450    3.0110    4.1900 ha        1 FG5      0.150000
     37 HAM         3.4120    0.7000    3.5610 ha        1 FG5      0.156000
     38 HAN        -1.9270   -6.6570    4.9040 ha        1 FG5      0.183000
     39 HNAQ       -0.3890   -2.5690    0.6100 ho        1 FG5      0.261000
     40 CAO         1.4470   -2.7450    3.4640 c3        1 FG5      0.050000
     41 OAR         2.3330    4.9770    4.3800 os        1 FG5     -0.207000
     42 HAF         0.6190  -10.9870    3.4560 ha        1 FG5      0.141000
     43 HAO         1.2220   -3.0090    2.3850 h1        1 FG5      0.112000
     44 HAOA        2.3560   -3.3420    3.7780 h1        1 FG5      0.112000
     45 HAG         2.3180   -9.9880    1.9650 ha        1 FG5      0.143000
     46 HAQ2        0.4210   -2.8530    5.2330 hn        1 FG5      0.261000
     47 HAI        -1.0800   -9.5690    4.6200 ha        1 FG5      0.145000
@<TRIPOS>BOND
     1    1    3 1   
     2    1    4 1   
     3    1   27 1   
     4    2    4 1   
     5    2   20 1   
     6    2   25 1   
     7    4   28 1   
     8    4   29 1   
     9    5   30 1   
    10    5   31 1   
    11    5   32 1   
    12    5   41 1   
    13    6   26 1   
    14    7   26 1   
    15    8    9 1   
    16    8   11 1   
    17    8   42 1   
    18    9   12 1   
    19    9   45 1   
    20   10   13 1   
    21   10   19 1   
    22   10   33 1   
    23   11   22 1   
    24   11   47 1   
    25   12   24 1   
    26   12   34 1   
    27   13   25 1   
    28   13   35 1   
    29   14   19 1   
    30   14   23 1   
    31   14   36 1   
    32   15   20 1   
    33   16   21 1   
    34   16   22 1   
    35   16   38 1   
    36   17   26 1   
    37   17   40 1   
    38   17   46 1   
    39   18   21 1   
    40   18   24 1   
    41   19   41 1   
    42   20   40 1   
    43   21   26 1   
    44   22   24 1   
    45   23   25 1   
    46   23   37 1   
    47   27   39 1   
    48   40   43 1   
    49   40   44 1   
@<TRIPOS>SUBSTRUCTURE
     1 FG5         1 TEMP              0 ****  ****    0 ROOT
