@<TRIPOS>MOLECULE
FG5
   47    49     1     0     0
SMALL
bcc


@<TRIPOS>ATOM
      1 C           0.3720   -1.0860    1.0960 c2        1 FG5      0.268000
      2 N           0.6840   -0.3170    3.4790 n3        1 FG5     -0.127000
      3 OXT         1.3480   -0.6170    0.5080 o         1 FG5     -0.312000
      4 CA         -0.2340   -0.6080    2.4010 c3        1 FG5     -0.098000
      5 CAA         1.5730    6.0480    3.6940 c3        1 FG5     -0.081000
      6 OAC        -2.0390   -4.1420    5.0390 o         1 FG5     -0.935500
      7 OAD        -1.5040   -3.5220    2.7800 o         1 FG5     -0.935500
      8 CAF         0.9600   -9.8920    2.8910 ca        1 FG5     -0.157000
      9 CAG         1.8120   -9.1650    2.0380 ca        1 FG5     -0.083000
     10 CAH         0.6820    3.4470    3.2430 c3        1 FG5     -0.203000
     11 CAI         0.0080   -9.2610    3.6810 ca        1 FG5     -0.057000
     12 CAJ         1.7460   -7.7800    1.9430 ca        1 FG5     -0.132000
     13 CAK         0.3060    2.0550    3.0670 c1        1 FG5     -0.103000
     14 CAL         2.7560    2.6940    4.3860 c2        1 FG5     -0.217000
     15 CAM         2.7540   -1.0950    4.5310 c1        1 FG5      0.108000
     16 CAN        -0.9130   -6.8620    4.2430 c2        1 FG5      0.003000
     17 NAQ         0.2210   -3.2800    4.5330 n3        1 FG5     -0.890000
     18 OAS         0.5370   -5.7890    2.8150 os        1 FG5     -0.072000
     19 CAU         1.9570    3.7180    3.9520 c2        1 FG5      0.062000
     20 CAV         1.5970   -1.3210    3.8800 c2        1 FG5     -0.281000
     21 CAW        -0.5200   -5.6360    3.7450 c2        1 FG5     -0.753000
     22 CAX        -0.0890   -7.8690    3.6130 ca        1 FG5     -0.140000
     23 CAY         2.3650    1.3430    4.1660 c2        1 FG5     -0.054000
     24 CAZ         0.7880   -7.1530    2.7400 ca        1 FG5      0.058000
     25 CBA         1.1580    1.0230    3.5620 c2        1 FG5     -0.081000
     26 SBC        -1.0810   -4.0640    4.0120 s6        1 FG5      2.889000
     27 O          -0.2080   -2.1350    0.4470 oh        1 FG5     -0.302000
     28 HA         -0.9630   -1.3820    2.7790 h1        1 FG5      0.153000
     29 HAA        -0.8180    0.3370    2.1640 h1        1 FG5      0.153000
     30 HAAA        0.5600    6.0220    4.1650 h1        1 FG5      0.090000
     31 HAAB        1.4910    5.9820    2.5820 h1        1 FG5      0.090000
     32 HAAC        2.1260    6.9730    3.9960 h1        1 FG5      0.090000
     33 HAH         0.7160    3.9030    2.2060 hc        1 FG5      0.173000
     34 HAJ         2.4020   -7.2040    1.2780 ha        1 FG5      0.160000
     35 HAK        -0.1760    3.9500    3.7840 hc        1 FG5      0.173000
     36 HAL         3.7060    2.8980    4.9000 ha        1 FG5      0.159000
     37 HAM         3.1170    0.5810    4.5210 ha        1 FG5      0.176000
     38 HAN        -1.7020   -7.0480    4.9740 ha        1 FG5      0.183000
     39 HNAQ       -0.9500   -2.4940    0.9640 ho        1 FG5      0.258000
     40 CAO         1.2640   -2.7940    3.6790 c3        1 FG5      0.048000
     41 OAR         2.3900    4.9960    4.2020 os        1 FG5     -0.196000
     42 HAF         1.0550  -10.9880    2.9270 ha        1 FG5      0.141000
     43 HAO         0.9690   -2.9610    2.5990 h1        1 FG5      0.114500
     44 HAOA        2.2090   -3.3890    3.8650 h1        1 FG5      0.114500
     45 HAG         2.5500   -9.7110    1.4290 ha        1 FG5      0.143000
     46 HAQ2        0.3660   -3.0860    5.4970 hn        1 FG5      0.260000
     47 HAI        -0.6550   -9.8360    4.3430 ha        1 FG5      0.145000
@<TRIPOS>BOND
     1    1    3 1   
     2    1    4 1   
     3    1   27 1   
     4    2    4 1   
     5    2   20 1   
     6    2   25 1   
     7    4   28 1   
     8    4   29 1   
     9    5   30 1   
    10    5   31 1   
    11    5   32 1   
    12    5   41 1   
    13    6   26 1   
    14    7   26 1   
    15    8    9 1   
    16    8   11 1   
    17    8   42 1   
    18    9   12 1   
    19    9   45 1   
    20   10   13 1   
    21   10   19 1   
    22   10   33 1   
    23   10   35 1   
    24   11   22 1   
    25   11   47 1   
    26   12   24 1   
    27   12   34 1   
    28   13   25 1   
    29   14   19 1   
    30   14   23 1   
    31   14   36 1   
    32   15   20 1   
    33   16   21 1   
    34   16   22 1   
    35   16   38 1   
    36   17   26 1   
    37   17   40 1   
    38   17   46 1   
    39   18   21 1   
    40   18   24 1   
    41   19   41 1   
    42   20   40 1   
    43   21   26 1   
    44   22   24 1   
    45   23   25 1   
    46   23   37 1   
    47   27   39 1   
    48   40   43 1   
    49   40   44 1   
@<TRIPOS>SUBSTRUCTURE
     1 FG5         1 TEMP              0 ****  ****    0 ROOT
