@<TRIPOS>MOLECULE
FG5
   46    49     1     0     0
SMALL
bcc


@<TRIPOS>ATOM
      1 C           0.4030   -1.0890    2.0930 c         1 FG5      0.914600
      2 N           1.8920   -0.7140    0.0700 na        1 FG5     -0.008400
      3 OXT        -0.7980   -0.9470    1.7280 o         1 FG5     -0.824300
      4 CA          1.4070   -1.6570    1.0380 c3        1 FG5     -0.107700
      5 CAA         7.4130    2.4390    0.3860 c3        1 FG5      0.121700
      6 OAC        -2.6980    0.8780   -3.7740 o         1 FG5     -0.661800
      7 OAD        -2.6250   -1.4120   -3.1240 o         1 FG5     -0.661800
      8 CAF        -5.7120    1.3970    2.3450 ca        1 FG5     -0.166000
      9 CAG        -4.6390    0.6910    2.9290 ca        1 FG5     -0.116000
     10 CAH         5.3540    0.5390    0.7650 ca        1 FG5     -0.189000
     11 CAI        -5.8040    1.5880    0.9740 ca        1 FG5     -0.086000
     12 CAJ        -3.6240    0.1350    2.1630 ca        1 FG5     -0.095000
     13 CAK         4.1940   -0.1690    1.0220 ca        1 FG5     -0.092000
     14 CAL         4.4630    1.4050   -1.3550 ca        1 FG5     -0.120000
     15 CAM         2.0520    0.5490   -1.8440 cc        1 FG5     -0.236200
     16 CAN        -4.5020    1.0350   -1.2520 cc        1 FG5     -0.018200
     17 NAQ        -0.8760    0.1570   -2.2840 n3        1 FG5     -0.909100
     18 OAS        -2.8550   -0.1470   -0.1760 os        1 FG5     -0.113200
     19 CAU         5.4830    1.3110   -0.4110 ca        1 FG5      0.067100
     20 CAV         1.2260   -0.2990   -1.0910 cd        1 FG5     -0.037300
     21 CAW        -3.3300    0.3210   -1.4190 cd        1 FG5     -0.248000
     22 CAX        -4.8010    1.0470    0.1620 ca        1 FG5     -0.159800
     23 CAY         3.2860    0.6920   -1.1220 ca        1 FG5     -0.072800
     24 CAZ        -3.7400    0.3160    0.7810 ca        1 FG5      0.112100
     25 CBA         3.1530   -0.1090    0.0800 ca        1 FG5     -0.063200
     26 SBC        -2.3800   -0.0730   -2.7710 sy        1 FG5      1.528800
     27 O           0.8470   -0.8740    3.2480 o         1 FG5     -0.824300
     28 HA          2.2920   -2.0750    1.5910 h1        1 FG5      0.047700
     29 HAA         0.8880   -2.4900    0.4850 h1        1 FG5      0.047700
     30 HAAA        6.7610    2.9100    1.1610 h1        1 FG5      0.031700
     31 HAAB        7.9840    1.5860    0.8300 h1        1 FG5      0.031700
     32 HAAC        8.1190    3.1910   -0.0480 h1        1 FG5      0.031700
     33 HAH         6.1810    0.5050    1.4870 ha        1 FG5      0.123000
     34 HAI        -6.6360    2.1510    0.5320 ha        1 FG5      0.125000
     35 HAJ        -2.7430   -0.3960    2.5770 ha        1 FG5      0.227000
     36 HAK         4.0770   -0.7500    1.9490 ha        1 FG5      0.149000
     37 HAL         4.5870    2.0170   -2.2570 ha        1 FG5      0.136000
     38 HAM         1.8210    1.0080   -2.7980 ha        1 FG5      0.143000
     39 HAN        -5.0910    1.5150   -2.0330 ha        1 FG5      0.164000
     40 HNAQ       -0.4070    1.0200   -2.4400 hn        1 FG5      0.459800
     41 CAO        -0.1700   -0.7400   -1.4010 c3        1 FG5      0.247000
     42 OAR         6.6570    1.9910   -0.7300 os        1 FG5     -0.345900
     43 HAF        -6.4880    1.8140    3.0020 ha        1 FG5      0.119000
     44 HAO        -0.7410   -0.8460   -0.4150 h1        1 FG5      0.099200
     45 HAOA       -0.1190   -1.7580   -1.8940 h1        1 FG5      0.099200
     46 HAG        -4.6050    0.5860    4.0240 ha        1 FG5      0.132000
@<TRIPOS>BOND
     1    1    3 1   
     2    1    4 1   
     3    1   27 1   
     4    2    4 1   
     5    2   20 1   
     6    2   25 1   
     7    4   28 1   
     8    4   29 1   
     9    5   30 1   
    10    5   31 1   
    11    5   32 1   
    12    5   42 1   
    13    6   26 2   
    14    7   26 2   
    15    8    9 ar  
    16    8   11 ar  
    17    8   43 1   
    18    9   12 ar  
    19    9   46 1   
    20   10   13 ar  
    21   10   19 ar  
    22   10   33 1   
    23   11   22 ar  
    24   11   34 1   
    25   12   24 ar  
    26   12   35 1   
    27   13   25 ar  
    28   13   36 1   
    29   14   19 ar  
    30   14   23 ar  
    31   14   37 1   
    32   15   20 2   
    33   15   23 1   
    34   15   38 1   
    35   16   21 2   
    36   16   22 1   
    37   16   39 1   
    38   17   26 1   
    39   17   40 1   
    40   17   41 1   
    41   18   21 1   
    42   18   24 1   
    43   19   42 1   
    44   20   41 1   
    45   21   26 1   
    46   22   24 ar  
    47   23   25 ar  
    48   41   44 1   
    49   41   45 1   
@<TRIPOS>SUBSTRUCTURE
     1 FG5         1 TEMP              0 ****  ****    0 ROOT
