@<TRIPOS>MOLECULE
FG6
   46    48     1     0     0
SMALL
bcc


@<TRIPOS>ATOM
      1 C          -0.2050   -0.1160   -0.0770 c2        1 FG6      0.329000
      2 N          -0.4610   -1.7240    1.7660 n3        1 FG6     -0.148000
      3 OXT        -1.2320    0.6640    0.4370 os        1 FG6     -0.272000
      4 CA          0.4330   -1.2070    0.7480 c3        1 FG6     -0.090000
      5 CAA         2.8120   -0.4750    7.0320 c3        1 FG6     -0.081000
      6 OAC        -2.4520    1.3420    2.0970 o         1 FG6     -0.325000
      7 OAD         0.1990    2.3130    2.1330 o         1 FG6     -0.929500
      8 OAE         0.8360    4.6210    1.8390 o         1 FG6     -0.929500
      9 CAG        -1.2260    7.5190    6.4130 ca        1 FG6     -0.207000
     10 CAH        -2.0620    8.0820    5.4360 ca        1 FG6     -0.032000
     11 CAI         1.7010   -4.6010    2.4110 c2        1 FG6     -0.118000
     12 CAJ        -0.6670    6.2560    6.2430 ca        1 FG6      0.023000
     13 CAK        -2.3730    7.4090    4.2550 ca        1 FG6     -0.184000
     14 CAL         0.9010   -3.5950    2.5740 c1        1 FG6     -0.189000
     15 CAM         0.4110   -2.0080    5.1740 c1        1 FG6     -0.217000
     16 CAN        -0.5360    4.2560    4.6060 c1        1 FG6      0.041000
     17 CAO        -1.3270   -0.9710    3.8000 c2        1 FG6     -0.082000
     18 NAQ        -1.1700    3.7400    0.7010 n8        1 FG6     -0.948000
     19 OAS        -1.9850    5.3260    3.0000 os        1 FG6     -0.176000
     20 CAV         1.2100   -1.8240    6.0430 c1        1 FG6     -0.008000
     21 CAW        -1.2320    4.0930    3.2950 c3        1 FG6     -0.711000
     22 CAX        -1.1930   -0.7040    2.4740 c2        1 FG6     -0.106000
     23 CAY        -0.9560    5.5440    5.0760 ca        1 FG6     -0.254000
     24 CAZ        -0.5450   -2.2290    4.1380 c3        1 FG6      0.098000
     25 CBA        -1.8110    6.1440    4.0920 ca        1 FG6      0.122000
     26 CBB         0.0840   -2.5950    2.7790 c2        1 FG6      0.016000
     27 SBD        -0.1750    3.6580    1.9250 s6        1 FG6      2.851000
     28 O           0.1010    0.2180   -1.2160 o         1 FG6     -0.271000
     29 HA          1.3890   -0.7780    1.1720 h1        1 FG6      0.138500
     30 HAA         0.7000   -2.0630    0.0630 h1        1 FG6      0.138500
     31 HAAA        2.1200    0.3970    7.0970 h1        1 FG6      0.096667
     32 HAAB        3.4350   -0.4210    6.1090 h1        1 FG6      0.096667
     33 HAAC        3.4480   -0.5610    7.9480 h1        1 FG6      0.096667
     34 HAI         2.7930   -4.5080    2.5210 ha        1 FG6      0.134500
     35 HAK        -3.0250    7.8480    3.4900 ha        1 FG6      0.156000
     36 HAL         1.3350   -5.6080    2.1580 ha        1 FG6      0.134500
     37 HAM        -1.2540   -3.0540    4.4400 hc        1 FG6      0.145000
     38 HAN        -2.0110    3.2850    3.4390 h2        1 FG6      0.215000
     39 HAO        -1.8850   -0.4050    4.5460 ha        1 FG6      0.179000
     40 HNAQ       -1.6740    2.9470    0.3670 hn        1 FG6      0.264000
     41 OAR         2.0610   -1.7090    7.0510 os        1 FG6     -0.114000
     42 CAU        -1.6760    0.4580    1.7330 c2        1 FG6      0.421000
     43 HAG        -1.0100    8.0930    7.3260 ha        1 FG6      0.142000
     44 HAH        -2.4840    9.0850    5.6060 ha        1 FG6      0.140000
     45 HAQ2       -1.4200    4.5770    0.2350 hn        1 FG6      0.264000
     46 HAJ        -0.0080    5.8150    7.0070 ha        1 FG6      0.153000
@<TRIPOS>BOND
     1    1    3 1   
     2    1    4 1   
     3    1   28 1   
     4    2    4 1   
     5    2   22 1   
     6    2   26 1   
     7    3   42 1   
     8    4   29 1   
     9    4   30 1   
    10    5   31 1   
    11    5   32 1   
    12    5   33 1   
    13    5   41 1   
    14    6   42 1   
    15    7   27 1   
    16    8   27 1   
    17    9   10 1   
    18    9   12 1   
    19    9   43 1   
    20   10   13 1   
    21   10   44 1   
    22   11   14 1   
    23   11   34 1   
    24   11   36 1   
    25   12   23 1   
    26   12   46 1   
    27   13   25 1   
    28   13   35 1   
    29   14   26 1   
    30   15   20 1   
    31   15   24 1   
    32   16   21 1   
    33   16   23 1   
    34   17   22 1   
    35   17   24 1   
    36   17   39 1   
    37   18   27 1   
    38   18   40 1   
    39   18   45 1   
    40   19   21 1   
    41   19   25 1   
    42   20   41 1   
    43   21   27 1   
    44   21   38 1   
    45   22   42 1   
    46   23   25 1   
    47   24   26 1   
    48   24   37 1   
@<TRIPOS>SUBSTRUCTURE
     1 FG6         1 TEMP              0 ****  ****    0 ROOT
