@<TRIPOS>MOLECULE
FG6
   45    37     1     0     0
SMALL
bcc


@<TRIPOS>ATOM
      1 C           4.3870    2.2820   -0.3520 c1        1 FG6      0.338000
      2 N           2.1180    2.1650    0.7210 n2        1 FG6     -0.092000
      3 OXT         5.6340    2.3050   -0.3500 o         1 FG6     -0.559000
      4 CA          3.6050    2.3030    0.9980 c1        1 FG6     -0.121000
      5 CAA        -2.1850    7.0640    0.8990 c3        1 FG6     -0.069000
      6 OAC         2.9710   -0.6160    0.2320 o         1 FG6     -0.344000
      7 OAD         1.7640   -2.4800   -2.0500 o         1 FG6     -0.532900
      8 OAE         2.3820   -3.3590   -0.0830 o         1 FG6     -0.532900
      9 CAG        -3.7460   -6.8060   -1.2410 c1        1 FG6     -0.138000
     10 CAH        -2.7890   -7.7200   -0.7950 c1        1 FG6     -0.138000
     11 CAI         0.5760    5.5890    1.0160 c1        1 FG6     -0.177000
     12 CAJ        -3.3970   -5.4610   -1.4330 c1        1 FG6     -0.049000
     13 CAK        -1.5030   -7.3010   -0.5430 c1        1 FG6     -0.143000
     14 CAL         1.6040    4.6480    1.0100 c1        1 FG6     -0.093000
     15 CAM        -1.0450    3.8300    0.6610 c1        1 FG6     -0.110000
     16 CAN        -1.4840   -3.7790   -1.2240 c1        1 FG6      0.010000
     17 CAO         0.0090    1.5180    0.4440 c1        1 FG6     -0.164000
     18 NAQ         0.7930   -1.4020    0.0180 n         1 FG6     -0.873000
     19 OAR        -2.0740    5.6530    0.9630 os        1 FG6     -0.227000
     20 OAS         0.0490   -5.2460   -0.5090 os        1 FG6     -0.066000
     21 CAU         1.7790   -0.3460    0.2340 c2        1 FG6      0.404000
     22 CAV        -0.7510    5.1780    0.8410 c1        1 FG6      0.021000
     23 CAW        -0.1640   -3.9180   -0.8100 c1        1 FG6     -0.743000
     24 CAX         1.3230    1.0830    0.4860 c2        1 FG6     -0.069000
     25 CAY        -2.0860   -5.0370   -1.1760 c1        1 FG6     -0.131000
     26 CAZ         0.0050    2.8700    0.6560 c1        1 FG6     -0.079000
     27 CBA        -1.1460   -5.9400   -0.7360 c1        1 FG6      0.050000
     28 CBB         1.3080    3.2760    0.8270 c1        1 FG6     -0.008000
     29 SBD         1.2310   -2.7560   -0.7290 s4        1 FG6      2.097800
     30 O           3.7730    2.3500   -1.4210 o         1 FG6     -0.559000
     31 HA          3.9070    1.5500    1.5680 ha        1 FG6      0.097000
     32 HAA         3.7780    3.1610    1.4650 ha        1 FG6      0.097000
     33 HAAA       -1.7270    7.3820    0.1330 h1        1 FG6      0.072333
     34 HAAB       -1.7890    7.4590    1.7020 h1        1 FG6      0.072333
     35 HAAC       -3.1650    7.3250    0.8410 h1        1 FG6      0.072333
     36 HAG        -4.6550   -7.1030   -1.4180 ha        1 FG6      0.126000
     37 HAH        -3.0100   -8.7000   -0.7660 ha        1 FG6      0.126000
     38 HAI         0.7850    6.5420    1.1410 ha        1 FG6      0.127000
     39 HAJ        -4.0430   -4.8390   -1.8440 ha        1 FG6      0.150000
     40 HAK        -0.8450   -7.9300   -0.2360 ha        1 FG6      0.147000
     41 HAL         2.5520    4.9430    1.1350 ha        1 FG6      0.162000
     42 HAM        -1.9720    3.5510    0.4450 ha        1 FG6      0.139000
     43 HAN        -1.9340   -2.9070   -1.5150 DU        1 FG6      0.197500
     44 HAO        -0.7670    0.9560    0.3860 DU        1 FG6      0.197500
     45 HNAQ       -0.0560   -1.3370    0.4100 hn        1 FG6      0.314000
@<TRIPOS>BOND
     1    1    3 1   
     2    1   30 1   
     3    2   24 1   
     4    2   28 1   
     5    4   31 1   
     6    4   32 1   
     7    5   19 1   
     8    5   33 1   
     9    5   34 1   
    10    5   35 1   
    11    6   21 1   
    12    7   29 1   
    13    8   29 1   
    14    9   10 1   
    15    9   36 1   
    16   10   37 1   
    17   11   22 1   
    18   11   38 1   
    19   12   25 1   
    20   12   39 1   
    21   13   27 1   
    22   13   40 1   
    23   14   28 1   
    24   14   41 1   
    25   15   26 1   
    26   15   42 1   
    27   16   23 1   
    28   16   25 1   
    29   17   24 1   
    30   17   26 1   
    31   18   21 1   
    32   18   29 1   
    33   18   45 1   
    34   19   22 1   
    35   20   23 1   
    36   20   27 1   
    37   21   24 1   
@<TRIPOS>SUBSTRUCTURE
     1 FG6         1 TEMP              0 ****  ****    0 ROOT
