@<TRIPOS>MOLECULE
FG6
   46    49     1     0     0
SMALL
bcc


@<TRIPOS>ATOM
      1 C          -0.7460   -0.5520   -0.1610 c2        1 FG6      0.312000
      2 N          -0.4550   -1.1140    2.2290 n3        1 FG6     -0.158000
      3 OXT        -0.5710    0.7950    0.1090 os        1 FG6     -0.250000
      4 CA         -0.4750   -1.6160    0.8750 c3        1 FG6     -0.085000
      5 CAA         3.2140   -4.6360    6.0940 c3        1 FG6     -0.088000
      6 OAC        -0.0220    2.4360    1.4160 o         1 FG6     -0.317000
      7 OAD         1.2310    3.4460    3.9570 o         1 FG6     -0.924000
      8 OAE         1.2940    5.8090    4.4040 o         1 FG6     -0.924000
      9 CAG        -4.1880    7.3780    5.4260 ca        1 FG6     -0.208000
     10 CAH        -3.9760    8.1110    4.2470 ca        1 FG6     -0.032000
     11 CAI         1.2110   -3.7130    4.3950 c2        1 FG6     -0.111000
     12 CAJ        -3.4620    6.2210    5.6970 ca        1 FG6      0.024000
     13 CAK        -3.0360    7.7200    3.2950 ca        1 FG6     -0.185000
     14 CAL         0.3450   -3.2280    3.3600 c2        1 FG6     -0.192000
     15 CAM         1.7850   -1.4140    5.1510 c1        1 FG6      0.019000
     16 CAN        -1.6130    4.6750    4.7580 c1        1 FG6      0.042000
     17 CAO         0.7330    0.3750    3.5950 c2        1 FG6      0.003000
     18 NAQ         1.3220    5.0270    2.0760 n3        1 FG6     -0.946000
     19 OAS        -1.3380    6.0160    2.7690 os        1 FG6     -0.175000
     20 CAV         1.9360   -2.8480    5.1800 c2        1 FG6     -0.055000
     21 CAW        -0.8890    4.7910    3.4570 c3        1 FG6     -0.711000
     22 CAX         0.0780    0.2220    2.4020 c2        1 FG6     -0.171000
     23 CAY        -2.5120    5.7920    4.7670 ca        1 FG6     -0.255000
     24 CAZ         0.6830   -0.9400    4.3230 c3        1 FG6     -0.143000
     25 CBA        -2.3140    6.5610    3.5710 ca        1 FG6      0.123000
     26 CBB         0.1460   -1.8880    3.2560 c2        1 FG6     -0.010000
     27 SBD         0.8900    4.7550    3.5760 s6        1 FG6      2.852000
     28 O          -1.1090   -0.7530   -1.3130 o         1 FG6     -0.257000
     29 HA          0.4940   -2.1240    0.5850 h1        1 FG6      0.134500
     30 HAA        -1.3010   -2.3840    0.8100 h1        1 FG6      0.134500
     31 HAAA        3.5580   -4.9640    5.0820 h1        1 FG6      0.083000
     32 HAAB        2.3400   -5.2500    6.4260 h1        1 FG6      0.083000
     33 HAAC        4.0480   -4.7080    6.8370 h1        1 FG6      0.083000
     34 HAI         1.3140   -4.8070    4.4800 ha        1 FG6      0.144000
     35 HAK        -2.8680    8.2930    2.3740 ha        1 FG6      0.156000
     36 HAL        -0.0800   -3.9500    2.6490 ha        1 FG6      0.146000
     37 HAM        -0.1220   -0.8290    5.1410 hc        1 FG6      0.218000
     38 HAN        -1.2420    3.9330    2.8110 h2        1 FG6      0.209000
     39 HAO         1.1850    1.2850    4.0130 ha        1 FG6      0.238000
     40 HNAQ        1.3210    4.3250    1.3740 hn        1 FG6      0.258500
     41 OAR         2.8860   -3.2530    6.1000 os        1 FG6     -0.169000
     42 CAU        -0.1540    1.2150    1.3620 c2        1 FG6      0.409000
     43 HAG        -4.9400    7.7310    6.1470 ha        1 FG6      0.142000
     44 HAH        -4.5690    9.0220    4.0700 ha        1 FG6      0.139000
     45 HAQ2        1.5050    5.9300    1.7120 hn        1 FG6      0.258500
     46 HAJ        -3.6240    5.6490    6.6230 ha        1 FG6      0.155000
@<TRIPOS>BOND
     1    1    3 1   
     2    1    4 1   
     3    1   28 1   
     4    2    4 1   
     5    2   22 1   
     6    2   26 1   
     7    3   42 1   
     8    4   29 1   
     9    4   30 1   
    10    5   31 1   
    11    5   32 1   
    12    5   33 1   
    13    5   41 1   
    14    6   42 1   
    15    7   27 1   
    16    8   27 1   
    17    9   10 1   
    18    9   12 1   
    19    9   43 1   
    20   10   13 1   
    21   10   44 1   
    22   11   14 1   
    23   11   20 1   
    24   11   34 1   
    25   12   23 1   
    26   12   46 1   
    27   13   25 1   
    28   13   35 1   
    29   14   26 1   
    30   14   36 1   
    31   15   20 1   
    32   15   24 1   
    33   16   21 1   
    34   16   23 1   
    35   17   22 1   
    36   17   24 1   
    37   17   39 1   
    38   18   27 1   
    39   18   40 1   
    40   18   45 1   
    41   19   21 1   
    42   19   25 1   
    43   20   41 1   
    44   21   27 1   
    45   21   38 1   
    46   22   42 1   
    47   23   25 1   
    48   24   26 1   
    49   24   37 1   
@<TRIPOS>SUBSTRUCTURE
     1 FG6         1 TEMP              0 ****  ****    0 ROOT
