@<TRIPOS>MOLECULE
FG6
   45    48     1     0     0
SMALL
bcc


@<TRIPOS>ATOM
      1 C          -3.2520    3.3450    0.7280 c         1 FG6      0.914600
      2 N          -2.1240    1.0820    0.7970 na        1 FG6      0.046600
      3 OXT        -2.9440    3.9650   -0.3190 o         1 FG6     -0.812300
      4 CA         -2.1590    2.4070    1.3530 c3        1 FG6     -0.128700
      5 CAA        -7.2070   -2.6870    0.1090 c3        1 FG6      0.120700
      6 OAC         0.8930    1.6470    0.9770 o         1 FG6     -0.545100
      7 OAD         2.5840    0.9220   -3.0030 o         1 FG6     -0.634300
      8 OAE         2.9500    2.4330   -1.1990 o         1 FG6     -0.634300
      9 CAG         5.8910   -3.3150    1.1470 ca        1 FG6     -0.164000
     10 CAH         5.4300   -2.6310    2.2870 ca        1 FG6     -0.099000
     11 CAI        -5.4090   -0.6940    0.9750 ca        1 FG6     -0.187000
     12 CAJ         5.5410   -2.9120   -0.1360 ca        1 FG6     -0.066000
     13 CAK         4.6030   -1.5180    2.1880 ca        1 FG6     -0.124000
     14 CAL        -4.5400    0.3590    1.1600 ca        1 FG6     -0.074000
     15 CAM        -3.6860   -2.0630   -0.1240 ca        1 FG6     -0.127000
     16 CAN         4.1280   -1.0790   -1.3870 cc        1 FG6     -0.023200
     17 CAO        -1.4040   -0.8210   -0.2900 cc        1 FG6     -0.184200
     18 NAQ         0.9560    0.8460   -1.1710 n         1 FG6     -0.691300
     19 OAS         3.4480   -0.0460    0.5510 os        1 FG6     -0.129200
     20 CAV        -4.9810   -1.8920    0.3450 ca        1 FG6      0.075100
     21 CAW         3.3840   -0.0410   -0.8580 cd        1 FG6     -0.215000
     22 CAX        -1.0410    0.4600    0.1720 cd        1 FG6     -0.146300
     23 CAY         4.7110   -1.7990   -0.2770 ca        1 FG6     -0.144800
     24 CAZ        -2.7780   -1.0120    0.0580 ca        1 FG6     -0.091800
     25 CBA         4.2560   -1.1190    0.8960 ca        1 FG6      0.096100
     26 CBB        -3.2070    0.2050    0.7180 ca        1 FG6     -0.054200
     27 SBD         2.4780    1.1920   -1.6180 sy        1 FG6      1.522500
     28 O          -4.3410    3.4270    1.3560 o         1 FG6     -0.812300
     29 HA         -1.1530    2.8870    1.2040 h1        1 FG6      0.060200
     30 HAA        -2.3670    2.3110    2.4550 h1        1 FG6      0.060200
     31 HAAA       -7.6130   -2.4580    1.1250 h1        1 FG6      0.033367
     32 HAAB       -7.3960   -1.8310   -0.5830 h1        1 FG6      0.033367
     33 HAAC       -7.6670   -3.6270   -0.2880 h1        1 FG6      0.033367
     34 HAI        -6.4510   -0.6000    1.3120 ha        1 FG6      0.128000
     35 HAJ         5.9050   -3.4540   -1.0210 ha        1 FG6      0.137000
     36 HAK         4.2340   -0.9760    3.0680 ha        1 FG6      0.161000
     37 HAL        -4.8580    1.3230    1.6050 ha        1 FG6      0.205000
     38 HAM        -3.3810   -2.9950   -0.6150 ha        1 FG6      0.134000
     39 HAN         4.2570   -1.3140   -2.4440 ha        1 FG6      0.178000
     40 HAO        -0.7590   -1.5340   -0.7920 ha        1 FG6      0.141000
     41 HNAQ        0.3520    0.4300   -1.8540 hn        1 FG6      0.353500
     42 OAR        -5.8220   -2.9920    0.1940 os        1 FG6     -0.347900
     43 CAU         0.3080    1.0490    0.0650 c         1 FG6      0.740300
     44 HAG         6.5430   -4.1900    1.2810 ha        1 FG6      0.130000
     45 HAH         5.7330   -2.9890    3.2820 ha        1 FG6      0.133000
@<TRIPOS>BOND
     1    1    3 1   
     2    1    4 1   
     3    1   28 1   
     4    2    4 1   
     5    2   22 1   
     6    2   26 1   
     7    4   29 1   
     8    4   30 1   
     9    5   31 1   
    10    5   32 1   
    11    5   33 1   
    12    5   42 1   
    13    6   43 2   
    14    7   27 2   
    15    8   27 2   
    16    9   10 ar  
    17    9   12 ar  
    18    9   44 1   
    19   10   13 ar  
    20   10   45 1   
    21   11   14 ar  
    22   11   20 ar  
    23   11   34 1   
    24   12   23 ar  
    25   12   35 1   
    26   13   25 ar  
    27   13   36 1   
    28   14   26 ar  
    29   14   37 1   
    30   15   20 ar  
    31   15   24 ar  
    32   15   38 1   
    33   16   21 2   
    34   16   23 1   
    35   16   39 1   
    36   17   22 2   
    37   17   24 1   
    38   17   40 1   
    39   18   27 1   
    40   18   41 1   
    41   18   43 1   
    42   19   21 1   
    43   19   25 1   
    44   20   42 1   
    45   21   27 1   
    46   22   43 1   
    47   23   25 ar  
    48   24   26 ar  
@<TRIPOS>SUBSTRUCTURE
     1 FG6         1 TEMP              0 ****  ****    0 ROOT
