@<TRIPOS>MOLECULE
FG7
   23    23     1     0     0
SMALL
bcc


@<TRIPOS>ATOM
      1 C1         -0.0080    0.0340    0.0030 ca        1 FG7      0.126600
      2 N2         -0.7380    0.1870   -1.1810 nh        1 FG7     -0.818200
      3 C3          1.4050    0.0550   -0.0140 ca        1 FG7     -0.140000
      4 C4          2.1220   -0.0020    1.1830 ca        1 FG7     -0.095600
      5 C5          3.5920    0.0250    1.1080 c         1 FG7      0.646700
      6 O6          4.2190    0.0190    2.3250 os        1 FG7     -0.439900
      7 C7          5.6580    0.0490    2.2990 c3        1 FG7      0.140400
      8 C8          6.1050    0.0410    3.7410 c3        1 FG7     -0.101100
      9 C9          1.4590   -0.0850    2.4110 ca        1 FG7     -0.114000
     10 C10         0.0660   -0.1140    2.4320 ca        1 FG7     -0.111000
     11 C11        -0.6670   -0.0600    1.2520 ca        1 FG7     -0.160000
     12 O12         4.2990    0.0490    0.0950 o         1 FG7     -0.548000
     13 HN2        -1.6600   -0.1870   -1.1460 hn        1 FG7      0.392300
     14 HN2A       -0.2400   -0.0650   -2.0060 hn        1 FG7      0.392300
     15 H3          1.9580    0.1230   -0.9650 ha        1 FG7      0.157000
     16 H7          5.9890    0.9750    1.7610 h1        1 FG7      0.052200
     17 H7A         6.0260   -0.8510    1.7400 h1        1 FG7      0.052200
     18 H8          7.2200    0.0650    3.7750 hc        1 FG7      0.047700
     19 H8A         5.7020    0.9310    4.2810 hc        1 FG7      0.047700
     20 H8B         5.7420   -0.8780    4.2600 hc        1 FG7      0.047700
     21 H9          2.0380   -0.1270    3.3470 ha        1 FG7      0.154000
     22 H10        -0.4630   -0.1800    3.3960 ha        1 FG7      0.137000
     23 H11        -1.7660   -0.0820    1.2960 ha        1 FG7      0.135000
@<TRIPOS>BOND
     1    1    2 1   
     2    1    3 ar  
     3    1   11 ar  
     4    2   13 1   
     5    2   14 1   
     6    3    4 ar  
     7    3   15 1   
     8    4    5 1   
     9    4    9 ar  
    10    5    6 1   
    11    5   12 2   
    12    6    7 1   
    13    7    8 1   
    14    7   16 1   
    15    7   17 1   
    16    8   18 1   
    17    8   19 1   
    18    8   20 1   
    19    9   10 ar  
    20    9   21 1   
    21   10   11 ar  
    22   10   22 1   
    23   11   23 1   
@<TRIPOS>SUBSTRUCTURE
     1 FG7         1 TEMP              0 ****  ****    0 ROOT
