@<TRIPOS>MOLECULE
FG7
   23    20     1     0     0
SMALL
bcc


@<TRIPOS>ATOM
      1 C1         -2.5500   -0.2660   -1.3740 c1        1 FG7      0.045000
      2 N2         -3.2390   -0.2810   -2.6150 n2        1 FG7     -0.327000
      3 C3         -1.1640   -0.2620   -1.3520 c1        1 FG7     -0.140000
      4 C4         -0.4900   -0.3040   -0.1410 c1        1 FG7     -0.075000
      5 C5          1.0210   -0.3920   -0.1200 c2        1 FG7      0.347000
      6 O6          1.7690    0.5410    0.6180 os        1 FG7     -0.278000
      7 C7          3.1600    0.3230    0.5710 c3        1 FG7     -0.010000
      8 C8          3.8280    1.0770    1.6990 c3        1 FG7     -0.219000
      9 C9         -1.2020   -0.3480    1.0470 c1        1 FG7     -0.114000
     10 C10        -2.5880   -0.3510    1.0240 c1        1 FG7     -0.111000
     11 C11        -3.2620   -0.3100   -0.1860 c2        1 FG7     -0.160000
     12 O12         1.5860   -1.2840   -0.7190 o         1 FG7     -0.359000
     13 HN2        -2.7760   -0.1820   -3.3960 hn        1 FG7      0.187500
     14 HN2A       -4.1430   -0.4150   -2.6330 hn        1 FG7      0.187500
     15 H3         -0.6630   -0.2010   -2.1880 ha        1 FG7      0.157000
     16 H7          3.5110    0.6410   -0.2860 h1        1 FG7      0.091500
     17 H7A         3.3440   -0.6350    0.6640 h1        1 FG7      0.091500
     18 H8          3.6950    2.0400    1.5720 hc        1 FG7      0.087000
     19 H8A         3.4330    0.8020    2.5540 hc        1 FG7      0.087000
     20 H8B         4.7870    0.8770    1.7030 hc        1 FG7      0.087000
     21 H9         -0.7280   -0.3770    1.8990 ha        1 FG7      0.154000
     22 H10        -3.0900   -0.3820    1.8610 ha        1 FG7      0.137000
     23 H11        -4.2380   -0.3120   -0.2020 ha        1 FG7      0.135000
@<TRIPOS>BOND
     1    1    3 1   
     2    1   11 1   
     3    2   13 1   
     4    2   14 1   
     5    3   15 1   
     6    4    5 1   
     7    4    9 1   
     8    5    6 1   
     9    5   12 1   
    10    6    7 1   
    11    7    8 1   
    12    7   16 1   
    13    7   17 1   
    14    8   18 1   
    15    8   19 1   
    16    8   20 1   
    17    9   21 1   
    18   10   11 1   
    19   10   22 1   
    20   11   23 1   
@<TRIPOS>SUBSTRUCTURE
     1 FG7         1 TEMP              0 ****  ****    0 ROOT
