@<TRIPOS>MOLECULE
FG7
   23    23     1     0     0
SMALL
bcc


@<TRIPOS>ATOM
      1 C1         -0.0080    0.0300    0.0020 ca        1 FG7      0.126600
      2 N2         -0.7380    0.1910   -1.1800 nv        1 FG7     -0.818200
      3 C3          1.4050    0.0630   -0.0140 ca        1 FG7     -0.140000
      4 C4          2.1220   -0.0010    1.1830 ca        1 FG7     -0.095600
      5 C5          3.5920    0.0380    1.1090 c         1 FG7      0.646700
      6 O6          4.2180    0.0240    2.3260 os        1 FG7     -0.439900
      7 C7          5.6570    0.0650    2.3010 c3        1 FG7      0.140400
      8 C8          6.1030    0.0470    3.7430 c3        1 FG7     -0.101100
      9 C9          1.4590   -0.1040    2.4100 ca        1 FG7     -0.114000
     10 C10         0.0670   -0.1440    2.4300 ca        1 FG7     -0.111000
     11 C11        -0.6660   -0.0830    1.2500 ca        1 FG7     -0.160000
     12 O12         4.2990    0.0780    0.0970 o         1 FG7     -0.548000
     13 HN2        -1.6570   -0.1900   -1.1510 hn        1 FG7      0.392300
     14 HN2A       -0.2380   -0.0480   -2.0080 hn        1 FG7      0.392300
     15 H3          1.9590    0.1470   -0.9640 ha        1 FG7      0.157000
     16 H7          6.0320   -0.8260    1.7340 h1        1 FG7      0.052200
     17 H7A         5.9810    1.0000    1.7730 h1        1 FG7      0.052200
     18 H8          7.2180    0.0790    3.7780 hc        1 FG7      0.047700
     19 H8A         5.6940    0.9290    4.2920 hc        1 FG7      0.047700
     20 H8B         5.7470   -0.8800    4.2530 hc        1 FG7      0.047700
     21 H9          2.0380   -0.1520    3.3450 ha        1 FG7      0.154000
     22 H10        -0.4620   -0.2260    3.3920 ha        1 FG7      0.137000
     23 H11        -1.7650   -0.1140    1.2920 ha        1 FG7      0.135000
@<TRIPOS>BOND
     1    1    2 1   
     2    1    3 ar  
     3    1   11 ar  
     4    2   13 1   
     5    2   14 1   
     6    3    4 ar  
     7    3   15 1   
     8    4    5 1   
     9    4    9 ar  
    10    5    6 1   
    11    5   12 2   
    12    6    7 1   
    13    7    8 1   
    14    7   16 1   
    15    7   17 1   
    16    8   18 1   
    17    8   19 1   
    18    8   20 1   
    19    9   10 ar  
    20    9   21 1   
    21   10   11 ar  
    22   10   22 1   
    23   11   23 1   
@<TRIPOS>SUBSTRUCTURE
     1 FG7         1 TEMP              0 ****  ****    0 ROOT
