@<TRIPOS>MOLECULE
FG7
   23    23     1     0     0
SMALL
bcc


@<TRIPOS>ATOM
      1 C1         -2.6970    0.2990   -0.0590 ca        1 FG7      0.126600
      2 N2         -3.8260    1.1150   -0.1970 nh        1 FG7     -0.818200
      3 C3         -1.4010    0.8620   -0.0410 ca        1 FG7     -0.140000
      4 C4         -0.2770    0.0330   -0.0010 ca        1 FG7     -0.095600
      5 C5          1.0490    0.6710    0.0160 c         1 FG7      0.646700
      6 O6          2.0980   -0.2090   -0.0000 os        1 FG7     -0.439900
      7 C7          3.4160    0.3720    0.0110 c3        1 FG7      0.140400
      8 C8          4.3850   -0.7840   -0.0170 c3        1 FG7     -0.101100
      9 C9         -0.4140   -1.3580    0.0280 ca        1 FG7     -0.114000
     10 C10        -1.6910   -1.9160    0.0170 ca        1 FG7     -0.111000
     11 C11        -2.8220   -1.1100   -0.0210 ca        1 FG7     -0.160000
     12 O12         1.3100    1.8780    0.0440 o         1 FG7     -0.548000
     13 HN2        -3.6900    2.0580    0.0930 hn        1 FG7      0.392300
     14 HN2A       -4.6680    0.7130    0.1490 hn        1 FG7      0.392300
     15 H3         -1.2570    1.9550   -0.0660 ha        1 FG7      0.157000
     16 H7          3.5240    1.0340   -0.8870 h1        1 FG7      0.052200
     17 H7A         3.5270    0.9910    0.9390 h1        1 FG7      0.052200
     18 H8          5.4270   -0.3850   -0.0110 hc        1 FG7      0.047700
     19 H8A         4.2400   -1.4410    0.8740 hc        1 FG7      0.047700
     20 H8B         4.2350   -1.4000   -0.9360 hc        1 FG7      0.047700
     21 H9          0.4800   -1.9980    0.0580 ha        1 FG7      0.154000
     22 H10        -1.8070   -3.0110    0.0410 ha        1 FG7      0.137000
     23 H11        -3.8200   -1.5750   -0.0310 ha        1 FG7      0.135000
@<TRIPOS>BOND
     1    1    2 1   
     2    1    3 ar  
     3    1   11 ar  
     4    2   13 1   
     5    2   14 1   
     6    3    4 ar  
     7    3   15 1   
     8    4    5 1   
     9    4    9 ar  
    10    5    6 1   
    11    5   12 2   
    12    6    7 1   
    13    7    8 1   
    14    7   16 1   
    15    7   17 1   
    16    8   18 1   
    17    8   19 1   
    18    8   20 1   
    19    9   10 ar  
    20    9   21 1   
    21   10   11 ar  
    22   10   22 1   
    23   11   23 1   
@<TRIPOS>SUBSTRUCTURE
     1 FG7         1 TEMP              0 ****  ****    0 ROOT
