@<TRIPOS>MOLECULE
FG7
   24    24     1     0     0
SMALL
bcc


@<TRIPOS>ATOM
      1 C1          0.0150    0.0280    0.0350 ca        1 FG7     -0.089400
      2 N2         -0.7440    0.0420   -1.2160 n4        1 FG7     -0.699000
      3 C3          1.4170    0.0300   -0.0070 ca        1 FG7     -0.053000
      4 C4          2.1280    0.0160    1.2000 ca        1 FG7     -0.100600
      5 C5          3.6060    0.0180    1.1210 c         1 FG7      0.637700
      6 O6          4.2250    0.0050    2.3290 os        1 FG7     -0.429900
      7 C7          5.6740    0.0060    2.3060 c3        1 FG7      0.142400
      8 C8          6.1080   -0.0100    3.7490 c3        1 FG7     -0.107100
      9 C9          1.4530    0.0010    2.4240 ca        1 FG7     -0.014000
     10 C10         0.0550   -0.0010    2.4470 ca        1 FG7     -0.111000
     11 C11        -0.6750    0.0130    1.2640 ca        1 FG7     -0.081000
     12 O12         4.2730    0.0310    0.0840 o         1 FG7     -0.519000
     13 HN2        -1.3390   -0.7930   -1.2670 hn        1 FG7      0.466133
     14 HN2A       -0.1030    0.0500   -2.0180 hn        1 FG7      0.466133
     15 H3          1.9870    0.0420   -0.9550 ha        1 FG7      0.184000
     16 H7          6.0160    0.9280    1.7680 h1        1 FG7      0.064700
     17 H7A         6.0180   -0.9020    1.7460 h1        1 FG7      0.064700
     18 H8          7.2240   -0.0100    3.7870 hc        1 FG7      0.058367
     19 H8A         5.7260   -0.9230    4.2670 hc        1 FG7      0.058367
     20 H8B         5.7250    0.8890    4.2890 hc        1 FG7      0.058367
     21 H9          2.0320   -0.0100    3.3670 ha        1 FG7      0.195000
     22 H10        -0.4770   -0.0130    3.4140 ha        1 FG7      0.181000
     23 H11        -1.7770    0.0110    1.3030 ha        1 FG7      0.161000
     24 H23        -1.3360    0.8800   -1.2500 hn        1 FG7      0.466133
@<TRIPOS>BOND
     1    1    2 1   
     2    1    3 ar  
     3    1   11 ar  
     4    2   13 1   
     5    2   14 1   
     6    2   24 1   
     7    3    4 ar  
     8    3   15 1   
     9    4    5 1   
    10    4    9 ar  
    11    5    6 1   
    12    5   12 2   
    13    6    7 1   
    14    7    8 1   
    15    7   16 1   
    16    7   17 1   
    17    8   18 1   
    18    8   19 1   
    19    8   20 1   
    20    9   10 ar  
    21    9   21 1   
    22   10   11 ar  
    23   10   22 1   
    24   11   23 1   
@<TRIPOS>SUBSTRUCTURE
     1 FG7         1 TEMP              0 ****  ****    0 ROOT
