@<TRIPOS>MOLECULE
FGA
   17    16     1     0     0
SMALL
bcc


@<TRIPOS>ATOM
      1 N          -1.3460    1.9000   -0.1700 n3        1 FGA     -0.912800
      2 CA         -1.1690    0.5940    0.4550 c3        1 FGA      0.034500
      3 C          -2.4170   -0.3280    0.2950 c         1 FGA      0.902600
      4 O          -3.1870   -0.1600   -0.7000 o         1 FGA     -0.867300
      5 CB          0.0810   -0.1730   -0.0060 c3        1 FGA     -0.067400
      6 CG          1.3660    0.4750    0.4580 c3        1 FGA     -0.178400
      7 CD          2.6190   -0.1200   -0.1930 c         1 FGA      0.902600
      8 OE1         2.7590   -0.0590   -1.4520 o         1 FGA     -0.877800
      9 OE2         3.5170   -0.6120    0.5600 o         1 FGA     -0.877800
     10 OXT        -2.6310   -1.1980    1.1870 o         1 FGA     -0.867300
     11 H          -0.5770    2.0810   -0.7900 hn        1 FGA      0.328800
     12 H2         -2.1800    1.8720   -0.7360 hn        1 FGA      0.328800
     13 HA         -1.0560    0.7940    1.5620 h1        1 FGA      0.034700
     14 HB2         0.0140   -1.2110    0.4110 hc        1 FGA      0.044200
     15 HB3         0.0920   -0.2590   -1.1240 hc        1 FGA      0.044200
     16 HG2         1.3580    1.5690    0.2140 hc        1 FGA      0.014200
     17 HG3         1.4530    0.3790    1.5700 hc        1 FGA      0.014200
@<TRIPOS>BOND
     1    1    2 1   
     2    1   11 1   
     3    1   12 1   
     4    2    3 1   
     5    2    5 1   
     6    2   13 1   
     7    3    4 1   
     8    3   10 1   
     9    5    6 1   
    10    5   14 1   
    11    5   15 1   
    12    6    7 1   
    13    6   16 1   
    14    6   17 1   
    15    7    8 1   
    16    7    9 1   
@<TRIPOS>SUBSTRUCTURE
     1 FGA         1 TEMP              0 ****  ****    0 ROOT
