@<TRIPOS>MOLECULE
FGA
   17    16     1     0     0
SMALL
bcc


@<TRIPOS>ATOM
      1 N          -1.9600    0.6890    0.6530 n3        1 FGA     -0.912800
      2 CA         -0.5380    0.6890    0.6530 c3        1 FGA      0.034500
      3 C          -0.0340    0.6890    2.0780 c         1 FGA      0.902600
      4 O           0.7580    1.5880    2.4660 o         1 FGA     -0.867300
      5 CB         -0.0340   -0.5450   -0.0600 c3        1 FGA     -0.067400
      6 CG          0.8180   -0.1340   -1.2400 c3        1 FGA     -0.178400
      7 CD          1.3790   -1.3670   -1.9120 c         1 FGA      0.902600
      8 OE1         2.5140   -1.8020   -1.5830 o         1 FGA     -0.877800
      9 OE2         0.7110   -1.9600   -2.8000 o         1 FGA     -0.877800
     10 OXT        -0.4060   -0.2100    2.8770 o         1 FGA     -0.867300
     11 H          -2.2640    1.1230    1.3950 hn        1 FGA      0.328800
     12 H2         -2.2640    1.1140   -0.0940 hn        1 FGA      0.328800
     13 HA         -0.2120    1.4860    0.1930 h1        1 FGA      0.034700
     14 HB2         0.5010   -1.0810    0.5570 hc        1 FGA      0.044200
     15 HB3        -0.7930   -1.0720   -0.3740 hc        1 FGA      0.044200
     16 HG2         0.2720    0.3640   -1.8780 hc        1 FGA      0.014200
     17 HG3         1.5520    0.4310   -0.9310 hc        1 FGA      0.014200
@<TRIPOS>BOND
     1    1    2 1   
     2    1   11 1   
     3    1   12 1   
     4    2    3 1   
     5    2    5 1   
     6    2   13 1   
     7    3    4 1   
     8    3   10 1   
     9    5    6 1   
    10    5   14 1   
    11    5   15 1   
    12    6    7 1   
    13    6   16 1   
    14    6   17 1   
    15    7    8 1   
    16    7    9 1   
@<TRIPOS>SUBSTRUCTURE
     1 FGA         1 TEMP              0 ****  ****    0 ROOT
