@<TRIPOS>MOLECULE
FGG
   62    62     1     0     0
SMALL
bcc


@<TRIPOS>ATOM
      1 C01         0.0000    0.0000    0.0000 c3        1 FGG      0.169000
      2 F01        -0.2730   -1.0660    2.2180 f         1 FGG     -0.115000
      3 O01         1.4290    0.0000    0.0000 os        1 FGG     -0.649000
      4 C02        -0.5030    0.0000    1.4210 c2        1 FGG      0.056000
      5 P02         2.3060   -0.0000   -1.3500 p5        1 FGG      1.388000
      6 C03        -1.1630    1.0370    1.8830 c2        1 FGG     -0.268000
      7 O03         3.8670   -0.1320   -0.9760 os        1 FGG     -0.938000
      8 C04        -1.7610    0.9920    3.2660 c3        1 FGG     -0.054000
      9 P04         5.1920   -0.4900   -1.8180 p5        1 FGG      1.044500
     10 C05        -0.7890    1.6290    4.2620 DU        1 FGG     -0.115000
     11 O05         4.8890   -1.5770   -2.7750 o         1 FGG     -0.665167
     12 C06        -1.3880    1.5850    5.6450 c2        1 FGG     -0.586000
     13 O06         1.9030   -1.1430   -2.2000 o         1 FGG     -0.695000
     14 C07        -0.7730    0.9390    6.6050 c2        1 FGG     -0.074000
     15 O07         2.0610    1.3760   -2.1490 o         1 FGG     -0.695000
     16 C08        -1.3160    0.9790    8.0090 c3        1 FGG     -0.040000
     17 O08         5.6840    0.8130   -2.6230 o         1 FGG     -0.665167
     18 C09        -2.2010   -0.2470    8.2480 c3        1 FGG     -0.082000
     19 O09         6.3530   -0.9710   -0.8110 o         1 FGG     -0.665167
     20 C10        -2.7450   -0.2070    9.6530 c2        1 FGG     -0.157000
     21 C11        -4.0370   -0.1230    9.8530 c2        1 FGG     -0.184000
     22 C12        -4.5830   -0.1040   11.2580 c3        1 FGG     -0.041000
     23 C13        -4.7900    1.3450   11.7040 c3        1 FGG     -0.068000
     24 C14        -5.3360    1.3630   13.1090 c2        1 FGG     -0.210000
     25 C15        -4.6430    1.9180   14.0730 c2        1 FGG     -0.219000
     26 C16        -1.3240    2.2690    1.0320 c3        1 FGG     -0.038000
     27 C17         0.4800    0.1560    6.3040 c3        1 FGG     -0.119000
     28 C18        -4.9770   -0.0470    8.6770 c3        1 FGG     -0.061000
     29 C19        -3.2940    2.5210   13.7810 c3        1 FGG     -0.043500
     30 C20        -5.1970    1.9540   15.4740 c3        1 FGG     -0.043500
     31 H01        -0.3610    0.8840   -0.5110 h1        1 FGG      0.030500
     32 H01A       -0.3610   -0.8850   -0.5110 h1        1 FGG      0.030500
     33 H04        -2.6960    1.5410    3.2720 hc        1 FGG      0.049500
     34 H04A       -1.9450   -0.0370    3.5470 hc        1 FGG      0.049500
     35 H05         0.1450    1.0810    4.2550 ha        1 FGG      0.073000
     36 H05A       -0.6060    2.6590    3.9810 ha        1 FGG      0.073000
     37 H06        -1.5090    0.7750    4.9350 DU        1 FGG      0.294000
     38 H08        -0.4940    0.9740    8.7150 hc        1 FGG      0.050000
     39 H08A       -1.9020    1.8800    8.1440 hc        1 FGG      0.050000
     40 H09        -3.0230   -0.2420    7.5420 hc        1 FGG      0.062500
     41 H09A       -1.6150   -1.1470    8.1130 hc        1 FGG      0.062500
     42 H10        -2.0730   -0.3070   10.4970 ha        1 FGG      0.092000
     43 H12        -5.5300   -0.6290   11.2840 hc        1 FGG      0.044000
     44 H12A       -3.8810   -0.5910   11.9240 hc        1 FGG      0.044000
     45 H13        -5.4910    1.8310   11.0370 hc        1 FGG      0.060500
     46 H13A       -3.8420    1.8700   11.6780 hc        1 FGG      0.060500
     47 H14        -6.3240    0.9680   13.3100 ha        1 FGG      0.092000
     48 H16        -1.8890    2.0210    0.1410 hc        1 FGG      0.044667
     49 H16A       -0.3470    2.6420    0.7480 hc        1 FGG      0.044667
     50 H16B       -1.8510    3.0300    1.5940 hc        1 FGG      0.044667
     51 H17         0.2480   -0.6440    5.6110 hc        1 FGG      0.048667
     52 H17A        1.2190    0.8140    5.8620 hc        1 FGG      0.048667
     53 H17B        0.8730   -0.2640    7.2220 hc        1 FGG      0.048667
     54 H18        -4.8340   -0.9140    8.0440 hc        1 FGG      0.045000
     55 H18A       -4.7740    0.8530    8.1100 hc        1 FGG      0.045000
     56 H18B       -6.0000   -0.0250    9.0340 hc        1 FGG      0.045000
     57 H19        -2.8910    2.9600   14.6850 hc        1 FGG      0.033000
     58 H19A       -3.3970    3.2870   13.0220 hc        1 FGG      0.033000
     59 H19B       -2.6230    1.7480   13.4250 hc        1 FGG      0.033000
     60 H20        -5.8020    1.0710   15.6450 hc        1 FGG      0.033000
     61 H20A       -4.3810    1.9760   16.1850 hc        1 FGG      0.033000
     62 H20B       -5.8080    2.8400   15.5980 hc        1 FGG      0.033000
@<TRIPOS>BOND
     1    1    3 1   
     2    1    4 1   
     3    1   31 1   
     4    1   32 1   
     5    2    4 1   
     6    3    5 1   
     7    4    6 1   
     8    5    7 1   
     9    5   13 1   
    10    5   15 1   
    11    6    8 1   
    12    6   26 1   
    13    7    9 1   
    14    8   10 1   
    15    8   33 1   
    16    8   34 1   
    17    9   11 1   
    18    9   17 1   
    19    9   19 1   
    20   10   12 1   
    21   10   35 1   
    22   10   36 1   
    23   10   37 1   
    24   12   14 1   
    25   12   37 1   
    26   14   16 1   
    27   14   27 1   
    28   16   18 1   
    29   16   38 1   
    30   16   39 1   
    31   18   20 1   
    32   18   40 1   
    33   18   41 1   
    34   20   21 1   
    35   20   42 1   
    36   21   22 1   
    37   21   28 1   
    38   22   23 1   
    39   22   43 1   
    40   22   44 1   
    41   23   24 1   
    42   23   45 1   
    43   23   46 1   
    44   24   25 1   
    45   24   47 1   
    46   25   29 1   
    47   25   30 1   
    48   26   48 1   
    49   26   49 1   
    50   26   50 1   
    51   27   51 1   
    52   27   52 1   
    53   27   53 1   
    54   28   54 1   
    55   28   55 1   
    56   28   56 1   
    57   29   57 1   
    58   29   58 1   
    59   29   59 1   
    60   30   60 1   
    61   30   61 1   
    62   30   62 1   
@<TRIPOS>SUBSTRUCTURE
     1 FGG         1 TEMP              0 ****  ****    0 ROOT
