@<TRIPOS>MOLECULE
FGH
   67    71     1     0     0
SMALL
bcc


@<TRIPOS>ATOM
      1 O1         -0.0830   -0.2690    0.0480 o         1 FGH     -0.549100
      2 C21         1.1530   -0.1890    0.0320 c         1 FGH      0.612700
      3 C22         1.9500   -0.2000    1.3150 c3        1 FGH     -0.174400
      4 C23         3.2280    0.6390    1.2740 c3        1 FGH     -0.039000
      5 C26         3.9920    0.4230    2.5740 c3        1 FGH     -0.092100
      6 C25         2.8780    2.1140    1.1440 c3        1 FGH     -0.092100
      7 C24         4.1300    0.2100    0.1070 c3        1 FGH     -0.014100
      8 C13         3.3470    0.0930   -1.1410 cc        1 FGH     -0.046600
      9 C14         1.9470   -0.1070   -1.1770 cd        1 FGH     -0.229600
     10 C15         1.5640   -0.1670   -2.5570 cd        1 FGH     -0.062300
     11 C19         0.2600   -0.4060   -3.1860 c3        1 FGH     -0.011100
     12 C18         0.3000   -0.0360   -4.6740 c3        1 FGH      0.168800
     13 N2          1.4970   -0.4980   -5.3700 n3        1 FGH     -0.728600
     14 C20         1.4250   -0.2690   -6.7960 c3        1 FGH      0.157100
     15 C17         2.7490    0.0080   -4.8100 c3        1 FGH      0.247100
     16 C16         2.7290    0.0120   -3.3210 cc        1 FGH     -0.129600
     17 N1          3.8250    0.1690   -2.4530 na        1 FGH      0.020800
     18 C6          5.1720    0.3590   -2.8310 ca        1 FGH      0.032800
     19 C5          5.5160    1.2930   -3.8240 ca        1 FGH     -0.156000
     20 C7          6.1960   -0.3930   -2.2170 ca        1 FGH     -0.156000
     21 C8          7.5220   -0.2030   -2.5960 ca        1 FGH     -0.033300
     22 C12         8.5860   -1.0140   -1.9420 c3        1 FGH     -0.061100
     23 C11         9.7580   -1.2710   -2.8920 c3        1 FGH      0.103000
     24 N          10.1730   -0.1040   -3.6110 n         1 FGH     -0.577900
     25 C10         9.3030    0.9230   -3.9250 c         1 FGH      0.713100
     26 O           9.7670    1.9440   -4.4750 o         1 FGH     -0.643500
     27 C9          7.8630    0.7450   -3.5800 ca        1 FGH     -0.135600
     28 C4          6.8510    1.4910   -4.2030 ca        1 FGH      0.010700
     29 C3          7.1210    2.4860   -5.2820 c3        1 FGH     -0.044100
     30 C1          7.4110    3.8830   -4.7400 c3        1 FGH     -0.059700
     31 C2          7.9680    4.7510   -5.8500 c3        1 FGH     -0.092100
     32 C           6.1730    4.5180   -4.1450 c3        1 FGH     -0.092100
     33 H1          1.2990    0.1620    2.1540 hc        1 FGH      0.071200
     34 H2          2.2170   -1.2700    1.5270 hc        1 FGH      0.071200
     35 H3          3.3730    0.7540    3.4420 hc        1 FGH      0.040700
     36 H4          4.2440   -0.6560    2.7080 hc        1 FGH      0.040700
     37 H5          4.9400    1.0130    2.5650 hc        1 FGH      0.040700
     38 H6          3.8060    2.7350    1.1490 hc        1 FGH      0.040700
     39 H7          2.2310    2.4330    1.9960 hc        1 FGH      0.040700
     40 H8          2.3290    2.2960    0.1890 hc        1 FGH      0.040700
     41 H9          4.5850   -0.7910    0.3460 hc        1 FGH      0.058700
     42 H10         4.9700    0.9460   -0.0070 hc        1 FGH      0.058700
     43 H11        -0.0130   -1.4900   -3.0700 hc        1 FGH      0.070200
     44 H12        -0.5390    0.1970   -2.6780 hc        1 FGH      0.070200
     45 H13        -0.5860   -0.5150   -5.1790 h1        1 FGH      0.034200
     46 H14         0.1820    1.0840   -4.7660 h1        1 FGH      0.034200
     47 H16         0.5200   -0.7950   -7.1980 h1        1 FGH      0.033700
     48 H17         1.3590    0.8200   -7.0720 h1        1 FGH      0.033700
     49 H18         2.3390   -0.7040   -7.2790 h1        1 FGH      0.033700
     50 H19         3.5750   -0.6620   -5.1870 h1        1 FGH      0.041200
     51 H20         2.9700    1.0590   -5.1710 h1        1 FGH      0.041200
     52 H21         4.7330    1.8940   -4.3140 ha        1 FGH      0.155000
     53 H22         5.9510   -1.1390   -1.4440 ha        1 FGH      0.149000
     54 H23         8.9450   -0.4690   -1.0270 hc        1 FGH      0.066700
     55 H24         8.1800   -2.0050   -1.6080 hc        1 FGH      0.066700
     56 H25        10.6300   -1.6650   -2.2960 h1        1 FGH      0.046200
     57 H26         9.4570   -2.0740   -3.6290 h1        1 FGH      0.046200
     58 H27        11.1360    0.0100   -3.8210 hn        1 FGH      0.328500
     59 H28         8.0050    2.1480   -5.8890 hc        1 FGH      0.061700
     60 H29         6.2370    2.5370   -5.9730 hc        1 FGH      0.061700
     61 H30         8.1990    3.7850   -3.9390 hc        1 FGH      0.070700
     62 H31         7.2470    4.8160   -6.7000 hc        1 FGH      0.034533
     63 H32         8.9290    4.3230   -6.2260 hc        1 FGH      0.034533
     64 H33         8.1620    5.7820   -5.4690 hc        1 FGH      0.034533
     65 H34         5.7560    3.8750   -3.3320 hc        1 FGH      0.034533
     66 H35         6.4220    5.5170   -3.7150 hc        1 FGH      0.034533
     67 H36         5.3860    4.6550   -4.9250 hc        1 FGH      0.034533
@<TRIPOS>BOND
     1    1    2 2   
     2    2    3 1   
     3    2    9 1   
     4    3    4 1   
     5    3   33 1   
     6    3   34 1   
     7    4    5 1   
     8    4    6 1   
     9    4    7 1   
    10    5   35 1   
    11    5   36 1   
    12    5   37 1   
    13    6   38 1   
    14    6   39 1   
    15    6   40 1   
    16    7    8 1   
    17    7   41 1   
    18    7   42 1   
    19    8    9 2   
    20    8   17 1   
    21    9   10 1   
    22   10   11 1   
    23   10   16 2   
    24   11   12 1   
    25   11   43 1   
    26   11   44 1   
    27   12   13 1   
    28   12   45 1   
    29   12   46 1   
    30   13   14 1   
    31   13   15 1   
    32   14   47 1   
    33   14   48 1   
    34   14   49 1   
    35   15   16 1   
    36   15   50 1   
    37   15   51 1   
    38   16   17 1   
    39   17   18 1   
    40   18   19 ar  
    41   18   20 ar  
    42   19   28 ar  
    43   19   52 1   
    44   20   21 ar  
    45   20   53 1   
    46   21   22 1   
    47   21   27 ar  
    48   22   23 1   
    49   22   54 1   
    50   22   55 1   
    51   23   24 1   
    52   23   56 1   
    53   23   57 1   
    54   24   25 1   
    55   24   58 1   
    56   25   26 2   
    57   25   27 1   
    58   27   28 ar  
    59   28   29 1   
    60   29   30 1   
    61   29   59 1   
    62   29   60 1   
    63   30   31 1   
    64   30   32 1   
    65   30   61 1   
    66   31   62 1   
    67   31   63 1   
    68   31   64 1   
    69   32   65 1   
    70   32   66 1   
    71   32   67 1   
@<TRIPOS>SUBSTRUCTURE
     1 FGH         1 TEMP              0 ****  ****    0 ROOT
