@<TRIPOS>MOLECULE
FGH
   67    71     1     0     0
SMALL
bcc


@<TRIPOS>ATOM
      1 O1         -0.0940   -0.2800    0.0230 o         1 FGH     -0.549100
      2 C21         1.1410   -0.2030    0.0120 c         1 FGH      0.612700
      3 C22         1.9350   -0.2290    1.2960 c3        1 FGH     -0.174400
      4 C23         3.2150    0.6060    1.2670 c3        1 FGH     -0.039000
      5 C26         3.9750    0.3750    2.5680 c3        1 FGH     -0.092100
      6 C25         2.8700    2.0830    1.1510 c3        1 FGH     -0.092100
      7 C24         4.1200    0.1860    0.1000 c3        1 FGH     -0.014100
      8 C13         3.3400    0.0830   -1.1520 cc        1 FGH     -0.046600
      9 C14         1.9400   -0.1120   -1.1940 cd        1 FGH     -0.229600
     10 C15         1.5610   -0.1580   -2.5760 cd        1 FGH     -0.062300
     11 C19         0.2580   -0.3870   -3.2100 c3        1 FGH     -0.011100
     12 C18         0.3030   -0.0030   -4.6950 c3        1 FGH      0.168800
     13 N2          1.5000   -0.4610   -5.3920 n3        1 FGH     -0.728600
     14 C20         1.4330   -0.2180   -6.8160 c3        1 FGH      0.157100
     15 C17         2.7530    0.0360   -4.8230 c3        1 FGH      0.247100
     16 C16         2.7280    0.0250   -3.3340 cc        1 FGH     -0.129600
     17 N1          3.8220    0.1710   -2.4610 na        1 FGH      0.020800
     18 C6          5.1710    0.3590   -2.8350 ca        1 FGH      0.032800
     19 C5          5.5210    1.3010   -3.8170 ca        1 FGH     -0.156000
     20 C7          6.1910   -0.4010   -2.2240 ca        1 FGH     -0.156000
     21 C8          7.5180   -0.2120   -2.5970 ca        1 FGH     -0.033300
     22 C12         8.5780   -1.0330   -1.9480 c3        1 FGH     -0.061100
     23 C11         9.7510   -1.2850   -2.8960 c3        1 FGH      0.103000
     24 N          10.1720   -0.1120   -3.6030 ns        1 FGH     -0.577900
     25 C10         9.3060    0.9200   -3.9110 c         1 FGH      0.713100
     26 O           9.7750    1.9440   -4.4510 o         1 FGH     -0.643500
     27 C9          7.8650    0.7440   -3.5720 ca        1 FGH     -0.135600
     28 C4          6.8580    1.4980   -4.1910 ca        1 FGH      0.010700
     29 C3          7.1340    2.5010   -5.2610 c3        1 FGH     -0.044100
     30 C1          7.4270    3.8930   -4.7060 c3        1 FGH     -0.059700
     31 C2          7.9900    4.7680   -5.8070 c3        1 FGH     -0.092100
     32 C           6.1890    4.5270   -4.1090 c3        1 FGH     -0.092100
     33 H1          1.2830    0.1260    2.1370 hc        1 FGH      0.071200
     34 H2          2.1980   -1.3030    1.4990 hc        1 FGH      0.071200
     35 H3          4.9250    0.9630    2.5680 hc        1 FGH      0.040700
     36 H4          4.2230   -0.7060    2.6920 hc        1 FGH      0.040700
     37 H5          3.3550    0.7000    3.4370 hc        1 FGH      0.040700
     38 H6          3.8000    2.7010    1.1650 hc        1 FGH      0.040700
     39 H7          2.2220    2.3960    2.0040 hc        1 FGH      0.040700
     40 H8          2.3240    2.2770    0.1960 hc        1 FGH      0.040700
     41 H9          4.5710   -0.8190    0.3300 hc        1 FGH      0.058700
     42 H10         4.9620    0.9200   -0.0050 hc        1 FGH      0.058700
     43 H11        -0.0190   -1.4710   -3.1060 hc        1 FGH      0.070200
     44 H12        -0.5410    0.2140   -2.6990 hc        1 FGH      0.070200
     45 H13        -0.5830   -0.4740   -5.2070 h1        1 FGH      0.034200
     46 H14         0.1880    1.1180   -4.7760 h1        1 FGH      0.034200
     47 H16         0.5280   -0.7380   -7.2260 h1        1 FGH      0.033700
     48 H17         2.3470   -0.6510   -7.3010 h1        1 FGH      0.033700
     49 H18         1.3710    0.8730   -7.0810 h1        1 FGH      0.033700
     50 H19         3.5780   -0.6330   -5.2040 h1        1 FGH      0.041200
     51 H20         2.9770    1.0900   -5.1730 h1        1 FGH      0.041200
     52 H21         4.7410    1.9090   -4.3050 ha        1 FGH      0.155000
     53 H22         5.9410   -1.1530   -1.4590 ha        1 FGH      0.149000
     54 H23         8.1670   -2.0250   -1.6230 hc        1 FGH      0.066700
     55 H24         8.9360   -0.4970   -1.0270 hc        1 FGH      0.066700
     56 H25        10.6210   -1.6870   -2.3010 h1        1 FGH      0.046200
     57 H26         9.4510   -2.0800   -3.6410 h1        1 FGH      0.046200
     58 H27        11.1370    0.0010   -3.8090 hn        1 FGH      0.328500
     59 H28         8.0190    2.1660   -5.8690 hc        1 FGH      0.061700
     60 H29         6.2520    2.5610   -5.9540 hc        1 FGH      0.061700
     61 H30         8.2120    3.7850   -3.9030 hc        1 FGH      0.070700
     62 H31         7.2730    4.8430   -6.6580 hc        1 FGH      0.034533
     63 H32         8.9510    4.3400   -6.1830 hc        1 FGH      0.034533
     64 H33         8.1870    5.7960   -5.4170 hc        1 FGH      0.034533
     65 H34         6.4410    5.5220   -3.6700 hc        1 FGH      0.034533
     66 H35         5.7680    3.8780   -3.3030 hc        1 FGH      0.034533
     67 H36         5.4050    4.6740   -4.8910 hc        1 FGH      0.034533
@<TRIPOS>BOND
     1    1    2 2   
     2    2    3 1   
     3    2    9 1   
     4    3    4 1   
     5    3   33 1   
     6    3   34 1   
     7    4    5 1   
     8    4    6 1   
     9    4    7 1   
    10    5   35 1   
    11    5   36 1   
    12    5   37 1   
    13    6   38 1   
    14    6   39 1   
    15    6   40 1   
    16    7    8 1   
    17    7   41 1   
    18    7   42 1   
    19    8    9 2   
    20    8   17 1   
    21    9   10 1   
    22   10   11 1   
    23   10   16 2   
    24   11   12 1   
    25   11   43 1   
    26   11   44 1   
    27   12   13 1   
    28   12   45 1   
    29   12   46 1   
    30   13   14 1   
    31   13   15 1   
    32   14   47 1   
    33   14   48 1   
    34   14   49 1   
    35   15   16 1   
    36   15   50 1   
    37   15   51 1   
    38   16   17 1   
    39   17   18 1   
    40   18   19 ar  
    41   18   20 ar  
    42   19   28 ar  
    43   19   52 1   
    44   20   21 ar  
    45   20   53 1   
    46   21   22 1   
    47   21   27 ar  
    48   22   23 1   
    49   22   54 1   
    50   22   55 1   
    51   23   24 1   
    52   23   56 1   
    53   23   57 1   
    54   24   25 1   
    55   24   58 1   
    56   25   26 2   
    57   25   27 1   
    58   27   28 ar  
    59   28   29 1   
    60   29   30 1   
    61   29   59 1   
    62   29   60 1   
    63   30   31 1   
    64   30   32 1   
    65   30   61 1   
    66   31   62 1   
    67   31   63 1   
    68   31   64 1   
    69   32   65 1   
    70   32   66 1   
    71   32   67 1   
@<TRIPOS>SUBSTRUCTURE
     1 FGH         1 TEMP              0 ****  ****    0 ROOT
