@<TRIPOS>MOLECULE
FGH
   67    71     1     0     0
SMALL
bcc


@<TRIPOS>ATOM
      1 O1         -0.0910   -0.2840    0.0300 o         1 FGH     -0.549100
      2 C21         1.1440   -0.2070    0.0170 c         1 FGH      0.612700
      3 C22         1.9400   -0.2340    1.3010 c3        1 FGH     -0.174400
      4 C23         3.2190    0.6020    1.2700 c3        1 FGH     -0.039000
      5 C26         3.9810    0.3710    2.5700 c3        1 FGH     -0.092100
      6 C25         2.8740    2.0790    1.1550 c3        1 FGH     -0.092100
      7 C24         4.1220    0.1830    0.1020 c3        1 FGH     -0.014100
      8 C13         3.3410    0.0810   -1.1490 cc        1 FGH     -0.046600
      9 C14         1.9410   -0.1150   -1.1900 cd        1 FGH     -0.229600
     10 C15         1.5600   -0.1600   -2.5710 cd        1 FGH     -0.062300
     11 C19         0.2570   -0.3890   -3.2040 c3        1 FGH     -0.011100
     12 C18         0.3000   -0.0040   -4.6890 c3        1 FGH      0.168800
     13 N2          1.4970   -0.4620   -5.3870 n3        1 FGH     -0.728600
     14 C20         1.4290   -0.2180   -6.8110 c3        1 FGH      0.157100
     15 C17         2.7500    0.0350   -4.8200 c3        1 FGH      0.247100
     16 C16         2.7270    0.0240   -3.3310 cc        1 FGH     -0.129600
     17 N1          3.8220    0.1700   -2.4590 na        1 FGH      0.020800
     18 C6          5.1700    0.3590   -2.8340 ca        1 FGH      0.032800
     19 C5          5.5190    1.3020   -3.8160 ca        1 FGH     -0.156000
     20 C7          6.1910   -0.4020   -2.2250 ca        1 FGH     -0.156000
     21 C8          7.5180   -0.2120   -2.6000 ca        1 FGH     -0.033300
     22 C12         8.5790   -1.0330   -1.9520 c3        1 FGH     -0.061100
     23 C11         9.7510   -1.2840   -2.9020 c3        1 FGH      0.103000
     24 N          10.1710   -0.1110   -3.6090 n         1 FGH     -0.577900
     25 C10         9.3050    0.9220   -3.9150 c         1 FGH      0.713100
     26 O           9.7720    1.9460   -4.4540 o         1 FGH     -0.643500
     27 C9          7.8640    0.7450   -3.5740 ca        1 FGH     -0.135600
     28 C4          6.8550    1.5000   -4.1910 ca        1 FGH      0.010700
     29 C3          7.1300    2.5040   -5.2600 c3        1 FGH     -0.044100
     30 C1          7.4230    3.8950   -4.7040 c3        1 FGH     -0.059700
     31 C2          7.9850    4.7710   -5.8040 c3        1 FGH     -0.092100
     32 C           6.1860    4.5280   -4.1050 c3        1 FGH     -0.092100
     33 H1          2.2030   -1.3070    1.5030 hc        1 FGH      0.071200
     34 H2          1.2880    0.1210    2.1420 hc        1 FGH      0.071200
     35 H3          3.3610    0.6950    3.4400 hc        1 FGH      0.040700
     36 H4          4.9300    0.9580    2.5690 hc        1 FGH      0.040700
     37 H5          4.2290   -0.7110    2.6930 hc        1 FGH      0.040700
     38 H6          2.3260    2.2730    0.2010 hc        1 FGH      0.040700
     39 H7          3.8030    2.6980    1.1690 hc        1 FGH      0.040700
     40 H8          2.2260    2.3910    2.0100 hc        1 FGH      0.040700
     41 H9          4.9650    0.9180   -0.0040 hc        1 FGH      0.058700
     42 H10         4.5740   -0.8220    0.3310 hc        1 FGH      0.058700
     43 H11        -0.5420    0.2110   -2.6910 hc        1 FGH      0.070200
     44 H12        -0.0190   -1.4740   -3.1000 hc        1 FGH      0.070200
     45 H13         0.1850    1.1170   -4.7690 h1        1 FGH      0.034200
     46 H14        -0.5860   -0.4750   -5.2000 h1        1 FGH      0.034200
     47 H16         0.5230   -0.7380   -7.2200 h1        1 FGH      0.033700
     48 H17         2.3420   -0.6500   -7.2970 h1        1 FGH      0.033700
     49 H18         1.3650    0.8740   -7.0760 h1        1 FGH      0.033700
     50 H19         3.5750   -0.6330   -5.2020 h1        1 FGH      0.041200
     51 H20         2.9740    1.0900   -5.1700 h1        1 FGH      0.041200
     52 H21         4.7380    1.9100   -4.3020 ha        1 FGH      0.155000
     53 H22         5.9420   -1.1550   -1.4600 ha        1 FGH      0.149000
     54 H23         8.9380   -0.4980   -1.0310 hc        1 FGH      0.066700
     55 H24         8.1680   -2.0260   -1.6290 hc        1 FGH      0.066700
     56 H25        10.6210   -1.6860   -2.3090 h1        1 FGH      0.046200
     57 H26         9.4500   -2.0780   -3.6480 h1        1 FGH      0.046200
     58 H27        11.1350    0.0030   -3.8160 hn        1 FGH      0.328500
     59 H28         6.2470    2.5640   -5.9520 hc        1 FGH      0.061700
     60 H29         8.0140    2.1700   -5.8690 hc        1 FGH      0.061700
     61 H30         8.2090    3.7870   -3.9020 hc        1 FGH      0.070700
     62 H31         8.1820    5.7990   -5.4140 hc        1 FGH      0.034533
     63 H32         7.2660    4.8480   -6.6550 hc        1 FGH      0.034533
     64 H33         8.9450    4.3440   -6.1830 hc        1 FGH      0.034533
     65 H34         5.7660    3.8780   -3.2990 hc        1 FGH      0.034533
     66 H35         6.4380    5.5220   -3.6650 hc        1 FGH      0.034533
     67 H36         5.4010    4.6760   -4.8850 hc        1 FGH      0.034533
@<TRIPOS>BOND
     1    1    2 2   
     2    2    3 1   
     3    2    9 1   
     4    3    4 1   
     5    3   33 1   
     6    3   34 1   
     7    4    5 1   
     8    4    6 1   
     9    4    7 1   
    10    5   35 1   
    11    5   36 1   
    12    5   37 1   
    13    6   38 1   
    14    6   39 1   
    15    6   40 1   
    16    7    8 1   
    17    7   41 1   
    18    7   42 1   
    19    8    9 2   
    20    8   17 1   
    21    9   10 1   
    22   10   11 1   
    23   10   16 2   
    24   11   12 1   
    25   11   43 1   
    26   11   44 1   
    27   12   13 1   
    28   12   45 1   
    29   12   46 1   
    30   13   14 1   
    31   13   15 1   
    32   14   47 1   
    33   14   48 1   
    34   14   49 1   
    35   15   16 1   
    36   15   50 1   
    37   15   51 1   
    38   16   17 1   
    39   17   18 1   
    40   18   19 ar  
    41   18   20 ar  
    42   19   28 ar  
    43   19   52 1   
    44   20   21 ar  
    45   20   53 1   
    46   21   22 1   
    47   21   27 ar  
    48   22   23 1   
    49   22   54 1   
    50   22   55 1   
    51   23   24 1   
    52   23   56 1   
    53   23   57 1   
    54   24   25 1   
    55   24   58 1   
    56   25   26 2   
    57   25   27 1   
    58   27   28 ar  
    59   28   29 1   
    60   29   30 1   
    61   29   59 1   
    62   29   60 1   
    63   30   31 1   
    64   30   32 1   
    65   30   61 1   
    66   31   62 1   
    67   31   63 1   
    68   31   64 1   
    69   32   65 1   
    70   32   66 1   
    71   32   67 1   
@<TRIPOS>SUBSTRUCTURE
     1 FGH         1 TEMP              0 ****  ****    0 ROOT
