@<TRIPOS>MOLECULE
FGK
   77    74     1     0     0
SMALL
bcc


@<TRIPOS>ATOM
      1 C1         -3.4030    1.0420    4.6270 c1        1 FGK      0.309000
      2 O1         -3.9500    1.1360    3.5320 o         1 FGK     -0.385000
      3 C2         -4.1250    0.3420    5.7900 c2        1 FGK     -0.241000
      4 N1         -2.1110    1.6130    4.8330 n3        1 FGK     -0.375000
      5 C3         -1.4360    2.2520    3.7560 c3        1 FGK      0.019000
      6 C4         -0.2210    1.4030    3.3340 c2        1 FGK      0.286000
      7 O2          0.7340    1.2850    4.0920 o         1 FGK     -0.374000
      8 C5         -0.9660    3.6140    4.1950 c3        1 FGK     -0.131000
      9 C6         -2.1500    4.6350    4.1050 c2        1 FGK     -0.079000
     10 C7         -2.5780    5.3100    5.2500 c1        1 FGK     -0.132000
     11 C8         -2.7520    4.9020    2.8720 c2        1 FGK     -0.122000
     12 C9         -3.6080    6.2520    5.1630 c1        1 FGK     -0.129000
     13 C10        -3.7850    5.8470    2.7870 c1        1 FGK     -0.125000
     14 C11        -4.2100    6.5180    3.9320 c1        1 FGK     -0.129000
     15 N2         -0.1560    0.8510    2.0020 n         1 FGK     -0.348000
     16 C12         0.6820   -0.3170    1.7390 c3        1 FGK      0.007000
     17 C13         1.3910   -0.1410    0.4350 c2        1 FGK      0.286000
     18 O4          1.5080    0.9610   -0.0410 o         1 FGK     -0.403000
     19 C14        -0.1780   -1.5470    1.6820 c3        1 FGK     -0.157000
     20 C15         0.0040   -2.3630    2.9690 c3        1 FGK     -0.202000
     21 C16        -0.7380   -3.6750    2.8440 c2        1 FGK      0.319000
     22 O5         -1.9730   -3.7330    3.1420 o         1 FGK     -0.611500
     23 O6         -0.1040   -4.7280    2.6090 o         1 FGK     -0.611500
     24 N3          2.0510   -1.2900   -0.2010 n         1 FGK     -0.375000
     25 C17         2.2590   -1.3050   -1.6190 c3        1 FGK      0.040000
     26 C18         0.9360   -1.4980   -2.3240 c2        1 FGK      0.298000
     27 O8          0.1160   -2.3310   -1.8900 o         1 FGK     -0.439000
     28 C19         3.1960   -2.4550   -1.9800 c3        1 FGK     -0.175000
     29 C20         4.2870   -1.9490   -2.9610 c3        1 FGK     -0.160000
     30 C21         4.7300   -3.0890   -3.8510 c3        1 FGK     -0.167000
     31 C22         4.8570   -2.5790   -5.3280 c3        1 FGK     -0.121000
     32 N4          4.9940   -3.7260   -6.2330 n4        1 FGK     -0.081000
     33 N5          0.6720   -0.8060   -3.5660 n         1 FGK     -0.353000
     34 C23        -0.6420   -0.8060   -4.1120 c3        1 FGK     -0.016000
     35 C24        -0.6090   -1.3880   -5.5070 c2        1 FGK      0.244000
     36 O10         0.3800   -1.2300   -6.2130 o         1 FGK     -0.263000
     37 C25        -1.1610    0.6030   -4.1700 c3        1 FGK     -0.226000
     38 C26        -1.8530   -2.0270   -6.0840 c3        1 FGK     -0.179000
     39 CL1        -1.5260   -2.5790   -7.7020 cl        1 FGK     -0.103000
     40 H2         -4.7800    0.9640    6.1910 ha        1 FGK      0.108333
     41 H3         -3.4690    0.0760    6.4700 ha        1 FGK      0.108333
     42 H4         -4.5970   -0.4660    5.4510 ha        1 FGK      0.108333
     43 H5         -1.7680    1.6660    5.6790 hn        1 FGK      0.233000
     44 H7         -2.0360    2.3450    3.0120 h1        1 FGK      0.130000
     45 H8         -0.2310    3.9120    3.6110 hc        1 FGK      0.116500
     46 H9         -0.6440    3.5640    5.1280 hc        1 FGK      0.116500
     47 H10        -2.1630    5.1260    6.1020 ha        1 FGK      0.130000
     48 H11        -2.4530    4.4230    2.0610 ha        1 FGK      0.136000
     49 H12        -3.9150    6.7260    5.9770 ha        1 FGK      0.132000
     50 H13        -4.2070    6.0350    1.9250 ha        1 FGK      0.134000
     51 H14        -4.9760    7.1380    3.8820 ha        1 FGK      0.132000
     52 H16        -0.5740    1.2820    1.3070 hn        1 FGK      0.257000
     53 H18         1.3310   -0.4130    2.4460 h1        1 FGK      0.149000
     54 H19        -1.1450   -1.2750    1.5940 hc        1 FGK      0.101000
     55 H20         0.0850   -2.1030    0.8940 hc        1 FGK      0.101000
     56 H21         0.9680   -2.5390    3.1150 hc        1 FGK      0.100000
     57 H22        -0.3540   -1.8590    3.7250 hc        1 FGK      0.100000
     58 H25         2.3760   -1.9770    0.3180 hn        1 FGK      0.268000
     59 H27         2.6650   -0.4420   -1.9040 h1        1 FGK      0.120000
     60 H28         2.6730   -3.1850   -2.4140 hc        1 FGK      0.109000
     61 H29         3.6190   -2.7950   -1.1720 hc        1 FGK      0.109000
     62 H30         3.9250   -1.2340   -3.5060 hc        1 FGK      0.101500
     63 H31         5.0690   -1.6100   -2.4430 hc        1 FGK      0.101500
     64 H32         4.0710   -3.8100   -3.8100 hc        1 FGK      0.099500
     65 H33         5.5920   -3.4200   -3.5480 hc        1 FGK      0.099500
     66 H34         4.0520   -2.0660   -5.5690 hx        1 FGK      0.129500
     67 H35         5.6550   -1.9970   -5.4090 hx        1 FGK      0.129500
     68 H36         5.7270   -4.2190   -5.9920 hn        1 FGK      0.268667
     69 H37         5.0980   -3.4210   -7.1020 hn        1 FGK      0.268667
     70 H38         4.2390   -4.2520   -6.1790 hn        1 FGK      0.268667
     71 H40         1.3520   -0.3960   -4.0130 hn        1 FGK      0.265000
     72 H42        -1.2310   -1.3470   -3.5460 h1        1 FGK      0.096000
     73 H43        -1.0060    1.0410   -3.3140 hc        1 FGK      0.092667
     74 H44        -2.1300    0.5900   -4.3630 hc        1 FGK      0.092667
     75 H45        -0.6940    1.0930   -4.8770 hc        1 FGK      0.092667
     76 H46        -2.1160   -2.7810   -5.5300 h1        1 FGK      0.152000
     77 H47        -2.5690   -1.3770   -6.1040 h1        1 FGK      0.152000
@<TRIPOS>BOND
     1    1    2 1   
     2    1    4 1   
     3    3   40 1   
     4    3   41 1   
     5    3   42 1   
     6    4    5 1   
     7    4   43 1   
     8    5    6 1   
     9    5    8 1   
    10    5   44 1   
    11    6    7 1   
    12    6   15 1   
    13    8    9 1   
    14    8   45 1   
    15    8   46 1   
    16    9   10 1   
    17    9   11 1   
    18   10   47 1   
    19   11   13 1   
    20   11   48 1   
    21   12   14 1   
    22   12   49 1   
    23   13   50 1   
    24   14   51 1   
    25   15   16 1   
    26   15   52 1   
    27   16   17 1   
    28   16   19 1   
    29   16   53 1   
    30   17   18 1   
    31   17   24 1   
    32   19   20 1   
    33   19   54 1   
    34   19   55 1   
    35   20   21 1   
    36   20   56 1   
    37   20   57 1   
    38   21   22 1   
    39   21   23 1   
    40   24   25 1   
    41   24   58 1   
    42   25   26 1   
    43   25   28 1   
    44   25   59 1   
    45   26   27 1   
    46   26   33 1   
    47   28   29 1   
    48   28   60 1   
    49   28   61 1   
    50   29   30 1   
    51   29   62 1   
    52   29   63 1   
    53   30   31 1   
    54   30   64 1   
    55   30   65 1   
    56   31   32 1   
    57   31   66 1   
    58   31   67 1   
    59   32   68 1   
    60   32   69 1   
    61   32   70 1   
    62   33   34 1   
    63   33   71 1   
    64   34   35 1   
    65   34   37 1   
    66   34   72 1   
    67   35   36 1   
    68   35   38 1   
    69   37   73 1   
    70   37   74 1   
    71   37   75 1   
    72   38   39 1   
    73   38   76 1   
    74   38   77 1   
@<TRIPOS>SUBSTRUCTURE
     1 FGK         1 TEMP              0 ****  ****    0 ROOT
