@<TRIPOS>MOLECULE
FGK
   77    77     1     0     0
SMALL
bcc


@<TRIPOS>ATOM
      1 C1          4.6190   -0.4730    1.2920 c         1 FGK      0.707100
      2 O1          3.9490   -1.3950    1.8120 o         1 FGK     -0.676100
      3 C2          5.5760    0.3510    2.1120 c3        1 FGK     -0.184100
      4 N1          4.4930   -0.1610   -0.0510 n         1 FGK     -0.567900
      5 C3          3.5290   -0.7450   -0.9470 c3        1 FGK      0.067700
      6 C4          2.0940   -0.4350   -0.4500 c         1 FGK      0.654100
      7 O2          1.4270   -1.2860    0.1810 o         1 FGK     -0.648100
      8 C5          3.6480   -2.2680   -1.1310 c3        1 FGK     -0.046100
      9 C6          4.8850   -2.6380   -1.8680 ca        1 FGK     -0.084300
     10 C7          5.9540   -3.2450   -1.2010 ca        1 FGK     -0.126500
     11 C8          4.9810   -2.4010   -3.2460 ca        1 FGK     -0.126500
     12 C9          7.1050   -3.6060   -1.9010 ca        1 FGK     -0.129000
     13 C10         6.1330   -2.7610   -3.9420 ca        1 FGK     -0.129000
     14 C11         7.1970   -3.3630   -3.2710 ca        1 FGK     -0.129000
     15 N2          1.5940    0.8260   -0.6760 n         1 FGK     -0.535900
     16 C12         0.4640    1.2970    0.0840 c3        1 FGK      0.020700
     17 C13        -0.8950    0.8860   -0.5240 c         1 FGK      0.644100
     18 O4         -1.1120    0.7470   -1.7380 o         1 FGK     -0.580100
     19 C14         0.4810    2.7990    0.3900 c3        1 FGK     -0.067400
     20 C15         1.5410    3.1490    1.4190 c3        1 FGK     -0.172400
     21 C16         1.6420    2.0800    2.4900 c         1 FGK      0.900600
     22 O5          0.5990    1.6690    3.1000 o         1 FGK     -0.874800
     23 O6          2.7500    1.4990    2.7160 o         1 FGK     -0.874800
     24 N3         -1.9030    0.6540    0.4180 n         1 FGK     -0.562900
     25 C17        -2.7340   -0.5200    0.2870 c3        1 FGK      0.033700
     26 C18        -4.1720   -0.1390   -0.1370 c         1 FGK      0.657100
     27 O8         -5.1650   -0.4620    0.5470 o         1 FGK     -0.630100
     28 C19        -2.7900   -1.3580    1.5750 c3        1 FGK     -0.089400
     29 C20        -1.4240   -1.8740    1.9920 c3        1 FGK     -0.099400
     30 C21        -0.9420   -1.2450    3.2840 c3        1 FGK     -0.112400
     31 C22         0.4260   -1.7820    3.7040 c3        1 FGK      0.122800
     32 N4          1.5570   -0.9600    3.2250 n4        1 FGK     -0.854600
     33 N5         -4.2930    0.5330   -1.3300 n         1 FGK     -0.552900
     34 C23        -5.5670    0.9940   -1.8240 c3        1 FGK      0.012700
     35 C24        -6.2390   -0.0820   -2.7010 c         1 FGK      0.542100
     36 O10        -5.9570   -0.2170   -3.8890 o         1 FGK     -0.492100
     37 C25        -5.4630    2.2860   -2.6310 c3        1 FGK     -0.107100
     38 C26        -7.2410   -0.9010   -1.9440 c3        1 FGK     -0.084000
     39 CL1        -7.8110   -2.3250   -2.7780 cl        1 FGK     -0.157400
     40 H2          5.9870   -0.2840    2.9330 hc        1 FGK      0.081367
     41 H3          6.4200    0.7650    1.5120 hc        1 FGK      0.081367
     42 H4          4.9860    1.1950    2.5630 hc        1 FGK      0.081367
     43 H5          5.0200    0.6020   -0.4050 hn        1 FGK      0.319500
     44 H7          3.6770   -0.2670   -1.9630 h1        1 FGK      0.069700
     45 H8          3.6120   -2.7660   -0.1240 hc        1 FGK      0.082200
     46 H9          2.7450   -2.6100   -1.7060 hc        1 FGK      0.082200
     47 H10         5.8830   -3.4410   -0.1200 ha        1 FGK      0.133500
     48 H11         4.1390   -1.9350   -3.7800 ha        1 FGK      0.133500
     49 H12         7.9410   -4.0840   -1.3700 ha        1 FGK      0.132500
     50 H13         6.2000   -2.5740   -5.0240 ha        1 FGK      0.132500
     51 H14         8.1050   -3.6490   -3.8220 ha        1 FGK      0.133000
     52 H16         2.1010    1.4850   -1.2140 hn        1 FGK      0.323500
     53 H18         0.5100    0.7380    1.0810 h1        1 FGK      0.095700
     54 H19         0.6380    3.3930   -0.5460 hc        1 FGK      0.059200
     55 H20        -0.5260    3.0690    0.8050 hc        1 FGK      0.059200
     56 H21         2.5400    3.2630    0.9240 hc        1 FGK      0.054200
     57 H22         1.2810    4.1250    1.9030 hc        1 FGK      0.054200
     58 H25        -1.6930    0.9140    1.3610 hn        1 FGK      0.319500
     59 H27        -2.3220   -1.1770   -0.5440 h1        1 FGK      0.085700
     60 H28        -3.2600   -0.7540    2.3950 hc        1 FGK      0.072200
     61 H29        -3.4810   -2.2200    1.3760 hc        1 FGK      0.072200
     62 H30        -1.4860   -2.9870    2.1310 hc        1 FGK      0.058700
     63 H31        -0.6620   -1.6960    1.1840 hc        1 FGK      0.058700
     64 H32        -0.9110   -0.1230    3.1890 hc        1 FGK      0.084200
     65 H33        -1.6670   -1.4860    4.1070 hc        1 FGK      0.084200
     66 H34         0.4850   -1.8060    4.8300 hx        1 FGK      0.077200
     67 H35         0.5640   -2.8310    3.3150 hx        1 FGK      0.077200
     68 H36         1.5430   -0.8710    2.2000 hn        1 FGK      0.477800
     69 H37         1.5040    0.0180    3.6120 hn        1 FGK      0.477800
     70 H38         2.4580   -1.3730    3.4790 hn        1 FGK      0.477800
     71 H40        -3.4780    0.7640   -1.8570 hn        1 FGK      0.347500
     72 H42        -6.2400    1.1770   -0.9290 h1        1 FGK      0.082700
     73 H43        -4.9880    3.0930   -2.0250 hc        1 FGK      0.054367
     74 H44        -4.8630    2.1240   -3.5600 hc        1 FGK      0.054367
     75 H45        -6.4890    2.6100   -2.9250 hc        1 FGK      0.054367
     76 H46        -6.7820   -1.2420   -0.9780 h1        1 FGK      0.102700
     77 H47        -8.1380   -0.2700   -1.7260 h1        1 FGK      0.102700
@<TRIPOS>BOND
     1    1    2 2   
     2    1    3 1   
     3    1    4 1   
     4    3   40 1   
     5    3   41 1   
     6    3   42 1   
     7    4    5 1   
     8    4   43 1   
     9    5    6 1   
    10    5    8 1   
    11    5   44 1   
    12    6    7 2   
    13    6   15 1   
    14    8    9 1   
    15    8   45 1   
    16    8   46 1   
    17    9   10 ar  
    18    9   11 ar  
    19   10   12 ar  
    20   10   47 1   
    21   11   13 ar  
    22   11   48 1   
    23   12   14 ar  
    24   12   49 1   
    25   13   14 ar  
    26   13   50 1   
    27   14   51 1   
    28   15   16 1   
    29   15   52 1   
    30   16   17 1   
    31   16   19 1   
    32   16   53 1   
    33   17   18 2   
    34   17   24 1   
    35   19   20 1   
    36   19   54 1   
    37   19   55 1   
    38   20   21 1   
    39   20   56 1   
    40   20   57 1   
    41   21   22 1   
    42   21   23 1   
    43   24   25 1   
    44   24   58 1   
    45   25   26 1   
    46   25   28 1   
    47   25   59 1   
    48   26   27 2   
    49   26   33 1   
    50   28   29 1   
    51   28   60 1   
    52   28   61 1   
    53   29   30 1   
    54   29   62 1   
    55   29   63 1   
    56   30   31 1   
    57   30   64 1   
    58   30   65 1   
    59   31   32 1   
    60   31   66 1   
    61   31   67 1   
    62   32   68 1   
    63   32   69 1   
    64   32   70 1   
    65   33   34 1   
    66   33   71 1   
    67   34   35 1   
    68   34   37 1   
    69   34   72 1   
    70   35   36 2   
    71   35   38 1   
    72   37   73 1   
    73   37   74 1   
    74   37   75 1   
    75   38   39 1   
    76   38   76 1   
    77   38   77 1   
@<TRIPOS>SUBSTRUCTURE
     1 FGK         1 TEMP              0 ****  ****    0 ROOT
