@<TRIPOS>MOLECULE
FGL
   11    10     1     0     0
SMALL
bcc


@<TRIPOS>ATOM
      1 N           1.7220    0.9090   -0.1370 n3        1 FGL     -0.914800
      2 CA          0.2820    0.6670   -0.0520 c3        1 FGL     -0.058500
      3 C          -0.2850    0.0250   -1.3480 c         1 FGL      0.914600
      4 O           0.4510   -0.7530   -2.0360 o         1 FGL     -0.884300
      5 OXT        -1.4400    0.3600   -1.7490 o         1 FGL     -0.884300
      6 OG1        -1.1990    0.1740    1.8190 o         1 FGL     -0.884300
      7 OG2         0.7060   -0.9500    1.7330 o         1 FGL     -0.884300
      8 CB         -0.1110   -0.1100    1.2340 c         1 FGL      0.914600
      9 H2          2.0600    0.4900   -0.9890 hn        1 FGL      0.324800
     10 H           2.1680    0.4070    0.6140 hn        1 FGL      0.324800
     11 HA         -0.2050    1.6830    0.0340 h1        1 FGL      0.032700
@<TRIPOS>BOND
     1    1    2 1   
     2    1    9 1   
     3    1   10 1   
     4    2    3 1   
     5    2    8 1   
     6    2   11 1   
     7    3    4 1   
     8    3    5 1   
     9    6    8 1   
    10    7    8 1   
@<TRIPOS>SUBSTRUCTURE
     1 FGL         1 TEMP              0 ****  ****    0 ROOT
