@<TRIPOS>MOLECULE
FGM
   59    58     1     0     0
SMALL
bcc


@<TRIPOS>ATOM
      1 CBU         0.0150    0.0070   -0.0480 c3        1 FGM     -0.091100
      2 CBV         1.5170   -0.1150    0.0010 c3        1 FGM     -0.080400
      3 CBW         2.0430    0.0420    1.4110 c3        1 FGM     -0.079400
      4 CBX         3.5510   -0.0800    1.4550 c3        1 FGM     -0.079400
      5 CBY         4.0760    0.0770    2.8660 c3        1 FGM     -0.078400
      6 CBZ         5.5840   -0.0450    2.9090 c3        1 FGM     -0.079400
      7 CCA         6.1100    0.1110    4.3200 c3        1 FGM     -0.078400
      8 CCB         7.6190   -0.0110    4.3640 c3        1 FGM     -0.078400
      9 CCC         8.1450    0.1400    5.7750 c3        1 FGM     -0.073400
     10 CCD         9.6520    0.0260    5.8160 c3        1 FGM     -0.115400
     11 CCE        10.1750    0.0560    7.2530 c3        1 FGM      0.180100
     12 OCF         9.6610   -1.0360    7.9950 oh        1 FGM     -0.649800
     13 CCG        11.7040    0.1030    7.2580 c3        1 FGM     -0.220700
     14 CCH        12.2220    0.1400    8.6840 c3        1 FGM     -0.048400
     15 CCI        13.6910    0.5050    8.7280 c3        1 FGM     -0.088400
     16 CCJ        14.2660    0.3190   10.1150 c3        1 FGM     -0.074400
     17 CCK        15.7270    0.7120   10.1620 c3        1 FGM     -0.079400
     18 CCL        16.3120    0.5120   11.5440 c3        1 FGM     -0.080400
     19 CCM        17.7650    0.9050   11.5960 c3        1 FGM     -0.090100
     20 CCQ        12.3260   -1.1000    6.5060 c         1 FGM      0.914600
     21 OCR        11.7570   -2.2300    6.5930 o         1 FGM     -0.845300
     22 OCS        13.3800   -0.8980    5.8430 o         1 FGM     -0.845300
     23 HBU        -0.4640   -0.7790    0.5850 hc        1 FGM      0.029367
     24 HBUA       -0.3120    1.0060    0.3290 hc        1 FGM      0.029367
     25 HBUB       -0.3510   -0.1120   -1.0960 hc        1 FGM      0.029367
     26 HBV         1.9790    0.6660   -0.6590 hc        1 FGM      0.038200
     27 HBVA        1.8270   -1.1140   -0.4040 hc        1 FGM      0.038200
     28 HBW         1.7350    1.0410    1.8180 hc        1 FGM      0.037700
     29 HBWA        1.5830   -0.7390    2.0720 hc        1 FGM      0.037700
     30 HBX         3.8590   -1.0790    1.0490 hc        1 FGM      0.038700
     31 HBXA        4.0110    0.7010    0.7940 hc        1 FGM      0.038700
     32 HBY         3.6170   -0.7050    3.5270 hc        1 FGM      0.036700
     33 HBYA        3.7680    1.0760    3.2730 hc        1 FGM      0.036700
     34 HBZ         5.8930   -1.0440    2.5030 hc        1 FGM      0.038700
     35 HBZA        6.0440    0.7360    2.2480 hc        1 FGM      0.038700
     36 HCA         5.8010    1.1090    4.7280 hc        1 FGM      0.034700
     37 HCAA        5.6530   -0.6710    4.9810 hc        1 FGM      0.034700
     38 HCB         7.9280   -1.0080    3.9540 hc        1 FGM      0.038200
     39 HCBA        8.0780    0.7730    3.7050 hc        1 FGM      0.038200
     40 HCC         7.7030   -0.6530    6.4350 hc        1 FGM      0.036200
     41 HCCA        7.8270    1.1320    6.1910 hc        1 FGM      0.036200
     42 HCD         9.9830   -0.9390    5.3460 hc        1 FGM      0.057200
     43 HCDA       10.1160    0.8660    5.2390 hc        1 FGM      0.057200
     44 HCE         9.7630    0.9630    7.7840 h1        1 FGM      0.021700
     45 HOCF       10.1420   -1.8300    7.6990 ho        1 FGM      0.449000
     46 HCG        12.0240    1.0380    6.7240 hc        1 FGM      0.042700
     47 HCH        11.6320    0.8810    9.2860 hc        1 FGM      0.027200
     48 HCHA       12.0600   -0.8690    9.1480 hc        1 FGM      0.027200
     49 HCI        14.2450   -0.1340    7.9860 hc        1 FGM      0.055700
     50 HCIA       13.8230    1.5720    8.4070 hc        1 FGM      0.055700
     51 HCJ        14.1560   -0.7540   10.4240 hc        1 FGM      0.029700
     52 HCJA       13.6870    0.9360   10.8520 hc        1 FGM      0.029700
     53 HCK        16.3010    0.1000    9.4180 hc        1 FGM      0.039200
     54 HCKA       15.8370    1.7870    9.8600 hc        1 FGM      0.039200
     55 HCL        15.7310    1.1200   12.2870 hc        1 FGM      0.033200
     56 HCLA       16.2020   -0.5640   11.8430 hc        1 FGM      0.033200
     57 HCM        17.8920    1.9820   11.3260 hc        1 FGM      0.025367
     58 HCMA       18.1780    0.7480   12.6210 hc        1 FGM      0.025367
     59 HCMB       18.3630    0.2940   10.8770 hc        1 FGM      0.025367
@<TRIPOS>BOND
     1    1    2 1   
     2    1   23 1   
     3    1   24 1   
     4    1   25 1   
     5    2    3 1   
     6    2   26 1   
     7    2   27 1   
     8    3    4 1   
     9    3   28 1   
    10    3   29 1   
    11    4    5 1   
    12    4   30 1   
    13    4   31 1   
    14    5    6 1   
    15    5   32 1   
    16    5   33 1   
    17    6    7 1   
    18    6   34 1   
    19    6   35 1   
    20    7    8 1   
    21    7   36 1   
    22    7   37 1   
    23    8    9 1   
    24    8   38 1   
    25    8   39 1   
    26    9   10 1   
    27    9   40 1   
    28    9   41 1   
    29   10   11 1   
    30   10   42 1   
    31   10   43 1   
    32   11   12 1   
    33   11   13 1   
    34   11   44 1   
    35   12   45 1   
    36   13   14 1   
    37   13   20 1   
    38   13   46 1   
    39   14   15 1   
    40   14   47 1   
    41   14   48 1   
    42   15   16 1   
    43   15   49 1   
    44   15   50 1   
    45   16   17 1   
    46   16   51 1   
    47   16   52 1   
    48   17   18 1   
    49   17   53 1   
    50   17   54 1   
    51   18   19 1   
    52   18   55 1   
    53   18   56 1   
    54   19   57 1   
    55   19   58 1   
    56   19   59 1   
    57   20   21 1   
    58   20   22 1   
@<TRIPOS>SUBSTRUCTURE
     1 FGM         1 TEMP              0 ****  ****    0 ROOT
