@<TRIPOS>MOLECULE
FGM
   59    58     1     0     0
SMALL
bcc


@<TRIPOS>ATOM
      1 CBU         0.0230    0.0040   -0.0600 c3        1 FGM     -0.091100
      2 CBV         1.5240   -0.1210   -0.0090 c3        1 FGM     -0.080400
      3 CBW         2.0490    0.0410    1.4020 c3        1 FGM     -0.079400
      4 CBX         3.5560   -0.0860    1.4490 c3        1 FGM     -0.079400
      5 CBY         4.0800    0.0770    2.8600 c3        1 FGM     -0.078400
      6 CBZ         5.5870   -0.0510    2.9060 c3        1 FGM     -0.079400
      7 CCA         6.1120    0.1130    4.3170 c3        1 FGM     -0.078400
      8 CCB         7.6200   -0.0160    4.3630 c3        1 FGM     -0.078400
      9 CCC         8.1450    0.1430    5.7740 c3        1 FGM     -0.073400
     10 CCD         9.6510    0.0210    5.8190 c3        1 FGM     -0.115400
     11 CCE        10.1730    0.0610    7.2550 c3        1 FGM      0.180100
     12 OCF         9.6520   -1.0220    8.0060 oh        1 FGM     -0.649800
     13 CCG        11.7020    0.1000    7.2620 c3        1 FGM     -0.220700
     14 CCH        12.2190    0.1470    8.6880 c3        1 FGM     -0.048400
     15 CCI        13.6890    0.5040    8.7310 c3        1 FGM     -0.088400
     16 CCJ        14.2620    0.3280   10.1200 c3        1 FGM     -0.074400
     17 CCK        15.7250    0.7140   10.1650 c3        1 FGM     -0.079400
     18 CCL        16.3070    0.5240   11.5500 c3        1 FGM     -0.080400
     19 CCM        17.7630    0.9100   11.5990 c3        1 FGM     -0.090100
     20 CCQ        12.3180   -1.1140    6.5220 c         1 FGM      0.914600
     21 OCR        11.7420   -2.2400    6.6180 o         1 FGM     -0.845300
     22 OCS        13.3740   -0.9240    5.8590 o         1 FGM     -0.845300
     23 HBU        -0.3010    1.0060    0.3120 hc        1 FGM      0.029367
     24 HBUA       -0.3420   -0.1190   -1.1080 hc        1 FGM      0.029367
     25 HBUB       -0.4590   -0.7770    0.5760 hc        1 FGM      0.029367
     26 HBV         1.9900    0.6550   -0.6710 hc        1 FGM      0.038200
     27 HBVA        1.8330   -1.1230   -0.4080 hc        1 FGM      0.038200
     28 HBW         1.7430    1.0430    1.8030 hc        1 FGM      0.037700
     29 HBWA        1.5850   -0.7350    2.0670 hc        1 FGM      0.037700
     30 HBX         4.0200    0.6900    0.7840 hc        1 FGM      0.038700
     31 HBXA        3.8620   -1.0880    1.0480 hc        1 FGM      0.038700
     32 HBY         3.7750    1.0800    3.2610 hc        1 FGM      0.036700
     33 HBYA        3.6170   -0.6990    3.5250 hc        1 FGM      0.036700
     34 HBZ         6.0510    0.7240    2.2410 hc        1 FGM      0.038700
     35 HBZA        5.8930   -1.0540    2.5070 hc        1 FGM      0.038700
     36 HCA         5.6500   -0.6630    4.9820 hc        1 FGM      0.034700
     37 HCAA        5.8070    1.1150    4.7180 hc        1 FGM      0.034700
     38 HCB         7.9250   -1.0180    3.9620 hc        1 FGM      0.038200
     39 HCBA        8.0840    0.7600    3.6990 hc        1 FGM      0.038200
     40 HCC         7.6970   -0.6430    6.4400 hc        1 FGM      0.036200
     41 HCCA        7.8310    1.1400    6.1820 hc        1 FGM      0.036200
     42 HCD        10.1200    0.8540    5.2350 hc        1 FGM      0.057200
     43 HCDA        9.9780   -0.9500    5.3570 hc        1 FGM      0.057200
     44 HCE         9.7650    0.9760    7.7780 h1        1 FGM      0.021700
     45 HOCF       10.1280   -1.8200    7.7180 ho        1 FGM      0.449000
     46 HCG        12.0270    1.0280    6.7200 hc        1 FGM      0.042700
     47 HCH        12.0510   -0.8570    9.1610 hc        1 FGM      0.027200
     48 HCHA       11.6310    0.8960    9.2830 hc        1 FGM      0.027200
     49 HCI        14.2400   -0.1450    7.9950 hc        1 FGM      0.055700
     50 HCIA       13.8270    1.5670    8.4000 hc        1 FGM      0.055700
     51 HCJ        13.6850    0.9550   10.8510 hc        1 FGM      0.029700
     52 HCJA       14.1460   -0.7410   10.4390 hc        1 FGM      0.029700
     53 HCK        16.2970    0.0910    9.4270 hc        1 FGM      0.039200
     54 HCKA       15.8410    1.7850    9.8530 hc        1 FGM      0.039200
     55 HCL        15.7280    1.1420   12.2870 hc        1 FGM      0.033200
     56 HCLA       16.1910   -0.5490   11.8580 hc        1 FGM      0.033200
     57 HCM        18.1730    0.7600   12.6270 hc        1 FGM      0.025367
     58 HCMA       18.3580    0.2880   10.8870 hc        1 FGM      0.025367
     59 HCMB       17.8950    1.9830   11.3190 hc        1 FGM      0.025367
@<TRIPOS>BOND
     1    1    2 1   
     2    1   23 1   
     3    1   24 1   
     4    1   25 1   
     5    2    3 1   
     6    2   26 1   
     7    2   27 1   
     8    3    4 1   
     9    3   28 1   
    10    3   29 1   
    11    4    5 1   
    12    4   30 1   
    13    4   31 1   
    14    5    6 1   
    15    5   32 1   
    16    5   33 1   
    17    6    7 1   
    18    6   34 1   
    19    6   35 1   
    20    7    8 1   
    21    7   36 1   
    22    7   37 1   
    23    8    9 1   
    24    8   38 1   
    25    8   39 1   
    26    9   10 1   
    27    9   40 1   
    28    9   41 1   
    29   10   11 1   
    30   10   42 1   
    31   10   43 1   
    32   11   12 1   
    33   11   13 1   
    34   11   44 1   
    35   12   45 1   
    36   13   14 1   
    37   13   20 1   
    38   13   46 1   
    39   14   15 1   
    40   14   47 1   
    41   14   48 1   
    42   15   16 1   
    43   15   49 1   
    44   15   50 1   
    45   16   17 1   
    46   16   51 1   
    47   16   52 1   
    48   17   18 1   
    49   17   53 1   
    50   17   54 1   
    51   18   19 1   
    52   18   55 1   
    53   18   56 1   
    54   19   57 1   
    55   19   58 1   
    56   19   59 1   
    57   20   21 1   
    58   20   22 1   
@<TRIPOS>SUBSTRUCTURE
     1 FGM         1 TEMP              0 ****  ****    0 ROOT
