@<TRIPOS>MOLECULE
FGM
   59    58     1     0     0
SMALL
bcc


@<TRIPOS>ATOM
      1 CBU         1.8280    4.1370   -8.9490 c3        1 FGM     -0.091100
      2 CBV         0.6150    3.7890   -8.1160 c3        1 FGM     -0.080400
      3 CBW         0.9250    4.0180   -6.6530 c3        1 FGM     -0.080400
      4 CBX        -0.2280    3.5190   -5.8090 c3        1 FGM     -0.077400
      5 CBY         0.2520    3.2740   -4.3950 c3        1 FGM     -0.080400
      6 CBZ        -0.9050    2.7930   -3.5470 c3        1 FGM     -0.076400
      7 CCA        -0.4270    1.7030   -2.6130 c3        1 FGM     -0.084400
      8 CCB        -1.2670    1.7130   -1.3550 c3        1 FGM     -0.071400
      9 CCC        -1.2940    0.3240   -0.7560 c3        1 FGM     -0.074400
     10 CCD        -1.0520    0.4120    0.7350 c3        1 FGM     -0.115400
     11 CCE        -1.1450   -0.9680    1.3440 c3        1 FGM      0.179100
     12 OCF        -0.3700   -1.8680    0.5880 oh        1 FGM     -0.649800
     13 CCG        -0.6290   -0.9290    2.7650 c3        1 FGM     -0.219700
     14 CCH        -0.7810   -2.2960    3.3950 c3        1 FGM     -0.048400
     15 CCI        -0.2550   -2.2590    4.8130 c3        1 FGM     -0.088400
     16 CCJ        -0.3370   -3.6430    5.4170 c3        1 FGM     -0.074400
     17 CCK         0.5470   -3.7110    6.6440 c3        1 FGM     -0.079400
     18 CCL         0.4980   -5.1070    7.2240 c3        1 FGM     -0.080400
     19 CCM         1.6010   -5.2670    8.2470 c3        1 FGM     -0.090100
     20 CCQ         0.8320   -0.5360    2.7590 c         1 FGM      0.914600
     21 OCR         1.2020    0.5220    3.3330 o         1 FGM     -0.845300
     22 OCS         1.6790   -1.2680    2.1840 o         1 FGM     -0.845300
     23 HBU         1.9730    5.1060   -8.9260 hc        1 FGM      0.029700
     24 HBUA        2.6160    3.6810   -8.5860 hc        1 FGM      0.029700
     25 HBUB        1.6820    3.8510   -9.8750 hc        1 FGM      0.029700
     26 HBV         0.3810    2.8500   -8.2560 hc        1 FGM      0.035200
     27 HBVA       -0.1370    4.3550   -8.3820 hc        1 FGM      0.035200
     28 HBW         1.7390    3.5320   -6.4120 hc        1 FGM      0.040700
     29 HBWA        1.0560    4.9740   -6.4930 hc        1 FGM      0.040700
     30 HBX        -0.9400    4.1900   -5.8000 hc        1 FGM      0.034700
     31 HBXA       -0.5710    2.6850   -6.1860 hc        1 FGM      0.034700
     32 HBY         0.6060    4.1060   -4.0220 hc        1 FGM      0.043700
     33 HBYA        0.9550    2.5940   -4.4020 hc        1 FGM      0.043700
     34 HBZ        -1.2570    3.5400   -3.0220 hc        1 FGM      0.031200
     35 HBZA       -1.6100    2.4410   -4.1260 hc        1 FGM      0.031200
     36 HCA        -0.5120    0.8350   -3.0550 hc        1 FGM      0.051700
     37 HCAA        0.5100    1.8600   -2.3810 hc        1 FGM      0.051700
     38 HCB        -2.1790    1.9910   -1.5730 hc        1 FGM      0.024200
     39 HCBA       -0.8810    2.3380   -0.7100 hc        1 FGM      0.024200
     40 HCC        -0.5950   -0.2230   -1.1680 hc        1 FGM      0.036200
     41 HCCA       -2.1670   -0.0860   -0.9200 hc        1 FGM      0.036200
     42 HCD        -0.1610    0.7810    0.8990 hc        1 FGM      0.057700
     43 HCDA       -1.7250    0.9940    1.1410 hc        1 FGM      0.057700
     44 HCE        -2.0780   -1.2620    1.3440 h1        1 FGM      0.021700
     45 HOCF       -0.8980   -2.4930    0.2400 ho        1 FGM      0.449000
     46 HCG        -1.1400   -0.2750    3.2780 hc        1 FGM      0.042700
     47 HCH        -1.7270   -2.5470    3.4040 hc        1 FGM      0.027200
     48 HCHA       -0.2750   -2.9520    2.8760 hc        1 FGM      0.027200
     49 HCI         0.6760   -1.9600    4.8080 hc        1 FGM      0.056200
     50 HCIA       -0.7940   -1.6390    5.3440 hc        1 FGM      0.056200
     51 HCJ        -0.0360   -4.3030    4.7620 hc        1 FGM      0.029700
     52 HCJA       -1.2620   -3.8340    5.6710 hc        1 FGM      0.029700
     53 HCK         1.4670   -3.4940    6.3940 hc        1 FGM      0.039200
     54 HCKA        0.2290   -3.0700    7.3100 hc        1 FGM      0.039200
     55 HCL        -0.3690   -5.2520    7.6540 hc        1 FGM      0.033200
     56 HCLA        0.6200   -5.7620    6.5080 hc        1 FGM      0.033200
     57 HCM         1.5680   -4.5210    8.8820 hc        1 FGM      0.025367
     58 HCMA        1.4790   -6.1120    8.7290 hc        1 FGM      0.025367
     59 HCMB        2.4690   -5.2720    7.7930 hc        1 FGM      0.025367
@<TRIPOS>BOND
     1    1    2 1   
     2    1   23 1   
     3    1   24 1   
     4    1   25 1   
     5    2    3 1   
     6    2   26 1   
     7    2   27 1   
     8    3    4 1   
     9    3   28 1   
    10    3   29 1   
    11    4    5 1   
    12    4   30 1   
    13    4   31 1   
    14    5    6 1   
    15    5   32 1   
    16    5   33 1   
    17    6    7 1   
    18    6   34 1   
    19    6   35 1   
    20    7    8 1   
    21    7   36 1   
    22    7   37 1   
    23    8    9 1   
    24    8   38 1   
    25    8   39 1   
    26    9   10 1   
    27    9   40 1   
    28    9   41 1   
    29   10   11 1   
    30   10   42 1   
    31   10   43 1   
    32   11   12 1   
    33   11   13 1   
    34   11   44 1   
    35   12   45 1   
    36   13   14 1   
    37   13   20 1   
    38   13   46 1   
    39   14   15 1   
    40   14   47 1   
    41   14   48 1   
    42   15   16 1   
    43   15   49 1   
    44   15   50 1   
    45   16   17 1   
    46   16   51 1   
    47   16   52 1   
    48   17   18 1   
    49   17   53 1   
    50   17   54 1   
    51   18   19 1   
    52   18   55 1   
    53   18   56 1   
    54   19   57 1   
    55   19   58 1   
    56   19   59 1   
    57   20   21 1   
    58   20   22 1   
@<TRIPOS>SUBSTRUCTURE
     1 FGM         1 TEMP              0 ****  ****    0 ROOT
