@<TRIPOS>MOLECULE
FGM
   59    58     1     0     0
SMALL
bcc


@<TRIPOS>ATOM
      1 CBU        11.1870   -0.4190   -0.0510 c3        1 FGM     -0.091100
      2 CBV         9.9190    0.3130   -0.4080 c3        1 FGM     -0.080400
      3 CBW         8.6890   -0.4750   -0.0070 c3        1 FGM     -0.079400
      4 CBX         7.4190    0.2640   -0.3670 c3        1 FGM     -0.079400
      5 CBY         6.1900   -0.5240    0.0340 c3        1 FGM     -0.078400
      6 CBZ         4.9190    0.2150   -0.3260 c3        1 FGM     -0.079400
      7 CCA         3.6900   -0.5720    0.0750 c3        1 FGM     -0.078400
      8 CCB         2.4190    0.1670   -0.2860 c3        1 FGM     -0.078400
      9 CCC         1.1900   -0.6180    0.1200 c3        1 FGM     -0.073400
     10 CCD        -0.0790    0.1170   -0.2470 c3        1 FGM     -0.115400
     11 CCE        -1.3180   -0.6150    0.2690 c3        1 FGM      0.180100
     12 OCF        -1.2920   -0.7060    1.6830 oh        1 FGM     -0.649800
     13 CCG        -2.5880    0.0610   -0.2540 c3        1 FGM     -0.220700
     14 CCH        -3.8170   -0.6710    0.2540 c3        1 FGM     -0.048400
     15 CCI        -5.0630   -0.2360   -0.4870 c3        1 FGM     -0.088400
     16 CCJ        -6.3140   -0.7850    0.1630 c3        1 FGM     -0.074400
     17 CCK        -7.5560   -0.3710   -0.5970 c3        1 FGM     -0.079400
     18 CCL        -8.8120   -0.9050    0.0590 c3        1 FGM     -0.080400
     19 CCM       -10.0510   -0.4970   -0.6970 c3        1 FGM     -0.090100
     20 CCQ        -2.6620    1.5530    0.1540 c         1 FGM      0.914600
     21 OCR        -2.2220    1.8950    1.2930 o         1 FGM     -0.845300
     22 OCS        -3.1670    2.3640   -0.6710 o         1 FGM     -0.845300
     23 HBU        11.2410   -0.6000    1.0500 hc        1 FGM      0.029367
     24 HBUA       11.2300   -1.4070   -0.5690 hc        1 FGM      0.029367
     25 HBUB       12.0800    0.1780   -0.3550 hc        1 FGM      0.029367
     26 HBV         9.9040    1.3120    0.1020 hc        1 FGM      0.038200
     27 HBVA        9.8940    0.5070   -1.5130 hc        1 FGM      0.038200
     28 HBW         8.7010   -1.4740   -0.5170 hc        1 FGM      0.037700
     29 HBWA        8.7110   -0.6680    1.0980 hc        1 FGM      0.037700
     30 HBX         7.4070    1.2630    0.1430 hc        1 FGM      0.038700
     31 HBXA        7.3960    0.4580   -1.4720 hc        1 FGM      0.038700
     32 HBY         6.2010   -1.5230   -0.4760 hc        1 FGM      0.036700
     33 HBYA        6.2120   -0.7170    1.1390 hc        1 FGM      0.036700
     34 HBZ         4.9070    1.2140    0.1840 hc        1 FGM      0.038700
     35 HBZA        4.8970    0.4090   -1.4310 hc        1 FGM      0.038700
     36 HCA         3.7020   -1.5720   -0.4340 hc        1 FGM      0.034700
     37 HCAA        3.7110   -0.7650    1.1800 hc        1 FGM      0.034700
     38 HCB         2.4080    1.1670    0.2220 hc        1 FGM      0.038200
     39 HCBA        2.3960    0.3580   -1.3910 hc        1 FGM      0.038200
     40 HCC         1.2040   -1.6230   -0.3780 hc        1 FGM      0.036200
     41 HCCA        1.1980   -0.7960    1.2280 hc        1 FGM      0.036200
     42 HCD        -0.0750    1.1490    0.1980 hc        1 FGM      0.057200
     43 HCDA       -0.1530    0.2240   -1.3600 hc        1 FGM      0.057200
     44 HCE        -1.2900   -1.6900   -0.0740 h1        1 FGM      0.021700
     45 HOCF       -1.5120    0.1770    2.0270 ho        1 FGM      0.449000
     46 HCG        -2.5670    0.0160   -1.3760 hc        1 FGM      0.042700
     47 HCH        -3.6770   -1.7790    0.1370 hc        1 FGM      0.027200
     48 HCHA       -3.9270   -0.4630    1.3510 hc        1 FGM      0.027200
     49 HCI        -5.0950    0.8890   -0.5110 hc        1 FGM      0.055700
     50 HCIA       -5.0090   -0.5850   -1.5520 hc        1 FGM      0.055700
     51 HCJ        -6.2580   -1.9040    0.2100 hc        1 FGM      0.029700
     52 HCJA       -6.3800   -0.4130    1.2190 hc        1 FGM      0.029700
     53 HCK        -7.6050    0.7490   -0.6500 hc        1 FGM      0.039200
     54 HCKA       -7.4950   -0.7480   -1.6520 hc        1 FGM      0.039200
     55 HCL        -8.7570   -2.0240    0.1160 hc        1 FGM      0.033200
     56 HCLA       -8.8720   -0.5240    1.1130 hc        1 FGM      0.033200
     57 HCM       -10.1330    0.6160   -0.7440 hc        1 FGM      0.025367
     58 HCMA      -10.0210   -0.8890   -1.7420 hc        1 FGM      0.025367
     59 HCMB      -10.9650   -0.8980   -0.1960 hc        1 FGM      0.025367
@<TRIPOS>BOND
     1    1    2 1   
     2    1   23 1   
     3    1   24 1   
     4    1   25 1   
     5    2    3 1   
     6    2   26 1   
     7    2   27 1   
     8    3    4 1   
     9    3   28 1   
    10    3   29 1   
    11    4    5 1   
    12    4   30 1   
    13    4   31 1   
    14    5    6 1   
    15    5   32 1   
    16    5   33 1   
    17    6    7 1   
    18    6   34 1   
    19    6   35 1   
    20    7    8 1   
    21    7   36 1   
    22    7   37 1   
    23    8    9 1   
    24    8   38 1   
    25    8   39 1   
    26    9   10 1   
    27    9   40 1   
    28    9   41 1   
    29   10   11 1   
    30   10   42 1   
    31   10   43 1   
    32   11   12 1   
    33   11   13 1   
    34   11   44 1   
    35   12   45 1   
    36   13   14 1   
    37   13   20 1   
    38   13   46 1   
    39   14   15 1   
    40   14   47 1   
    41   14   48 1   
    42   15   16 1   
    43   15   49 1   
    44   15   50 1   
    45   16   17 1   
    46   16   51 1   
    47   16   52 1   
    48   17   18 1   
    49   17   53 1   
    50   17   54 1   
    51   18   19 1   
    52   18   55 1   
    53   18   56 1   
    54   19   57 1   
    55   19   58 1   
    56   19   59 1   
    57   20   21 1   
    58   20   22 1   
@<TRIPOS>SUBSTRUCTURE
     1 FGM         1 TEMP              0 ****  ****    0 ROOT
