@<TRIPOS>MOLECULE
FGP
   17    16     1     0     0
SMALL
bcc


@<TRIPOS>ATOM
      1 N          -2.0910    0.1410   -0.9830 n3        1 FGP     -0.933800
      2 CA         -0.6700    0.2040   -1.0020 c3        1 FGP      0.021500
      3 CB         -0.1390    0.0310    0.4020 c3        1 FGP      0.382900
      4 OG1        -0.5790   -1.2010    0.9220 oh        1 FGP     -0.664800
      5 OG2         1.2660    0.0550    0.3780 os        1 FGP     -0.606200
      6 C          -0.1290   -0.8990   -1.8840 c         1 FGP      0.925600
      7 O           0.7220   -0.6330   -2.7730 o         1 FGP     -0.901800
      8 P           2.0330    0.5550    1.6660 p5        1 FGP      1.330900
      9 O1P         1.5740    1.9510    2.0150 o         1 FGP     -0.943167
     10 O2P         3.5180    0.5670    1.3950 o         1 FGP     -0.943167
     11 O3P         1.7400   -0.3740    2.8190 o         1 FGP     -0.943167
     12 OXT        -0.5300   -2.0820   -1.7290 o         1 FGP     -0.901800
     13 HN1        -2.4280    0.9390   -0.6850 hn        1 FGP      0.358800
     14 HN2        -2.4010   -0.0250   -1.8280 hn        1 FGP      0.358800
     15 HA         -0.3860    1.0710   -1.3530 h1        1 FGP      0.022700
     16 HB         -0.4680    0.7600    0.9670 h2        1 FGP      0.063700
     17 HOG        -1.0320   -1.0600    1.6740 ho        1 FGP      0.374000
@<TRIPOS>BOND
     1    1    2 1   
     2    1   13 1   
     3    1   14 1   
     4    2    3 1   
     5    2    6 1   
     6    2   15 1   
     7    3    4 1   
     8    3    5 1   
     9    3   16 1   
    10    4   17 1   
    11    5    8 1   
    12    6    7 1   
    13    6   12 1   
    14    8    9 1   
    15    8   10 1   
    16    8   11 1   
@<TRIPOS>SUBSTRUCTURE
     1 FGP         1 TEMP              0 ****  ****    0 ROOT
