@<TRIPOS>MOLECULE
FGP
   17    16     1     0     0
SMALL
bcc


@<TRIPOS>ATOM
      1 N           1.3400    1.7950    0.3460 n3        1 FGP     -0.933800
      2 CA          1.6360    0.3890    0.5720 c3        1 FGP      0.021500
      3 CB          0.4910   -0.5450    0.0370 c3        1 FGP      0.382900
      4 OG1         0.8170   -1.9100    0.3030 oh        1 FGP     -0.664800
      5 OG2        -0.6730   -0.3280    0.7270 os        1 FGP     -0.606200
      6 C           3.0380   -0.0010    0.0400 c         1 FGP      0.925600
      7 O           3.3870    0.2880   -1.1460 o         1 FGP     -0.901800
      8 P          -2.0220    0.3570   -0.0950 p5        1 FGP      1.330900
      9 O1P        -1.6130    1.8050   -0.2180 o         1 FGP     -0.943167
     10 O2P        -2.1000   -0.3940   -1.3980 o         1 FGP     -0.943167
     11 O3P        -3.1500    0.0860    0.8700 o         1 FGP     -0.943167
     12 OXT         3.8540   -0.5650    0.8400 o         1 FGP     -0.901800
     13 HN1         1.5860    2.0170   -0.6020 hn        1 FGP      0.358800
     14 HN2         0.3330    1.9230    0.4300 hn        1 FGP      0.358800
     15 HA          1.6590    0.2390    1.6910 h1        1 FGP      0.022700
     16 HB          0.3600   -0.4660   -1.0770 h2        1 FGP      0.063700
     17 HOG         0.6050   -2.0580    1.2300 ho        1 FGP      0.374000
@<TRIPOS>BOND
     1    1    2 1   
     2    1   13 1   
     3    1   14 1   
     4    2    3 1   
     5    2    6 1   
     6    2   15 1   
     7    3    4 1   
     8    3    5 1   
     9    3   16 1   
    10    4   17 1   
    11    5    8 1   
    12    6    7 1   
    13    6   12 1   
    14    8    9 1   
    15    8   10 1   
    16    8   11 1   
@<TRIPOS>SUBSTRUCTURE
     1 FGP         1 TEMP              0 ****  ****    0 ROOT
