@<TRIPOS>MOLECULE
FGR
   33    33     1     0     0
SMALL
bcc


@<TRIPOS>ATOM
      1 C1         -1.0680    1.6620   -1.8930 c3        1 FGR      0.110100
      2 O6         -0.9370    2.9390   -2.6430 oh        1 FGR     -0.622800
      3 C2          0.2160    0.7990   -2.0740 c3        1 FGR      0.060100
      4 O8          0.9820    1.3000   -3.0650 oh        1 FGR     -0.621800
      5 C3          0.9530    0.8790   -0.7490 c3        1 FGR      0.260500
      6 O4          0.3580    1.8340   -0.0850 os        1 FGR     -0.457600
      7 C5         -1.1410    1.8920   -0.6370 c3        1 FGR      0.095100
      8 C10        -1.9940    0.8300    0.0420 c3        1 FGR      0.201400
      9 O12        -2.5600    1.3570    1.2090 os        1 FGR     -0.570200
     10 N19         0.8460   -0.3940   -0.0300 n         1 FGR     -0.545900
     11 C21         1.9840   -0.8990    0.7320 c         1 FGR      0.635100
     12 O22         3.0430   -0.2480    0.7720 o         1 FGR     -0.693100
     13 C23         1.8710   -2.2260    1.4930 c3        1 FGR     -0.008000
     14 N24         3.1110   -2.5150    2.1220 n         1 FGR     -0.572900
     15 P15        -4.0800    1.0710    1.4990 p5        1 FGR      1.340900
     16 O16        -4.9420    1.7960    0.4600 o         1 FGR     -0.925500
     17 O17        -4.3340   -0.3830    1.4190 o         1 FGR     -0.925500
     18 O18        -4.4370    1.5810    2.9130 o         1 FGR     -0.925500
     19 C19         3.6890   -3.8470    2.0140 c         1 FGR      0.641900
     20 O20         4.8490   -4.0630    2.4400 o         1 FGR     -0.697100
     21 H1         -1.8770    1.1540   -2.2020 h1        1 FGR      0.156700
     22 HO6        -1.5130    2.9480   -3.3120 ho        1 FGR      0.393000
     23 H2         -0.0320   -0.1520   -2.2750 h1        1 FGR      0.150700
     24 HO8         1.1930    0.6410   -3.6420 ho        1 FGR      0.384000
     25 H3          1.9080    1.1100   -0.9010 h2        1 FGR      0.067700
     26 H5         -1.5220    2.7810   -0.4810 h1        1 FGR      0.045700
     27 H101       -2.7090    0.5470   -0.5680 h1        1 FGR      0.003200
     28 H102       -1.4410    0.0680    0.2660 h1        1 FGR      0.003200
     29 HN19        0.1010   -0.8820   -0.0940 hn        1 FGR      0.392500
     30 H231        1.1630   -2.1520    2.1780 h1        1 FGR      0.096200
     31 H232        1.6450   -2.9500    0.8640 h1        1 FGR      0.096200
     32 HN24        3.4940   -1.9040    2.6530 hn        1 FGR      0.273500
     33 H19         3.1820   -4.5720    1.5720 h5        1 FGR      0.159200
@<TRIPOS>BOND
     1    1    2 1   
     2    1    3 1   
     3    1    7 1   
     4    1   21 1   
     5    2   22 1   
     6    3    4 1   
     7    3    5 1   
     8    3   23 1   
     9    4   24 1   
    10    5    6 1   
    11    5   10 1   
    12    5   25 1   
    13    6    7 1   
    14    7    8 1   
    15    7   26 1   
    16    8    9 1   
    17    8   27 1   
    18    8   28 1   
    19    9   15 1   
    20   10   11 1   
    21   10   29 1   
    22   11   12 2   
    23   11   13 1   
    24   13   14 1   
    25   13   30 1   
    26   13   31 1   
    27   14   19 1   
    28   14   32 1   
    29   15   16 1   
    30   15   17 1   
    31   15   18 1   
    32   19   20 2   
    33   19   33 1   
@<TRIPOS>SUBSTRUCTURE
     1 FGR         1 TEMP              0 ****  ****    0 ROOT
