@<TRIPOS>MOLECULE
FGR
   33    33     1     0     0
SMALL
bcc


@<TRIPOS>ATOM
      1 C1         -0.5470    0.4810    0.5900 c3        1 FGR      0.061100
      2 O6         -1.3590    1.4750   -0.0270 oh        1 FGR     -0.631800
      3 C2          0.8110    0.3760   -0.1390 c3        1 FGR      0.087100
      4 O8          0.9490    1.3470   -1.1590 oh        1 FGR     -0.626800
      5 C3          1.8710    0.6140    0.9840 c3        1 FGR      0.266500
      6 O4          1.1630    1.3160    2.0310 os        1 FGR     -0.464600
      7 C5         -0.2250    0.9280    2.0240 c3        1 FGR      0.098100
      8 C10        -0.4590   -0.1680    3.0970 c3        1 FGR      0.198400
      9 O12        -1.2060   -1.2330    2.6660 os        1 FGR     -0.572200
     10 N19         2.4400   -0.6310    1.4410 n         1 FGR     -0.536900
     11 C21         3.5670   -0.6610    2.2190 c         1 FGR      0.645100
     12 O22         4.3400    0.3230    2.3570 o         1 FGR     -0.714100
     13 C23         3.8890   -2.0170    2.8760 c3        1 FGR     -0.049000
     14 N24         4.8270   -1.9090    3.9630 n         1 FGR     -0.508900
     15 P15        -0.3360   -2.6630    2.2430 p5        1 FGR      1.329900
     16 O16         0.8930   -2.5950    3.1210 o         1 FGR     -0.924167
     17 O17         0.0580   -2.2960    0.8290 o         1 FGR     -0.924167
     18 O18        -1.3320   -3.7520    2.4720 o         1 FGR     -0.924167
     19 C19         6.1500   -2.2380    3.8700 c         1 FGR      0.647900
     20 O20         6.6730   -2.9160    2.9620 o         1 FGR     -0.652100
     21 H1         -1.0430   -0.5410    0.6060 h1        1 FGR      0.171700
     22 HO6        -1.6380    1.0900   -0.8640 ho        1 FGR      0.388000
     23 H2          0.9160   -0.6290   -0.6330 h1        1 FGR      0.148700
     24 HO8         0.6500    2.1860   -0.7840 ho        1 FGR      0.394000
     25 H3          2.6870    1.3230    0.6710 h2        1 FGR      0.070700
     26 H5         -0.7830    1.8650    2.2860 h1        1 FGR      0.036700
     27 H101        0.5450   -0.5100    3.4820 h1        1 FGR      0.010200
     28 H102       -1.0140    0.3390    3.9430 h1        1 FGR      0.010200
     29 HN19        1.7680   -1.4080    1.5310 hn        1 FGR      0.404500
     30 H231        2.9130   -2.4630    3.2810 h1        1 FGR      0.140200
     31 H232        4.3010   -2.7040    2.0870 h1        1 FGR      0.140200
     32 HN24        4.5860   -1.2110    4.6320 hn        1 FGR      0.301500
     33 H19         6.7510   -1.9150    4.7580 h5        1 FGR     -0.022800
@<TRIPOS>BOND
     1    1    2 1   
     2    1    3 1   
     3    1    7 1   
     4    1   21 1   
     5    2   22 1   
     6    3    4 1   
     7    3    5 1   
     8    3   23 1   
     9    4   24 1   
    10    5    6 1   
    11    5   10 1   
    12    5   25 1   
    13    6    7 1   
    14    7    8 1   
    15    7   26 1   
    16    8    9 1   
    17    8   27 1   
    18    8   28 1   
    19    9   15 1   
    20   10   11 1   
    21   10   29 1   
    22   11   12 2   
    23   11   13 1   
    24   13   14 1   
    25   13   30 1   
    26   13   31 1   
    27   14   19 1   
    28   14   32 1   
    29   15   16 1   
    30   15   17 1   
    31   15   18 1   
    32   19   20 2   
    33   19   33 1   
@<TRIPOS>SUBSTRUCTURE
     1 FGR         1 TEMP              0 ****  ****    0 ROOT
