@<TRIPOS>MOLECULE
FGR
   33    33     1     0     0
SMALL
bcc


@<TRIPOS>ATOM
      1 C1         -1.3120    2.2190    0.2250 c3        1 FGR      0.061100
      2 O6         -2.0270    3.3450    0.7240 oh        1 FGR     -0.631800
      3 C2         -0.0200    2.6810   -0.4850 c3        1 FGR      0.087100
      4 O8          0.1810    4.0780   -0.3780 oh        1 FGR     -0.626800
      5 C3          1.1220    1.9100    0.2530 c3        1 FGR      0.266500
      6 O4          0.5650    1.5460    1.5360 os        1 FGR     -0.464600
      7 C5         -0.8580    1.3580    1.4130 c3        1 FGR      0.098100
      8 C10        -1.1670   -0.1540    1.2550 c3        1 FGR      0.198400
      9 O12        -2.0630   -0.4490    0.2600 os        1 FGR     -0.572200
     10 N19         1.5570    0.7640   -0.5080 n         1 FGR     -0.536900
     11 C21         2.7120    0.0960   -0.1990 c         1 FGR      0.645100
     12 O22         3.6080    0.5700    0.5480 o         1 FGR     -0.714100
     13 C23         2.9000   -1.2690   -0.8900 c3        1 FGR     -0.049000
     14 N24         3.9020   -2.0880   -0.2600 n         1 FGR     -0.508900
     15 P15        -1.4010   -1.0290   -1.2260 p5        1 FGR      1.329900
     16 O16        -0.1260   -1.7180   -0.7940 o         1 FGR     -0.924167
     17 O17        -1.0430    0.2950   -1.8640 o         1 FGR     -0.924167
     18 O18        -2.5100   -1.8480   -1.7990 o         1 FGR     -0.924167
     19 C19         5.1670   -2.2620   -0.7460 c         1 FGR      0.647900
     20 O20         5.5510   -1.9850   -1.9010 o         1 FGR     -0.652100
     21 H1         -1.9290    1.5910   -0.4940 h1        1 FGR      0.171700
     22 HO6        -2.3970    3.7740   -0.0550 ho        1 FGR      0.388000
     23 H2         -0.0680    2.4450   -1.5840 h1        1 FGR      0.148700
     24 HO8         0.0100    4.3110    0.5440 ho        1 FGR      0.394000
     25 H3          2.0020    2.5670    0.5030 h2        1 FGR      0.070700
     26 H5         -1.2810    1.7500    2.3760 h1        1 FGR      0.036700
     27 H101       -0.1930   -0.7020    1.0940 h1        1 FGR      0.010200
     28 H102       -1.6060   -0.4880    2.2420 h1        1 FGR      0.010200
     29 HN19        0.7990    0.2350   -0.9670 hn        1 FGR      0.404500
     30 H231        1.9000   -1.8300   -0.8580 h1        1 FGR      0.140200
     31 H232        3.1800   -1.0880   -1.9640 h1        1 FGR      0.140200
     32 HN24        3.7870   -2.1740    0.7260 hn        1 FGR      0.301500
     33 H19         5.8520   -2.7800   -0.0270 h5        1 FGR     -0.022800
@<TRIPOS>BOND
     1    1    2 1   
     2    1    3 1   
     3    1    7 1   
     4    1   21 1   
     5    2   22 1   
     6    3    4 1   
     7    3    5 1   
     8    3   23 1   
     9    4   24 1   
    10    5    6 1   
    11    5   10 1   
    12    5   25 1   
    13    6    7 1   
    14    7    8 1   
    15    7   26 1   
    16    8    9 1   
    17    8   27 1   
    18    8   28 1   
    19    9   15 1   
    20   10   11 1   
    21   10   29 1   
    22   11   12 2   
    23   11   13 1   
    24   13   14 1   
    25   13   30 1   
    26   13   31 1   
    27   14   19 1   
    28   14   32 1   
    29   15   16 1   
    30   15   17 1   
    31   15   18 1   
    32   19   20 2   
    33   19   33 1   
@<TRIPOS>SUBSTRUCTURE
     1 FGR         1 TEMP              0 ****  ****    0 ROOT
