@<TRIPOS>MOLECULE
FGS
   35    34     1     0     0
SMALL
bcc


@<TRIPOS>ATOM
      1 O18         1.4170    0.4620    1.5740 o         1 FGS     -0.919833
      2 P15         2.8290   -0.0620    1.3250 p5        1 FGS      1.334900
      3 O16         3.9510    0.6420    2.0130 o         1 FGS     -0.919833
      4 O17         2.8710   -1.5520    1.1820 o         1 FGS     -0.919833
      5 O12         2.8960    0.4960   -0.3140 os        1 FGS     -0.569200
      6 C10         1.9940   -0.0990   -1.1620 c3        1 FGS      0.191400
      7 C7          0.7040    0.7520   -1.3370 c3        1 FGS      0.100100
      8 O4          0.8150    2.0080   -0.7050 oh        1 FGS     -0.657800
      9 C1         -0.5830    0.0300   -0.8660 c3        1 FGS      0.115100
     10 O6         -0.3890   -0.9990    0.0730 oh        1 FGS     -0.678800
     11 C2         -1.5980    1.0500   -0.3020 c3        1 FGS      0.132100
     12 O8         -1.3450    1.3790    1.0450 oh        1 FGS     -0.670800
     13 C3         -3.0530    0.4970   -0.3960 c3        1 FGS      0.052700
     14 C19        -4.0670    1.5880    0.0060 c3        1 FGS      0.143400
     15 O20        -4.1400    1.8650    1.3860 oh        1 FGS     -0.633800
     16 N19        -3.2080   -0.7240    0.3600 n         1 FGS     -0.515900
     17 C21        -4.0740   -1.7160   -0.0160 c         1 FGS      0.651100
     18 O22        -4.9600   -1.5480   -0.8910 o         1 FGS     -0.680100
     19 C23        -3.9620   -3.0380    0.7120 c3        1 FGS     -0.173100
     20 H101        2.4650   -0.1820   -2.1860 h1        1 FGS      0.005700
     21 H102        1.7390   -1.1360   -0.8040 h1        1 FGS      0.005700
     22 H7          0.5590    0.9950   -2.4290 h1        1 FGS      0.002700
     23 H4          1.3230    1.8560    0.1270 ho        1 FGS      0.475000
     24 H1         -1.0460   -0.4810   -1.7600 h1        1 FGS      0.015700
     25 H6          0.3430   -0.7350    0.6950 ho        1 FGS      0.502000
     26 H2         -1.5590    1.9960   -0.9120 h1        1 FGS      0.040700
     27 H8         -0.4050    1.1790    1.2540 ho        1 FGS      0.508000
     28 H3         -3.2550    0.2740   -1.4890 h1        1 FGS      0.047700
     29 H191       -3.7970    2.5300   -0.5460 h1        1 FGS      0.025700
     30 H192       -5.1060    1.2700   -0.2800 h1        1 FGS      0.025700
     31 H19        -2.4150   -0.9600    0.9290 hn        1 FGS      0.354500
     32 H20        -3.2380    1.8430    1.7400 ho        1 FGS      0.441000
     33 H231       -4.1270   -2.8950    1.8060 hc        1 FGS      0.055700
     34 H232       -4.7340   -3.7390    0.3130 hc        1 FGS      0.055700
     35 H233       -2.9470   -3.4780    0.5540 hc        1 FGS      0.055700
@<TRIPOS>BOND
     1    1    2 1   
     2    2    3 1   
     3    2    4 1   
     4    2    5 1   
     5    5    6 1   
     6    6    7 1   
     7    6   20 1   
     8    6   21 1   
     9    7    8 1   
    10    7    9 1   
    11    7   22 1   
    12    8   23 1   
    13    9   10 1   
    14    9   11 1   
    15    9   24 1   
    16   10   25 1   
    17   11   12 1   
    18   11   13 1   
    19   11   26 1   
    20   12   27 1   
    21   13   14 1   
    22   13   16 1   
    23   13   28 1   
    24   14   15 1   
    25   14   29 1   
    26   14   30 1   
    27   15   32 1   
    28   16   17 1   
    29   16   31 1   
    30   17   18 2   
    31   17   19 1   
    32   19   33 1   
    33   19   34 1   
    34   19   35 1   
@<TRIPOS>SUBSTRUCTURE
     1 FGS         1 TEMP              0 ****  ****    0 ROOT
