@<TRIPOS>MOLECULE
FGS
   35    34     1     0     0
SMALL
bcc


@<TRIPOS>ATOM
      1 O18        -2.2060   -5.6240    0.9080 o         1 FGS     -0.925167
      2 P15        -0.7880   -5.7170    0.4160 p5        1 FGS      1.307900
      3 O16         0.1420   -5.8860    1.5930 o         1 FGS     -0.925167
      4 O17        -0.6510   -6.9170   -0.5180 o         1 FGS     -0.925167
      5 O12        -0.4130   -4.3930   -0.3670 os        1 FGS     -0.561200
      6 C10        -0.4470   -3.1350    0.3450 c3        1 FGS      0.216400
      7 C7         -0.1900   -2.0040   -0.6230 c3        1 FGS      0.050100
      8 O4          0.9130   -2.3300   -1.4450 oh        1 FGS     -0.693800
      9 C1          0.1110   -0.7430    0.1470 c3        1 FGS      0.106100
     10 O6          1.4570   -0.7760    0.6000 oh        1 FGS     -0.643800
     11 C2         -0.0880    0.4480   -0.7430 c3        1 FGS      0.115100
     12 O8          1.0460    0.6340   -1.5300 oh        1 FGS     -0.633800
     13 C3         -0.3210    1.6920    0.1160 c3        1 FGS      0.065700
     14 C19        -1.7280    2.1840   -0.0820 c3        1 FGS      0.128400
     15 O20        -2.0110    3.1810    0.8620 oh        1 FGS     -0.631800
     16 N19         0.5950    2.7100   -0.2650 n         1 FGS     -0.527900
     17 C21         1.2850    3.4720    0.7440 c         1 FGS      0.656100
     18 O22         1.1500    3.1880    1.9230 o         1 FGS     -0.665100
     19 C23         2.1510    4.6530    0.3420 c3        1 FGS     -0.172100
     20 H101       -1.3290   -3.0170    0.7610 h1        1 FGS     -0.001300
     21 H102        0.2460   -3.1340    1.0400 h1        1 FGS     -0.001300
     22 H7         -0.9780   -1.8660   -1.1770 h1        1 FGS      0.100700
     23 H4          0.6190   -2.6360   -2.2330 ho        1 FGS      0.468000
     24 H1         -0.4940   -0.6790    0.9190 h1        1 FGS      0.067700
     25 H6          1.4710   -0.9010    1.4750 ho        1 FGS      0.431000
     26 H2         -0.8660    0.2990   -1.3230 h1        1 FGS      0.059700
     27 H8          0.8050    0.7460   -2.3690 ho        1 FGS      0.442000
     28 H3         -0.1840    1.4660    1.0620 h1        1 FGS      0.062700
     29 H191       -2.3480    1.4460    0.0310 h1        1 FGS      0.046700
     30 H192       -1.8200    2.5510   -0.9800 h1        1 FGS      0.046700
     31 H19         0.7060    2.9150   -1.1460 hn        1 FGS      0.340500
     32 H20        -2.8480    3.4570    0.7590 ho        1 FGS      0.422000
     33 H231        2.8500    4.3500   -0.2860 hc        1 FGS      0.058033
     34 H232        2.5700    5.0330    1.1350 hc        1 FGS      0.058033
     35 H233        1.5960    5.3320   -0.0900 hc        1 FGS      0.058033
@<TRIPOS>BOND
     1    1    2 1   
     2    2    3 1   
     3    2    4 1   
     4    2    5 1   
     5    5    6 1   
     6    6    7 1   
     7    6   20 1   
     8    6   21 1   
     9    7    8 1   
    10    7    9 1   
    11    7   22 1   
    12    8   23 1   
    13    9   10 1   
    14    9   11 1   
    15    9   24 1   
    16   10   25 1   
    17   11   12 1   
    18   11   13 1   
    19   11   26 1   
    20   12   27 1   
    21   13   14 1   
    22   13   16 1   
    23   13   28 1   
    24   14   15 1   
    25   14   29 1   
    26   14   30 1   
    27   15   32 1   
    28   16   17 1   
    29   16   31 1   
    30   17   18 2   
    31   17   19 1   
    32   19   33 1   
    33   19   34 1   
    34   19   35 1   
@<TRIPOS>SUBSTRUCTURE
     1 FGS         1 TEMP              0 ****  ****    0 ROOT
