@<TRIPOS>MOLECULE
FGS
   35    34     1     0     0
SMALL
bcc


@<TRIPOS>ATOM
      1 O18         0.8660    3.0200   -1.4980 o         1 FGS     -0.919833
      2 P15         0.7870    1.7020   -0.7310 p5        1 FGS      1.334900
      3 O16         0.6050    1.7810    0.7480 o         1 FGS     -0.919833
      4 O17         0.0830    0.6300   -1.5050 o         1 FGS     -0.919833
      5 O12         2.4620    1.3150   -0.9500 os        1 FGS     -0.569200
      6 C10         2.8380    1.1040   -2.2540 c3        1 FGS      0.191400
      7 C7          3.4520    2.3780   -2.9000 c3        1 FGS      0.100100
      8 O4          3.6180    3.4150   -1.9590 oh        1 FGS     -0.657800
      9 C1          2.6580    2.8930   -4.1270 c3        1 FGS      0.115100
     10 O6          1.3080    2.5060   -4.1790 oh        1 FGS     -0.678800
     11 C2          2.7490    4.4340   -4.2200 c3        1 FGS      0.132100
     12 O8          1.8080    5.0850   -3.3950 oh        1 FGS     -0.670800
     13 C3          2.5200    4.9180   -5.6840 c3        1 FGS      0.052700
     14 C19         2.7850    6.4330   -5.7950 c3        1 FGS      0.143400
     15 O20         1.7870    7.2630   -5.2430 oh        1 FGS     -0.633800
     16 N19         1.2140    4.5360   -6.1720 n         1 FGS     -0.515900
     17 C21         0.9790    4.2460   -7.4900 c         1 FGS      0.651100
     18 O22         1.7990    4.5170   -8.4020 o         1 FGS     -0.680100
     19 C23        -0.3580    3.6220   -7.8280 c3        1 FGS     -0.173100
     20 H101        1.9660    0.7310   -2.8620 h1        1 FGS      0.005700
     21 H102        3.6470    0.3150   -2.2710 h1        1 FGS      0.005700
     22 H7          4.4960    2.1510   -3.2610 h1        1 FGS      0.002700
     23 H4          2.8420    3.3670   -1.3530 ho        1 FGS      0.475000
     24 H1          3.1210    2.4500   -5.0560 h1        1 FGS      0.015700
     25 H6          0.9360    2.5030   -3.2550 ho        1 FGS      0.502000
     26 H2          3.7800    4.7680   -3.9140 h1        1 FGS      0.040700
     27 H8          1.5260    4.4680   -2.6830 ho        1 FGS      0.508000
     28 H3          3.3070    4.4180   -6.3280 h1        1 FGS      0.047700
     29 H191        2.8450    6.7340   -6.8760 h1        1 FGS      0.025700
     30 H192        3.7660    6.6500   -5.2890 h1        1 FGS      0.025700
     31 H19         0.6110    4.1430   -5.4720 hn        1 FGS      0.354500
     32 H20         1.4810    6.8510   -4.4220 ho        1 FGS      0.441000
     33 H231       -1.1920    4.2950   -7.5140 hc        1 FGS      0.055700
     34 H232       -0.4680    2.6420   -7.3020 hc        1 FGS      0.055700
     35 H233       -0.4140    3.4580   -8.9300 hc        1 FGS      0.055700
@<TRIPOS>BOND
     1    1    2 1   
     2    2    3 1   
     3    2    4 1   
     4    2    5 1   
     5    5    6 1   
     6    6    7 1   
     7    6   20 1   
     8    6   21 1   
     9    7    8 1   
    10    7    9 1   
    11    7   22 1   
    12    8   23 1   
    13    9   10 1   
    14    9   11 1   
    15    9   24 1   
    16   10   25 1   
    17   11   12 1   
    18   11   13 1   
    19   11   26 1   
    20   12   27 1   
    21   13   14 1   
    22   13   16 1   
    23   13   28 1   
    24   14   15 1   
    25   14   29 1   
    26   14   30 1   
    27   15   32 1   
    28   16   17 1   
    29   16   31 1   
    30   17   18 2   
    31   17   19 1   
    32   19   33 1   
    33   19   34 1   
    34   19   35 1   
@<TRIPOS>SUBSTRUCTURE
     1 FGS         1 TEMP              0 ****  ****    0 ROOT
