@<TRIPOS>MOLECULE
FGS
   36    35     1     0     0
SMALL
bcc


@<TRIPOS>ATOM
      1 O18         0.0000    0.0000    0.0000 o         1 FGS     -0.622500
      2 P15         1.6100    0.0000    0.0000 p5        1 FGS      0.742900
      3 O16         2.1460    0.0000    1.5190 o         1 FGS     -0.622500
      4 O17         2.1030   -1.2090   -0.6980 o         1 FGS     -0.622500
      5 O12         2.1470    1.3150   -0.7590 os        1 FGS     -0.481200
      6 C10         1.9290    1.5530   -2.1510 c3        1 FGS      0.266400
      7 C7          2.5680    2.8850   -2.5460 c3        1 FGS      0.142100
      8 O4          1.9000    3.9530   -1.8710 oh        1 FGS     -0.581800
      9 C1          2.4450    3.0820   -4.0590 c3        1 FGS      0.158100
     10 O6          1.0720    2.9720   -4.4430 oh        1 FGS     -0.586800
     11 C2          2.9700    4.4680   -4.4370 c3        1 FGS      0.175100
     12 O8          2.2840    5.4630   -3.6750 oh        1 FGS     -0.540800
     13 C3          2.7320    4.7140   -5.9280 c3        1 FGS     -0.045500
     14 C19         3.2590    6.0990   -6.3080 c3        1 FGS      0.211400
     15 O20         2.6570    7.0840   -5.4650 oh        1 FGS     -0.583800
     16 N19         1.2970    4.6410   -6.2130 ny        1 FGS      0.090200
     17 C21         0.8700    4.3230   -7.4510 c         1 FGS      0.154100
     18 O22         1.6750    4.0960   -8.3300 o         1 FGS     -0.616100
     19 C23        -0.6060    4.2490   -7.7430 c3        1 FGS     -0.011100
     20 H101        2.3760    0.7530   -2.7290 h1        1 FGS     -0.018300
     21 H102        0.8640    1.5900   -2.3490 h1        1 FGS     -0.018300
     22 H7          3.6150    2.8810   -2.2660 h1        1 FGS      0.005700
     23 H4          2.2900    4.0810   -1.0220 ho        1 FGS      0.403000
     24 H1          3.0250    2.3230   -4.5700 h1        1 FGS      0.018700
     25 H6          0.8600    2.0660   -4.5970 ho        1 FGS      0.431000
     26 H2          4.0320    4.5210   -4.2270 h1        1 FGS      0.028700
     27 H8          2.9080    5.9620   -3.1750 ho        1 FGS      0.404000
     28 H3          3.2530    3.9590   -6.5060 hx        1 FGS      0.092700
     29 H191        3.0120    6.3090   -7.3410 h1        1 FGS      0.008700
     30 H192        4.3340    6.1240   -6.1810 h1        1 FGS      0.008700
     31 H19         0.9120    5.5380   -5.9940 hn        1 FGS      0.277800
     32 H20         2.9170    7.9440   -5.7510 ho        1 FGS      0.399000
     33 H231       -1.1600    4.6790   -6.9180 hc        1 FGS      0.019700
     34 H232       -0.8970    3.2130   -7.8720 hc        1 FGS      0.019700
     35 H233       -0.8230    4.8000   -8.6500 hc        1 FGS      0.019700
     36 H193        0.9110    3.9620   -5.5880 hn        1 FGS      0.277800
@<TRIPOS>BOND
     1    1    2 1   
     2    2    3 1   
     3    2    4 1   
     4    2    5 1   
     5    5    6 1   
     6    6    7 1   
     7    6   20 1   
     8    6   21 1   
     9    7    8 1   
    10    7    9 1   
    11    7   22 1   
    12    8   23 1   
    13    9   10 1   
    14    9   11 1   
    15    9   24 1   
    16   10   25 1   
    17   11   12 1   
    18   11   13 1   
    19   11   26 1   
    20   12   27 1   
    21   13   14 1   
    22   13   16 1   
    23   13   28 1   
    24   14   15 1   
    25   14   29 1   
    26   14   30 1   
    27   15   32 1   
    28   16   17 1   
    29   16   31 1   
    30   16   36 1   
    31   17   18 2   
    32   17   19 1   
    33   19   33 1   
    34   19   34 1   
    35   19   35 1   
@<TRIPOS>SUBSTRUCTURE
     1 FGS         1 TEMP              0 ****  ****    0 ROOT
