@<TRIPOS>MOLECULE
FH3
   49    44     1     0     0
SMALL
bcc


@<TRIPOS>ATOM
      1 CL         -2.7330    3.3900    1.5490 cl        1 FH3     -0.023000
      2 C02        -1.5000    2.1990    1.2000 c2        1 FH3     -0.234000
      3 C03        -1.6580    1.9730    2.5640 c2        1 FH3     -0.006000
      4 N04        -0.8500    1.0770    3.2080 n1        1 FH3     -0.163000
      5 C05         0.1300    0.3900    2.5020 c1        1 FH3      0.039000
      6 N06         1.0350   -0.5530    2.8830 n1        1 FH3     -0.218000
      7 C07         1.7530   -0.9180    1.7810 c1        1 FH3      0.101000
      8 C08         2.5210   -2.2430    1.8530 c1        1 FH3     -0.155000
      9 C09         1.9840   -3.4930    1.7030 c1        1 FH3     -0.074000
     10 N10         2.9930   -4.3940    1.7760 n2        1 FH3     -0.097000
     11 C11         2.8650   -5.8180    1.6410 c2        1 FH3     -0.108500
     12 N12         4.1680   -3.7040    1.9730 n2        1 FH3     -0.097000
     13 C13         3.8750   -2.3820    2.0200 c1        1 FH3     -0.074000
     14 C14         4.8720   -1.2490    2.2670 c2        1 FH3     -0.108500
     15 N15         1.2910   -0.1990    0.7180 n2        1 FH3     -0.152000
     16 C16         0.2880    0.6090    1.1600 c1        1 FH3     -0.163000
     17 C17        -0.5350    1.5230    0.5030 c1        1 FH3      0.220000
     18 N18        -0.0270    2.6300   -0.2820 n3        1 FH3     -0.260000
     19 C19        -1.0330    3.2690   -0.8450 c3        1 FH3     -0.029000
     20 C20        -1.2700    2.5640   -2.2990 c3        1 FH3     -0.133000
     21 C21        -2.1230    1.2600   -2.1330 c3        1 FH3     -0.011000
     22 N22        -2.8270    0.9850   -3.3620 n         1 FH3     -0.393000
     23 C23        -4.2590    0.8710   -3.3600 c2        1 FH3      0.303000
     24 C24        -4.9340   -0.2530   -2.5760 c3        1 FH3     -0.237000
     25 O25        -4.9310    1.6270   -4.0400 o         1 FH3     -0.372000
     26 C26        -0.0820    2.2690   -2.7590 c3        1 FH3     -0.176000
     27 C27         0.8170    2.0800   -1.4760 c3        1 FH3     -0.026000
     28 H03        -2.3400    2.4680    3.0680 h4        1 FH3      0.172000
     29 H06         1.1610   -0.8670    3.7370 DU        1 FH3      0.231500
     30 H09         1.0310   -3.7020    1.5920 DU        1 FH3      0.231500
     31 H111        3.7430   -6.2400    1.7730 ha        1 FH3      0.098167
     32 H112        2.5290   -6.0330    0.7430 ha        1 FH3      0.098167
     33 H113        2.2340   -6.1550    2.3160 ha        1 FH3      0.098167
     34 H141        4.9210   -1.0610    3.2300 ha        1 FH3      0.098167
     35 H142        4.5760   -0.4440    1.7910 ha        1 FH3      0.098167
     36 H143        5.7600   -1.5170    1.9390 ha        1 FH3      0.098167
     37 H191       -1.8380    3.1820   -0.2940 h1        1 FH3      0.099000
     38 H192       -0.8050    4.2200   -0.9640 h1        1 FH3      0.099000
     39 H271        1.0170    1.1280   -1.3390 h1        1 FH3      0.106000
     40 H272        1.6520    2.5930   -1.5670 h1        1 FH3      0.106000
     41 H20        -1.7230    3.1900   -2.9090 hc        1 FH3      0.109000
     42 H211       -1.5300    0.5060   -1.9200 h1        1 FH3      0.081000
     43 H212       -2.7710    1.3830   -1.4050 h1        1 FH3      0.081000
     44 H261       -0.1150    1.4360   -3.2800 hc        1 FH3      0.096500
     45 H262        0.2630    3.0070   -3.3120 hc        1 FH3      0.096500
     46 H22        -2.3590    0.8790   -4.1450 hn        1 FH3      0.233000
     47 H241       -5.8400   -0.3980   -2.9260 hc        1 FH3      0.105333
     48 H242       -4.4100   -1.0790   -2.6720 hc        1 FH3      0.105333
     49 H243       -4.9850   -0.0060   -1.6270 hc        1 FH3      0.105333
@<TRIPOS>BOND
     1    1    2 1   
     2    2    3 1   
     3    2   17 1   
     4    3    4 1   
     5    3   28 1   
     6    5   16 1   
     7    6    7 1   
     8    7   15 1   
     9    8    9 1   
    10    8   13 1   
    11    9   10 1   
    12   10   12 1   
    13   11   31 1   
    14   11   32 1   
    15   11   33 1   
    16   12   13 1   
    17   14   34 1   
    18   14   35 1   
    19   14   36 1   
    20   15   16 1   
    21   17   18 1   
    22   18   19 1   
    23   18   27 1   
    24   19   20 1   
    25   19   37 1   
    26   19   38 1   
    27   20   21 1   
    28   20   26 1   
    29   20   41 1   
    30   21   22 1   
    31   21   42 1   
    32   21   43 1   
    33   22   23 1   
    34   22   46 1   
    35   23   24 1   
    36   23   25 1   
    37   24   47 1   
    38   24   48 1   
    39   24   49 1   
    40   26   27 1   
    41   26   44 1   
    42   26   45 1   
    43   27   39 1   
    44   27   40 1   
@<TRIPOS>SUBSTRUCTURE
     1 FH3         1 TEMP              0 ****  ****    0 ROOT
