@<TRIPOS>MOLECULE
FH3
   50    53     1     0     0
SMALL
bcc


@<TRIPOS>ATOM
      1 CL         -0.2030   -0.0070   -0.4900 cl        1 FH3     -0.122400
      2 C02         1.4990    0.0930   -0.4570 ca        1 FH3     -0.152900
      3 C03         2.1030    0.3630    0.8000 ca        1 FH3      0.421200
      4 N04         3.4170    0.4830    1.0100 nb        1 FH3     -0.629000
      5 C05         4.1850    0.3260   -0.1020 ca        1 FH3      0.404800
      6 N06         5.5760    0.3930   -0.2410 na        1 FH3     -0.378000
      7 C07         5.8590    0.1540   -1.6130 cc        1 FH3      0.558400
      8 C08         7.2080    0.1480   -2.1010 cc        1 FH3     -0.335200
      9 C09         8.3900    0.3970   -1.3690 cd        1 FH3     -0.111300
     10 N10         9.4430    0.2780   -2.2680 na        1 FH3      0.114400
     11 C11        10.8370    0.4510   -1.9260 c3        1 FH3      0.032600
     12 N12         9.0180   -0.0270   -3.5080 nd        1 FH3     -0.506800
     13 C13         7.6580   -0.1180   -3.4600 cc        1 FH3      0.382600
     14 C14         6.7960   -0.4390   -4.6120 c3        1 FH3     -0.128400
     15 N15         4.7360   -0.0540   -2.3510 nd        1 FH3     -0.555100
     16 C16         3.6710    0.0410   -1.4470 ca        1 FH3      0.007100
     17 C17         2.2720   -0.0910   -1.6190 ca        1 FH3      0.167600
     18 N18         1.7840   -0.3990   -2.9190 nh        1 FH3     -0.606000
     19 C19         1.1360    0.7000   -3.6270 c3        1 FH3      0.189800
     20 C20        -0.2100    0.1940   -4.2110 c3        1 FH3     -0.117700
     21 C21        -1.3340    1.1140   -3.7520 c3        1 FH3      0.109800
     22 N22        -2.6620    0.7190   -4.3200 n4        1 FH3     -0.687800
     23 C23        -3.7760    1.6010   -3.7840 c         1 FH3      0.552100
     24 C24        -3.9800    2.8960   -4.4900 c3        1 FH3     -0.186100
     25 O25        -4.3900    1.1400   -2.8370 o         1 FH3     -0.392100
     26 C26        -0.3670   -1.2440   -3.7150 c3        1 FH3     -0.114400
     27 C27         0.9750   -1.6080   -3.0520 c3        1 FH3      0.177800
     28 H03         1.4700    0.4880    1.7010 h4        1 FH3      0.046100
     29 H06         6.2280    0.5480    0.4810 hn        1 FH3      0.322700
     30 H09         8.5440    0.6410   -0.3180 h4        1 FH3      0.177000
     31 H111       11.2850    1.2700   -2.5500 h1        1 FH3      0.068700
     32 H112       11.3980   -0.5030   -2.1200 h1        1 FH3      0.068700
     33 H113       10.9110    0.7190   -0.8410 h1        1 FH3      0.068700
     34 H141        7.3920   -0.6180   -5.5420 hc        1 FH3      0.062033
     35 H142        6.0880    0.4080   -4.7960 hc        1 FH3      0.062033
     36 H143        6.1970   -1.3570   -4.3860 hc        1 FH3      0.062033
     37 H191        0.9820    1.6000   -2.9710 h1        1 FH3      0.069200
     38 H192        1.8190    0.9930   -4.4720 h1        1 FH3      0.069200
     39 H271        1.5550   -2.3070   -3.7190 h1        1 FH3      0.077200
     40 H272        0.8070   -2.1230   -2.0680 h1        1 FH3      0.077200
     41 H20        -0.1410    0.2090   -5.3320 hc        1 FH3      0.076700
     42 H211       -1.4210    1.0830   -2.6250 hx        1 FH3      0.111700
     43 H212       -1.1210    2.1720   -4.0760 hx        1 FH3      0.111700
     44 H261       -0.5790   -1.9430   -4.5600 hc        1 FH3      0.054700
     45 H262       -1.1920   -1.3360   -2.9650 hc        1 FH3      0.054700
     46 H22        -2.8440   -0.2610   -4.0610 hn        1 FH3      0.459300
     47 H241       -4.3880    2.7160   -5.5190 hc        1 FH3      0.116033
     48 H242       -3.0260    3.4760   -4.5680 hc        1 FH3      0.116033
     49 H243       -4.7280    3.5030   -3.9120 hc        1 FH3      0.116033
     50 H222       -2.6290    0.7850   -5.3410 hn        1 FH3      0.459300
@<TRIPOS>BOND
     1    1    2 1   
     2    2    3 ar  
     3    2   17 ar  
     4    3    4 ar  
     5    3   28 1   
     6    4    5 ar  
     7    5    6 1   
     8    5   16 ar  
     9    6    7 1   
    10    6   29 1   
    11    7    8 1   
    12    7   15 2   
    13    8    9 2   
    14    8   13 1   
    15    9   10 1   
    16    9   30 1   
    17   10   11 1   
    18   10   12 1   
    19   11   31 1   
    20   11   32 1   
    21   11   33 1   
    22   12   13 2   
    23   13   14 1   
    24   14   34 1   
    25   14   35 1   
    26   14   36 1   
    27   15   16 1   
    28   16   17 ar  
    29   17   18 1   
    30   18   19 1   
    31   18   27 1   
    32   19   20 1   
    33   19   37 1   
    34   19   38 1   
    35   20   21 1   
    36   20   26 1   
    37   20   41 1   
    38   21   22 1   
    39   21   42 1   
    40   21   43 1   
    41   22   23 1   
    42   22   46 1   
    43   22   50 1   
    44   23   24 1   
    45   23   25 2   
    46   24   47 1   
    47   24   48 1   
    48   24   49 1   
    49   26   27 1   
    50   26   44 1   
    51   26   45 1   
    52   27   39 1   
    53   27   40 1   
@<TRIPOS>SUBSTRUCTURE
     1 FH3         1 TEMP              0 ****  ****    0 ROOT
