@<TRIPOS>MOLECULE
FH3
   50    53     1     0     0
SMALL
bcc


@<TRIPOS>ATOM
      1 CL         -0.2150    0.0650   -0.4940 cl        1 FH3     -0.122400
      2 C02         1.4870    0.1600   -0.4560 ca        1 FH3     -0.152900
      3 C03         2.0860    0.4660    0.7950 ca        1 FH3      0.421200
      4 N04         3.3990    0.5890    1.0080 nb        1 FH3     -0.629000
      5 C05         4.1720    0.3970   -0.0960 ca        1 FH3      0.404800
      6 N06         5.5640    0.4550   -0.2310 na        1 FH3     -0.378000
      7 C07         5.8520    0.1760   -1.5930 cc        1 FH3      0.558400
      8 C08         7.2030    0.1520   -2.0750 cc        1 FH3     -0.335200
      9 C09         8.3830    0.4210   -1.3460 cd        1 FH3     -0.111300
     10 N10         9.4390    0.2730   -2.2360 na        1 FH3      0.114400
     11 C11        10.8320    0.4520   -1.8940 c3        1 FH3      0.032600
     12 N12         9.0180   -0.0710   -3.4680 nd        1 FH3     -0.506800
     13 C13         7.6590   -0.1580   -3.4230 cc        1 FH3      0.382600
     14 C14         6.8010   -0.5130   -4.5690 c3        1 FH3     -0.128400
     15 N15         4.7310   -0.0510   -2.3300 nd        1 FH3     -0.555100
     16 C16         3.6630    0.0740   -1.4350 ca        1 FH3      0.007100
     17 C17         2.2640   -0.0600   -1.6090 ca        1 FH3      0.167600
     18 N18         1.7820   -0.4050   -2.9010 nh        1 FH3     -0.606000
     19 C19         1.1430    0.6740   -3.6450 c3        1 FH3      0.189800
     20 C20        -0.2040    0.1580   -4.2200 c3        1 FH3     -0.117700
     21 C21        -1.3250    1.0970   -3.7920 c3        1 FH3      0.109800
     22 N22        -2.6520    0.6930   -4.3530 n4        1 FH3     -0.687800
     23 C23        -3.7630    1.5970   -3.8470 c         1 FH3      0.552100
     24 C24        -3.9580    2.8710   -4.5910 c3        1 FH3     -0.186100
     25 O25        -4.3840    1.1660   -2.8890 o         1 FH3     -0.392100
     26 C26        -0.3700   -1.2630   -3.6810 c3        1 FH3     -0.114400
     27 C27         0.9680   -1.6140   -3.0020 c3        1 FH3      0.177800
     28 H03         1.4490    0.6190    1.6890 h4        1 FH3      0.046100
     29 H06         6.2130    0.6300    0.4900 hn        1 FH3      0.322700
     30 H09         8.5320    0.6970   -0.3020 h4        1 FH3      0.177000
     31 H111       11.2850    1.2500   -2.5420 h1        1 FH3      0.068700
     32 H112       10.9020    0.7560   -0.8170 h1        1 FH3      0.068700
     33 H113       11.3910   -0.5090   -2.0530 h1        1 FH3      0.068700
     34 H141        7.4000   -0.7230   -5.4890 hc        1 FH3      0.062033
     35 H142        6.0960    0.3290   -4.7820 hc        1 FH3      0.062033
     36 H143        6.1990   -1.4220   -4.3160 hc        1 FH3      0.062033
     37 H191        0.9920    1.5950   -3.0190 h1        1 FH3      0.069200
     38 H192        1.8310    0.9380   -4.4970 h1        1 FH3      0.069200
     39 H271        1.5460   -2.3350   -3.6440 h1        1 FH3      0.077200
     40 H272        0.7920   -2.0990   -2.0040 h1        1 FH3      0.077200
     41 H20        -0.1310    0.1400   -5.3400 hc        1 FH3      0.076700
     42 H211       -1.1050    2.1440   -4.1460 hx        1 FH3      0.111700
     43 H212       -1.4150    1.1000   -2.6640 hx        1 FH3      0.111700
     44 H261       -0.5820   -1.9860   -4.5060 hc        1 FH3      0.054700
     45 H262       -1.1990   -1.3290   -2.9330 hc        1 FH3      0.054700
     46 H22        -2.8410   -0.2790   -4.0660 hn        1 FH3      0.459300
     47 H241       -4.7040    3.4990   -4.0330 hc        1 FH3      0.116033
     48 H242       -4.3630    2.6640   -5.6150 hc        1 FH3      0.116033
     49 H243       -3.0010    3.4430   -4.6820 hc        1 FH3      0.116033
     50 H222       -2.6160    0.7290   -5.3750 hn        1 FH3      0.459300
@<TRIPOS>BOND
     1    1    2 1   
     2    2    3 ar  
     3    2   17 ar  
     4    3    4 ar  
     5    3   28 1   
     6    4    5 ar  
     7    5    6 1   
     8    5   16 ar  
     9    6    7 1   
    10    6   29 1   
    11    7    8 1   
    12    7   15 2   
    13    8    9 2   
    14    8   13 1   
    15    9   10 1   
    16    9   30 1   
    17   10   11 1   
    18   10   12 1   
    19   11   31 1   
    20   11   32 1   
    21   11   33 1   
    22   12   13 2   
    23   13   14 1   
    24   14   34 1   
    25   14   35 1   
    26   14   36 1   
    27   15   16 1   
    28   16   17 ar  
    29   17   18 1   
    30   18   19 1   
    31   18   27 1   
    32   19   20 1   
    33   19   37 1   
    34   19   38 1   
    35   20   21 1   
    36   20   26 1   
    37   20   41 1   
    38   21   22 1   
    39   21   42 1   
    40   21   43 1   
    41   22   23 1   
    42   22   46 1   
    43   22   50 1   
    44   23   24 1   
    45   23   25 2   
    46   24   47 1   
    47   24   48 1   
    48   24   49 1   
    49   26   27 1   
    50   26   44 1   
    51   26   45 1   
    52   27   39 1   
    53   27   40 1   
@<TRIPOS>SUBSTRUCTURE
     1 FH3         1 TEMP              0 ****  ****    0 ROOT
