@<TRIPOS>MOLECULE
FH3
   49    52     1     0     0
SMALL
bcc


@<TRIPOS>ATOM
      1 CL         -2.4620    2.5670    0.2340 cl        1 FH3     -0.087400
      2 C02        -0.8010    2.2420    0.0810 ca        1 FH3     -0.158900
      3 C03         0.0450    3.3390   -0.2390 ca        1 FH3      0.420200
      4 N04         1.3680    3.2700   -0.4060 nb        1 FH3     -0.651000
      5 C05         1.8890    2.0220   -0.2440 ca        1 FH3      0.396800
      6 N06         3.2200    1.5960   -0.3470 na        1 FH3     -0.383000
      7 C07         3.2180    0.2000   -0.0860 cc        1 FH3      0.524400
      8 C08         4.4360   -0.5620   -0.1130 cc        1 FH3     -0.309200
      9 C09         5.7370   -0.0930   -0.3870 cd        1 FH3     -0.124300
     10 N10         6.5820   -1.1960   -0.2950 na        1 FH3      0.101400
     11 C11         8.0090   -1.1540   -0.5090 c3        1 FH3      0.038600
     12 N12         5.9120   -2.3220    0.0150 nd        1 FH3     -0.515800
     13 C13         4.5950   -1.9880    0.1380 cc        1 FH3      0.378600
     14 C14         3.5130   -2.9330    0.4710 c3        1 FH3     -0.129400
     15 N15         1.9760   -0.2820    0.1760 nd        1 FH3     -0.535100
     16 C16         1.1180    0.8220    0.0880 ca        1 FH3     -0.003900
     17 C17        -0.2860    0.9440    0.2590 ca        1 FH3      0.200600
     18 N18        -1.0270   -0.2220    0.5900 nh        1 FH3     -0.617000
     19 C19        -1.9290   -0.7110   -0.4560 c3        1 FH3      0.177800
     20 C20        -3.2620   -1.1350    0.1990 c3        1 FH3     -0.105700
     21 C21        -4.4450   -0.5670   -0.5900 c3        1 FH3      0.088000
     22 N22        -5.7350   -0.9380   -0.0790 n         1 FH3     -0.568900
     23 C23        -6.5600   -1.8430   -0.7260 c         1 FH3      0.652100
     24 C24        -7.8290   -2.2470   -0.0150 c3        1 FH3     -0.175100
     25 O25        -6.2890   -2.2700   -1.8660 o         1 FH3     -0.605100
     26 C26        -3.1970   -0.6230    1.6370 c3        1 FH3     -0.096400
     27 C27        -1.7420   -0.1860    1.8680 c3        1 FH3      0.172800
     28 H03        -0.3930    4.3480   -0.3690 h4        1 FH3      0.037100
     29 H06         3.9980    2.1580   -0.5650 hn        1 FH3      0.313700
     30 H09         6.1030    0.9030   -0.6300 h4        1 FH3      0.173000
     31 H111        8.5460   -1.5030    0.4140 h1        1 FH3      0.062033
     32 H112        8.2880   -1.8210   -1.3670 h1        1 FH3      0.062033
     33 H113        8.3070   -0.0980   -0.7410 h1        1 FH3      0.062033
     34 H141        2.7570   -2.9400   -0.3540 hc        1 FH3      0.063700
     35 H142        3.8970   -3.9720    0.6190 hc        1 FH3      0.063700
     36 H143        3.0030   -2.5990    1.4100 hc        1 FH3      0.063700
     37 H191       -2.1060    0.0550   -1.2600 h1        1 FH3      0.056200
     38 H192       -1.4280   -1.6010   -0.9270 h1        1 FH3      0.056200
     39 H271       -1.2180   -0.9180    2.5430 h1        1 FH3      0.054200
     40 H272       -1.7040    0.8250    2.3550 h1        1 FH3      0.054200
     41 H20        -3.3220   -2.2560    0.2010 hc        1 FH3      0.068700
     42 H211       -4.3790    0.5610   -0.5770 h1        1 FH3      0.067700
     43 H212       -4.3650   -0.9140   -1.6610 h1        1 FH3      0.067700
     44 H261       -3.8850    0.2470    1.7880 hc        1 FH3      0.047200
     45 H262       -3.4850   -1.4210    2.3630 hc        1 FH3      0.047200
     46 H22        -5.9080   -0.7430    0.8780 hn        1 FH3      0.301500
     47 H241       -7.5930   -2.7520    0.9530 hc        1 FH3      0.065033
     48 H242       -8.4670   -1.3530    0.1850 hc        1 FH3      0.065033
     49 H243       -8.3940   -2.9580   -0.6660 hc        1 FH3      0.065033
@<TRIPOS>BOND
     1    1    2 1   
     2    2    3 ar  
     3    2   17 ar  
     4    3    4 ar  
     5    3   28 1   
     6    4    5 ar  
     7    5    6 1   
     8    5   16 ar  
     9    6    7 1   
    10    6   29 1   
    11    7    8 1   
    12    7   15 2   
    13    8    9 2   
    14    8   13 1   
    15    9   10 1   
    16    9   30 1   
    17   10   11 1   
    18   10   12 1   
    19   11   31 1   
    20   11   32 1   
    21   11   33 1   
    22   12   13 2   
    23   13   14 1   
    24   14   34 1   
    25   14   35 1   
    26   14   36 1   
    27   15   16 1   
    28   16   17 ar  
    29   17   18 1   
    30   18   19 1   
    31   18   27 1   
    32   19   20 1   
    33   19   37 1   
    34   19   38 1   
    35   20   21 1   
    36   20   26 1   
    37   20   41 1   
    38   21   22 1   
    39   21   42 1   
    40   21   43 1   
    41   22   23 1   
    42   22   46 1   
    43   23   24 1   
    44   23   25 2   
    45   24   47 1   
    46   24   48 1   
    47   24   49 1   
    48   26   27 1   
    49   26   44 1   
    50   26   45 1   
    51   27   39 1   
    52   27   40 1   
@<TRIPOS>SUBSTRUCTURE
     1 FH3         1 TEMP              0 ****  ****    0 ROOT
