@<TRIPOS>MOLECULE
FH3
   50    53     1     0     0
SMALL
bcc


@<TRIPOS>ATOM
      1 Cl         -0.2020    0.0320   -0.4820 cl        1 FH3     -0.122400
      2 C02         1.5010    0.1280   -0.4530 ca        1 FH3     -0.152900
      3 C03         2.1070    0.4140    0.8000 ca        1 FH3      0.421200
      4 N04         3.4210    0.5350    1.0070 nb        1 FH3     -0.629000
      5 C05         4.1870    0.3590   -0.1040 ca        1 FH3      0.404800
      6 N06         5.5790    0.4200   -0.2460 na        1 FH3     -0.378000
      7 C07         5.8590    0.1600   -1.6140 cc        1 FH3      0.558400
      8 C08         7.2080    0.1440   -2.1040 cc        1 FH3     -0.335200
      9 C09         8.3910    0.4030   -1.3780 cd        1 FH3     -0.111300
     10 N10         9.4430    0.2670   -2.2760 na        1 FH3      0.114400
     11 C11        10.8380    0.4430   -1.9390 c3        1 FH3      0.032600
     12 N12         9.0150   -0.0590   -3.5100 nd        1 FH3     -0.506800
     13 C13         7.6550   -0.1470   -3.4590 cc        1 FH3      0.382600
     14 C14         6.7910   -0.4870   -4.6040 c3        1 FH3     -0.128400
     15 N15         4.7350   -0.0560   -2.3480 nd        1 FH3     -0.555100
     16 C16         3.6720    0.0560   -1.4450 ca        1 FH3      0.007100
     17 C17         2.2710   -0.0750   -1.6130 ca        1 FH3      0.167600
     18 N18         1.7810   -0.4020   -2.9080 nh        1 FH3     -0.606000
     19 C19         1.1370    0.6890   -3.6310 c3        1 FH3      0.189800
     20 C20        -0.2120    0.1800   -4.2060 c3        1 FH3     -0.117700
     21 C21        -1.3310    1.1110   -3.7580 c3        1 FH3      0.109800
     22 N22        -2.6620    0.7140   -4.3180 ny        1 FH3     -0.687800
     23 C23        -3.7710    1.6080   -3.7930 c         1 FH3      0.552100
     24 C24        -3.9710    2.8930   -4.5180 c3        1 FH3     -0.186100
     25 O25        -4.3860    1.1630   -2.8390 o         1 FH3     -0.392100
     26 C26        -0.3740   -1.2500   -3.6880 c3        1 FH3     -0.114400
     27 C27         0.9680   -1.6090   -3.0210 c3        1 FH3      0.177800
     28 H03         1.4750    0.5550    1.6990 h4        1 FH3      0.046100
     29 H06         6.2320    0.5840    0.4740 hn        1 FH3      0.322700
     30 H09         8.5460    0.6650   -0.3310 h4        1 FH3      0.177000
     31 H111       10.9130    0.7300   -0.8580 h1        1 FH3      0.068700
     32 H112       11.2850    1.2510   -2.5780 h1        1 FH3      0.068700
     33 H113       11.3960   -0.5150   -2.1160 h1        1 FH3      0.068700
     34 H141        6.0850    0.3580   -4.8020 hc        1 FH3      0.062033
     35 H142        6.1910   -1.3990   -4.3610 hc        1 FH3      0.062033
     36 H143        7.3860   -0.6840   -5.5300 hc        1 FH3      0.062033
     37 H191        0.9880    1.6000   -2.9900 h1        1 FH3      0.069200
     38 H192        1.8210    0.9660   -4.4820 h1        1 FH3      0.069200
     39 H271        1.5440   -2.3210   -3.6780 h1        1 FH3      0.077200
     40 H272        0.7980   -2.1090   -2.0300 h1        1 FH3      0.077200
     41 H20        -0.1450    0.1780   -5.3270 hc        1 FH3      0.076700
     42 H211       -1.4160    1.0970   -2.6310 hx        1 FH3      0.111700
     43 H212       -1.1150    2.1640   -4.0980 hx        1 FH3      0.111700
     44 H261       -1.1980   -1.3280   -2.9360 hc        1 FH3      0.054700
     45 H262       -0.5900   -1.9610   -4.5220 hc        1 FH3      0.054700
     46 H22        -2.6310    0.7640   -5.3400 hn        1 FH3      0.459300
     47 H241       -4.7150    3.5120   -3.9470 hc        1 FH3      0.116033
     48 H242       -4.3810    2.7010   -5.5430 hc        1 FH3      0.116033
     49 H243       -3.0150    3.4680   -4.6050 hc        1 FH3      0.116033
     50 H222       -2.8480   -0.2620   -4.0450 hn        1 FH3      0.459300
@<TRIPOS>BOND
     1    1    2 1   
     2    2    3 ar  
     3    2   17 ar  
     4    3    4 ar  
     5    3   28 1   
     6    4    5 ar  
     7    5    6 1   
     8    5   16 ar  
     9    6    7 1   
    10    6   29 1   
    11    7    8 1   
    12    7   15 2   
    13    8    9 2   
    14    8   13 1   
    15    9   10 1   
    16    9   30 1   
    17   10   11 1   
    18   10   12 1   
    19   11   31 1   
    20   11   32 1   
    21   11   33 1   
    22   12   13 2   
    23   13   14 1   
    24   14   34 1   
    25   14   35 1   
    26   14   36 1   
    27   15   16 1   
    28   16   17 ar  
    29   17   18 1   
    30   18   19 1   
    31   18   27 1   
    32   19   20 1   
    33   19   37 1   
    34   19   38 1   
    35   20   21 1   
    36   20   26 1   
    37   20   41 1   
    38   21   22 1   
    39   21   42 1   
    40   21   43 1   
    41   22   23 1   
    42   22   46 1   
    43   22   50 1   
    44   23   24 1   
    45   23   25 2   
    46   24   47 1   
    47   24   48 1   
    48   24   49 1   
    49   26   27 1   
    50   26   44 1   
    51   26   45 1   
    52   27   39 1   
    53   27   40 1   
@<TRIPOS>SUBSTRUCTURE
     1 FH3         1 TEMP              0 ****  ****    0 ROOT
