@<TRIPOS>MOLECULE
FH5
   46    49     1     0     0
SMALL
bcc


@<TRIPOS>ATOM
      1 CL         -2.7550    3.1890    0.1800 cl        1 FH5     -0.081400
      2 C02        -1.1270    2.7150    0.0710 ca        1 FH5     -0.157900
      3 C03        -0.1690    3.7410   -0.1610 ca        1 FH5      0.421200
      4 N04         1.1470    3.5540   -0.2820 nb        1 FH5     -0.651000
      5 C05         1.5430    2.2560   -0.1660 ca        1 FH5      0.396800
      6 N06         2.8310    1.7100   -0.2430 na        1 FH5     -0.383000
      7 C07         2.6880    0.3100   -0.0550 cc        1 FH5      0.524400
      8 C08         3.8310   -0.5610   -0.0750 cc        1 FH5     -0.309200
      9 C09         5.1770   -0.2080   -0.2980 cd        1 FH5     -0.124300
     10 N10         5.9130   -1.3880   -0.2230 na        1 FH5      0.101400
     11 C11         7.3440   -1.4720   -0.3950 c3        1 FH5      0.037600
     12 N12         5.1330   -2.4550    0.0290 nd        1 FH5     -0.515800
     13 C13         3.8500   -2.0030    0.1280 cc        1 FH5      0.377600
     14 C14         2.6760   -2.8530    0.3990 c3        1 FH5     -0.128400
     15 N15         1.3970   -0.0640    0.1360 nd        1 FH5     -0.538100
     16 C16         0.6510    1.1210    0.0740 ca        1 FH5     -0.003900
     17 C17        -0.7420    1.3670    0.2010 ca        1 FH5      0.200600
     18 N18        -1.6030    0.2650    0.4440 nh        1 FH5     -0.623000
     19 C19        -2.5020   -0.0790   -0.6580 c3        1 FH5      0.150800
     20 C20        -3.8380   -0.6110   -0.0430 c3        1 FH5      0.098700
     21 N21        -3.9540   -2.0420   -0.1170 n         1 FH5     -0.572900
     22 C22        -4.9800   -2.6810   -0.7860 c         1 FH5      0.660100
     23 C23        -4.9440   -4.1900   -0.8200 c3        1 FH5     -0.175100
     24 O24        -5.9010   -2.0390   -1.3310 o         1 FH5     -0.612100
     25 C25        -3.8180   -0.0700    1.4070 c3        1 FH5     -0.112400
     26 C26        -2.3600    0.3060    1.6970 c3        1 FH5      0.167800
     27 H03        -0.5050    4.7920   -0.2550 h4        1 FH5      0.038100
     28 H06         3.6670    2.2060   -0.3970 hn        1 FH5      0.313700
     29 H09         5.6410    0.7570   -0.4960 h4        1 FH5      0.173000
     30 H111        7.8180   -1.8930    0.5320 h1        1 FH5      0.062367
     31 H112        7.5880   -2.1400   -1.2640 h1        1 FH5      0.062367
     32 H113        7.7450   -0.4430   -0.5880 h1        1 FH5      0.062367
     33 H141        1.9510   -2.7680   -0.4500 hc        1 FH5      0.062700
     34 H142        2.9580   -3.9270    0.5270 hc        1 FH5      0.062700
     35 H143        2.1660   -2.4990    1.3310 hc        1 FH5      0.062700
     36 H191       -2.7390    0.8000   -1.3170 h1        1 FH5      0.058200
     37 H192       -1.9820   -0.8540   -1.2840 h1        1 FH5      0.058200
     38 H261       -1.8860   -0.4530    2.3790 h1        1 FH5      0.052700
     39 H262       -2.3030    1.3070    2.2050 h1        1 FH5      0.052700
     40 H20        -4.7060   -0.1620   -0.6080 h1        1 FH5      0.098700
     41 H21        -3.2160   -2.5770    0.2710 hn        1 FH5      0.314500
     42 H251       -4.4730    0.8340    1.4650 hc        1 FH5      0.059700
     43 H252       -4.1890   -0.8130    2.1510 hc        1 FH5      0.059700
     44 H231       -4.0180   -4.5480   -1.3300 hc        1 FH5      0.065700
     45 H232       -4.9750   -4.6060    0.2160 hc        1 FH5      0.065700
     46 H233       -5.8350   -4.5560   -1.3850 hc        1 FH5      0.065700
@<TRIPOS>BOND
     1    1    2 1   
     2    2    3 ar  
     3    2   17 ar  
     4    3    4 ar  
     5    3   27 1   
     6    4    5 ar  
     7    5    6 1   
     8    5   16 ar  
     9    6    7 1   
    10    6   28 1   
    11    7    8 1   
    12    7   15 2   
    13    8    9 2   
    14    8   13 1   
    15    9   10 1   
    16    9   29 1   
    17   10   11 1   
    18   10   12 1   
    19   11   30 1   
    20   11   31 1   
    21   11   32 1   
    22   12   13 2   
    23   13   14 1   
    24   14   33 1   
    25   14   34 1   
    26   14   35 1   
    27   15   16 1   
    28   16   17 ar  
    29   17   18 1   
    30   18   19 1   
    31   18   26 1   
    32   19   20 1   
    33   19   36 1   
    34   19   37 1   
    35   20   21 1   
    36   20   25 1   
    37   20   40 1   
    38   21   22 1   
    39   21   41 1   
    40   22   23 1   
    41   22   24 2   
    42   23   44 1   
    43   23   45 1   
    44   23   46 1   
    45   25   26 1   
    46   25   42 1   
    47   25   43 1   
    48   26   38 1   
    49   26   39 1   
@<TRIPOS>SUBSTRUCTURE
     1 FH5         1 TEMP              0 ****  ****    0 ROOT
