@<TRIPOS>MOLECULE
FH5
   47    50     1     0     0
SMALL
bcc


@<TRIPOS>ATOM
      1 Cl          0.0030   -0.4350    0.7860 cl        1 FH5     -0.075400
      2 C02         1.6660   -0.4140    0.4480 ca        1 FH5     -0.139900
      3 C03         2.5580   -0.7000    1.5200 ca        1 FH5      0.425200
      4 N04         3.8900   -0.7110    1.4290 nb        1 FH5     -0.620000
      5 C05         4.3790   -0.4190    0.1930 ca        1 FH5      0.405800
      6 N06         5.7070   -0.3340   -0.2460 na        1 FH5     -0.373000
      7 C07         5.6600    0.0040   -1.6220 cc        1 FH5      0.563400
      8 C08         6.8650    0.1680   -2.3850 cc        1 FH5     -0.335200
      9 C09         8.1890    0.2270   -1.8970 cd        1 FH5     -0.106300
     10 N10         9.0110    0.3940   -3.0040 na        1 FH5      0.117400
     11 C11        10.4530    0.4970   -2.9490 c3        1 FH5      0.030600
     12 N12         8.3100    0.4420   -4.1520 nd        1 FH5     -0.501800
     13 C13         6.9920    0.3090   -3.8270 cc        1 FH5      0.371600
     14 C14         5.8860    0.3060   -4.8010 c3        1 FH5     -0.121400
     15 N15         4.3870    0.1460   -2.0850 nd        1 FH5     -0.587100
     16 C16         3.5620   -0.1130   -0.9840 ca        1 FH5      0.002100
     17 C17         2.1520   -0.1220   -0.8380 ca        1 FH5      0.157600
     18 N18         1.3680    0.1600   -1.9860 nh        1 FH5     -0.646000
     19 C19         0.6280    1.4180   -1.9840 c3        1 FH5      0.154800
     20 C20        -0.3040    1.3020   -3.2280 c3        1 FH5      0.117500
     21 N21         0.4560    1.7000   -4.4660 ny        1 FH5     -0.680800
     22 C22        -0.4350    1.7980   -5.6860 c         1 FH5      0.550100
     23 C23        -0.1140    0.8620   -6.8000 c3        1 FH5     -0.189100
     24 O24        -1.3160    2.6410   -5.6380 o         1 FH5     -0.404100
     25 C25        -0.6710   -0.1980   -3.2350 c3        1 FH5     -0.113400
     26 C26         0.4800   -0.8950   -2.4820 c3        1 FH5      0.159800
     27 H03         2.1530   -0.9350    2.5240 h4        1 FH5      0.054100
     28 H06         6.5130   -0.5100    0.2950 hn        1 FH5      0.326700
     29 H09         8.5800    0.1700   -0.8800 h4        1 FH5      0.182000
     30 H111       10.7750    0.4530   -1.8760 h1        1 FH5      0.071700
     31 H112       10.9180   -0.3510   -3.5190 h1        1 FH5      0.071700
     32 H113       10.7840    1.4690   -3.4040 h1        1 FH5      0.071700
     33 H141        6.2580    0.3500   -5.8540 hc        1 FH5      0.054700
     34 H142        5.2790   -0.6250   -4.6710 hc        1 FH5      0.054700
     35 H143        5.2260    1.1900   -4.6140 hc        1 FH5      0.054700
     36 H191        1.3550    2.2730   -2.0380 h1        1 FH5      0.085200
     37 H192       -0.0260    1.5710   -1.0790 h1        1 FH5      0.085200
     38 H261        0.0690   -1.5520   -1.6670 h1        1 FH5      0.077200
     39 H262        1.0860   -1.5420   -3.1750 h1        1 FH5      0.077200
     40 H20        -1.2020    1.9730   -3.1490 hx        1 FH5      0.128700
     41 H21         1.2070    1.0160   -4.6250 hn        1 FH5      0.467800
     42 H251       -1.6370   -0.3280   -2.6830 hc        1 FH5      0.083700
     43 H252       -0.8010   -0.6200   -4.2590 hc        1 FH5      0.083700
     44 H231       -0.8480    1.0330   -7.6330 hc        1 FH5      0.114367
     45 H232        0.9200    1.0470   -7.1890 hc        1 FH5      0.114367
     46 H233       -0.1940   -0.2030   -6.4620 hc        1 FH5      0.114367
     47 H212        0.8870    2.6170   -4.2900 hn        1 FH5      0.467800
@<TRIPOS>BOND
     1    1    2 1   
     2    2    3 ar  
     3    2   17 ar  
     4    3    4 ar  
     5    3   27 1   
     6    4    5 ar  
     7    5    6 1   
     8    5   16 ar  
     9    6    7 1   
    10    6   28 1   
    11    7    8 1   
    12    7   15 2   
    13    8    9 2   
    14    8   13 1   
    15    9   10 1   
    16    9   29 1   
    17   10   11 1   
    18   10   12 1   
    19   11   30 1   
    20   11   31 1   
    21   11   32 1   
    22   12   13 2   
    23   13   14 1   
    24   14   33 1   
    25   14   34 1   
    26   14   35 1   
    27   15   16 1   
    28   16   17 ar  
    29   17   18 1   
    30   18   19 1   
    31   18   26 1   
    32   19   20 1   
    33   19   36 1   
    34   19   37 1   
    35   20   21 1   
    36   20   25 1   
    37   20   40 1   
    38   21   22 1   
    39   21   41 1   
    40   21   47 1   
    41   22   23 1   
    42   22   24 2   
    43   23   44 1   
    44   23   45 1   
    45   23   46 1   
    46   25   26 1   
    47   25   42 1   
    48   25   43 1   
    49   26   38 1   
    50   26   39 1   
@<TRIPOS>SUBSTRUCTURE
     1 FH5         1 TEMP              0 ****  ****    0 ROOT
