@<TRIPOS>MOLECULE
FH5
   47    50     1     0     0
SMALL
bcc


@<TRIPOS>ATOM
      1 CL          0.0290   -0.0270    0.7430 cl        1 FH5     -0.078400
      2 C02         1.6980   -0.0720    0.4410 ca        1 FH5     -0.140900
      3 C03         2.5660   -0.1910    1.5620 ca        1 FH5      0.424200
      4 N04         3.9000   -0.2270    1.5030 nb        1 FH5     -0.620000
      5 C05         4.4160   -0.1370    0.2470 ca        1 FH5      0.405800
      6 N06         5.7530   -0.1310   -0.1720 na        1 FH5     -0.374000
      7 C07         5.7350   -0.0140   -1.5850 cc        1 FH5      0.563400
      8 C08         6.9560    0.0160   -2.3400 cc        1 FH5     -0.336200
      9 C09         8.2710    0.1470   -1.8410 cd        1 FH5     -0.106300
     10 N10         9.1160    0.1270   -2.9440 na        1 FH5      0.117400
     11 C11        10.5580    0.2240   -2.8760 c3        1 FH5      0.030600
     12 N12         8.4380   -0.0090   -4.0980 nd        1 FH5     -0.501800
     13 C13         7.1120   -0.0810   -3.7830 cc        1 FH5      0.373600
     14 C14         6.0250   -0.2380   -4.7650 c3        1 FH5     -0.122400
     15 N15         4.4730    0.0640   -2.0910 nd        1 FH5     -0.584100
     16 C16         3.6240   -0.0140   -0.9810 ca        1 FH5      0.003100
     17 C17         2.2130    0.0070   -0.8660 ca        1 FH5      0.157600
     18 N18         1.4530    0.1030   -2.0600 nh        1 FH5     -0.642000
     19 C19         0.7310    1.3530   -2.2750 c3        1 FH5      0.155800
     20 C20        -0.2100    1.0400   -3.4780 c3        1 FH5      0.119500
     21 N21         0.5450    1.2090   -4.7710 n4        1 FH5     -0.681800
     22 C22        -0.3640    1.1330   -5.9760 c         1 FH5      0.548100
     23 C23        -1.0090    2.4110   -6.3910 c3        1 FH5     -0.188100
     24 O24        -0.4650    0.0330   -6.4960 o         1 FH5     -0.402100
     25 C25        -0.5960   -0.4350   -3.2330 c3        1 FH5     -0.116400
     26 C26         0.5600   -1.0120   -2.3900 c3        1 FH5      0.159800
     27 H03         2.1390   -0.2620    2.5830 h4        1 FH5      0.054100
     28 H06         6.5460   -0.2330    0.4060 hn        1 FH5      0.325700
     29 H09         8.6420    0.2540   -0.8210 h4        1 FH5      0.181000
     30 H111       10.9120    1.0870   -3.5000 h1        1 FH5      0.071367
     31 H112       11.0210   -0.7230   -3.2630 h1        1 FH5      0.071367
     32 H113       10.8570    0.3820   -1.8070 h1        1 FH5      0.071367
     33 H141        5.4070   -1.1310   -4.4960 hc        1 FH5      0.056033
     34 H142        6.4180   -0.3710   -5.8040 hc        1 FH5      0.056033
     35 H143        5.3700    0.6680   -4.7410 hc        1 FH5      0.056033
     36 H191        1.4700    2.1730   -2.4780 h1        1 FH5      0.082700
     37 H192        0.0840    1.6700   -1.4080 h1        1 FH5      0.082700
     38 H261        0.1530   -1.5410   -1.4850 h1        1 FH5      0.080200
     39 H262        1.1620   -1.7530   -2.9840 h1        1 FH5      0.080200
     40 H20        -1.0980    1.7260   -3.5040 hx        1 FH5      0.107700
     41 H21         1.2550    0.4590   -4.8200 hn        1 FH5      0.469300
     42 H251       -0.7430   -1.0180   -4.1750 hc        1 FH5      0.092200
     43 H252       -1.5550   -0.4600   -2.6560 hc        1 FH5      0.092200
     44 H231       -1.5160    2.9150   -5.5300 hc        1 FH5      0.112700
     45 H232       -0.2440    3.1050   -6.8260 hc        1 FH5      0.112700
     46 H233       -1.7740    2.1860   -7.1810 hc        1 FH5      0.112700
     47 H212        1.0290    2.1120   -4.7570 hn        1 FH5      0.469300
@<TRIPOS>BOND
     1    1    2 1   
     2    2    3 ar  
     3    2   17 ar  
     4    3    4 ar  
     5    3   27 1   
     6    4    5 ar  
     7    5    6 1   
     8    5   16 ar  
     9    6    7 1   
    10    6   28 1   
    11    7    8 1   
    12    7   15 2   
    13    8    9 2   
    14    8   13 1   
    15    9   10 1   
    16    9   29 1   
    17   10   11 1   
    18   10   12 1   
    19   11   30 1   
    20   11   31 1   
    21   11   32 1   
    22   12   13 2   
    23   13   14 1   
    24   14   33 1   
    25   14   34 1   
    26   14   35 1   
    27   15   16 1   
    28   16   17 ar  
    29   17   18 1   
    30   18   19 1   
    31   18   26 1   
    32   19   20 1   
    33   19   36 1   
    34   19   37 1   
    35   20   21 1   
    36   20   25 1   
    37   20   40 1   
    38   21   22 1   
    39   21   41 1   
    40   21   47 1   
    41   22   23 1   
    42   22   24 2   
    43   23   44 1   
    44   23   45 1   
    45   23   46 1   
    46   25   26 1   
    47   25   42 1   
    48   25   43 1   
    49   26   38 1   
    50   26   39 1   
@<TRIPOS>SUBSTRUCTURE
     1 FH5         1 TEMP              0 ****  ****    0 ROOT
