@<TRIPOS>MOLECULE
FH5
   46    41     1     0     0
SMALL
bcc


@<TRIPOS>ATOM
      1 CL         -2.4270   -2.3600    1.1090 cl        1 FH5     -0.003000
      2 C02        -0.6760   -2.3720    1.0430 c2        1 FH5     -0.171000
      3 C03        -0.9620   -2.3290    2.4050 c2        1 FH5     -0.044000
      4 N04        -0.8860   -1.1440    3.0840 n1        1 FH5     -0.125000
      5 C05        -0.5250    0.0180    2.4160 c1        1 FH5      0.005000
      6 N06        -0.4120    1.3110    2.8330 n1        1 FH5     -0.231000
      7 C07        -0.0620    2.0710    1.7580 c1        1 FH5      0.114000
      8 C08        -0.1250    3.5500    2.1520 c1        1 FH5     -0.160000
      9 C09        -1.2590    4.3140    2.2300 c1        1 FH5     -0.072500
     10 N10        -0.9060    5.5420    2.6820 n2        1 FH5     -0.097500
     11 C11        -1.8000    6.6400    2.9280 c2        1 FH5     -0.106500
     12 N12         0.4560    5.5450    2.8860 n2        1 FH5     -0.097500
     13 C13         0.9320    4.3210    2.5600 c1        1 FH5     -0.072500
     14 C14         2.3970    3.8800    2.6220 c2        1 FH5     -0.106500
     15 N15         0.0420    1.2490    0.6740 n2        1 FH5     -0.111000
     16 C16        -0.2430   -0.0190    1.0790 c1        1 FH5     -0.078000
     17 C17        -0.3200   -1.2280    0.3840 c1        1 FH5      0.119000
     18 N18        -0.0200   -2.5080   -0.2440 n3        1 FH5     -0.225000
     19 C19        -0.6030   -2.5660   -1.4230 c3        1 FH5     -0.086000
     20 C20         0.4130   -3.3950   -2.3970 c3        1 FH5      0.022000
     21 N21         0.1550   -3.0540   -3.8020 n         1 FH5     -0.382000
     22 C22         0.0350   -4.0960   -4.7820 c2        1 FH5      0.304000
     23 C23        -0.1910   -3.7390   -6.2500 c3        1 FH5     -0.243000
     24 O24         0.1470   -5.2620   -4.4500 o         1 FH5     -0.373000
     25 C25         1.6200   -3.0270   -2.0610 c3        1 FH5     -0.191000
     26 C26         1.5090   -2.5960   -0.5480 c3        1 FH5     -0.069000
     27 H03        -1.1980   -3.1560    2.8830 h4        1 FH5      0.175000
     28 H06        -0.5320    1.6130    3.6930 DU        1 FH5      0.218500
     29 H09        -2.1620    4.0370    1.9590 DU        1 FH5      0.218500
     30 H111       -2.4320    6.3940    3.6390 ha        1 FH5      0.101833
     31 H112       -1.2820    7.4270    3.2090 ha        1 FH5      0.101833
     32 H113       -2.2950    6.8490    2.1070 ha        1 FH5      0.101833
     33 H141        2.5030    3.1930    3.3160 ha        1 FH5      0.101833
     34 H142        2.6640    3.5100    1.7520 ha        1 FH5      0.101833
     35 H143        2.9640    4.6540    2.8360 ha        1 FH5      0.101833
     36 H191       -0.7440   -1.6580   -1.7760 h1        1 FH5      0.097500
     37 H192       -1.4650   -3.0400   -1.3520 h1        1 FH5      0.097500
     38 H261        1.9330   -3.2720    0.0300 h1        1 FH5      0.092000
     39 H262        1.9340   -1.7180   -0.4130 h1        1 FH5      0.092000
     40 H20         0.3020   -4.3630   -2.2560 h1        1 FH5      0.138000
     41 H21         0.0780   -2.1760   -4.0540 hn        1 FH5      0.228000
     42 H251        1.9120   -2.2660   -2.6130 hc        1 FH5      0.099000
     43 H252        2.2480   -3.7820   -2.1570 hc        1 FH5      0.099000
     44 H231       -0.9160   -3.0820   -6.3190 hc        1 FH5      0.105000
     45 H232        0.6320   -3.3590   -6.6250 hc        1 FH5      0.105000
     46 H233       -0.4350   -4.5500   -6.7500 hc        1 FH5      0.105000
@<TRIPOS>BOND
     1    1    2 1   
     2    2    3 1   
     3    2   17 1   
     4    3    4 1   
     5    3   27 1   
     6    5   16 1   
     7    6    7 1   
     8    7   15 1   
     9    8    9 1   
    10    8   13 1   
    11    9   10 1   
    12   10   12 1   
    13   11   30 1   
    14   11   31 1   
    15   11   32 1   
    16   12   13 1   
    17   14   33 1   
    18   14   34 1   
    19   14   35 1   
    20   15   16 1   
    21   17   18 1   
    22   18   19 1   
    23   18   26 1   
    24   19   20 1   
    25   19   36 1   
    26   19   37 1   
    27   20   21 1   
    28   20   25 1   
    29   20   40 1   
    30   21   22 1   
    31   21   41 1   
    32   22   23 1   
    33   22   24 1   
    34   23   44 1   
    35   23   45 1   
    36   23   46 1   
    37   25   26 1   
    38   25   42 1   
    39   25   43 1   
    40   26   38 1   
    41   26   39 1   
@<TRIPOS>SUBSTRUCTURE
     1 FH5         1 TEMP              0 ****  ****    0 ROOT
