@<TRIPOS>MOLECULE
FH5
   47    50     1     0     0
SMALL
bcc


@<TRIPOS>ATOM
      1 CL          0.0210   -0.5150    0.7810 cl        1 FH5     -0.075400
      2 C02         1.6820   -0.4800    0.4380 ca        1 FH5     -0.139900
      3 C03         2.5800   -0.7840    1.4990 ca        1 FH5      0.425200
      4 N04         3.9110   -0.7870    1.4030 nb        1 FH5     -0.620000
      5 C05         4.3940   -0.4670    0.1720 ca        1 FH5      0.405800
      6 N06         5.7200   -0.3670   -0.2700 na        1 FH5     -0.373000
      7 C07         5.6650    0.0010   -1.6380 cc        1 FH5      0.563400
      8 C08         6.8670    0.1860   -2.4020 cc        1 FH5     -0.335200
      9 C09         8.1930    0.2370   -1.9180 cd        1 FH5     -0.106300
     10 N10         9.0100    0.4330   -3.0250 na        1 FH5      0.117400
     11 C11        10.4520    0.5390   -2.9730 c3        1 FH5      0.030600
     12 N12         8.3040    0.5060   -4.1680 nd        1 FH5     -0.501800
     13 C13         6.9880    0.3620   -3.8410 cc        1 FH5      0.371600
     14 C14         5.8770    0.3780   -4.8100 c3        1 FH5     -0.121400
     15 N15         4.3910    0.1470   -2.0930 nd        1 FH5     -0.587100
     16 C16         3.5710   -0.1390   -0.9950 ca        1 FH5      0.002100
     17 C17         2.1620   -0.1580   -0.8450 ca        1 FH5      0.157600
     18 N18         1.3720    0.1450   -1.9830 nh        1 FH5     -0.646000
     19 C19         0.6270    1.3990   -1.9510 c3        1 FH5      0.154800
     20 C20        -0.3100    1.3050   -3.1930 c3        1 FH5      0.117500
     21 N21         0.4430    1.7340   -4.4260 n4        1 FH5     -0.680800
     22 C22        -0.4530    1.8530   -5.6400 c         1 FH5      0.550100
     23 C23        -0.1330    0.9420   -6.7750 c3        1 FH5     -0.189100
     24 O24        -1.3370    2.6920   -5.5710 o         1 FH5     -0.404100
     25 C25        -0.6710   -0.1960   -3.2310 c3        1 FH5     -0.113400
     26 C26         0.4870   -0.9040   -2.4980 c3        1 FH5      0.159800
     27 H03         2.1790   -1.0430    2.5000 h4        1 FH5      0.054100
     28 H06         6.5290   -0.5510    0.2640 hn        1 FH5      0.326700
     29 H09         8.5890    0.1580   -0.9050 h4        1 FH5      0.182000
     30 H111       10.7780    1.5240   -3.4040 h1        1 FH5      0.071700
     31 H112       10.7790    0.4680   -1.9030 h1        1 FH5      0.071700
     32 H113       10.9170   -0.2930   -3.5670 h1        1 FH5      0.071700
     33 H141        5.2150    1.2550   -4.6000 hc        1 FH5      0.054700
     34 H142        5.2740   -0.5580   -4.7010 hc        1 FH5      0.054700
     35 H143        6.2450    0.4500   -5.8640 hc        1 FH5      0.054700
     36 H191       -0.0250    1.5300   -1.0400 h1        1 FH5      0.085200
     37 H192        1.3490    2.2580   -1.9900 h1        1 FH5      0.085200
     38 H261        0.0820   -1.5790   -1.6950 h1        1 FH5      0.077200
     39 H262        1.0920   -1.5320   -3.2060 h1        1 FH5      0.077200
     40 H20        -1.2110    1.9710   -3.0970 hx        1 FH5      0.128700
     41 H21         0.8710    2.6480   -4.2320 hn        1 FH5      0.467800
     42 H251       -0.8030   -0.5960   -4.2640 hc        1 FH5      0.083700
     43 H252       -1.6340   -0.3410   -2.6790 hc        1 FH5      0.083700
     44 H231        0.8990    1.1400   -7.1650 hc        1 FH5      0.114367
     45 H232       -0.8700    1.1280   -7.6010 hc        1 FH5      0.114367
     46 H233       -0.2070   -0.1300   -6.4590 hc        1 FH5      0.114367
     47 H212        1.1960    1.0560   -4.6020 hn        1 FH5      0.467800
@<TRIPOS>BOND
     1    1    2 1   
     2    2    3 ar  
     3    2   17 ar  
     4    3    4 ar  
     5    3   27 1   
     6    4    5 ar  
     7    5    6 1   
     8    5   16 ar  
     9    6    7 1   
    10    6   28 1   
    11    7    8 1   
    12    7   15 2   
    13    8    9 2   
    14    8   13 1   
    15    9   10 1   
    16    9   29 1   
    17   10   11 1   
    18   10   12 1   
    19   11   30 1   
    20   11   31 1   
    21   11   32 1   
    22   12   13 2   
    23   13   14 1   
    24   14   33 1   
    25   14   34 1   
    26   14   35 1   
    27   15   16 1   
    28   16   17 ar  
    29   17   18 1   
    30   18   19 1   
    31   18   26 1   
    32   19   20 1   
    33   19   36 1   
    34   19   37 1   
    35   20   21 1   
    36   20   25 1   
    37   20   40 1   
    38   21   22 1   
    39   21   41 1   
    40   21   47 1   
    41   22   23 1   
    42   22   24 2   
    43   23   44 1   
    44   23   45 1   
    45   23   46 1   
    46   25   26 1   
    47   25   42 1   
    48   25   43 1   
    49   26   38 1   
    50   26   39 1   
@<TRIPOS>SUBSTRUCTURE
     1 FH5         1 TEMP              0 ****  ****    0 ROOT
