@<TRIPOS>MOLECULE
FH7
   23    22     1     0     0
SMALL
bcc


@<TRIPOS>ATOM
      1 N          -2.3740    1.4110   -1.6170 n3        1 FH7     -0.891800
      2 CA         -1.0080    1.0320   -1.6990 c3        1 FH7      0.016500
      3 CB         -0.3930    1.0410   -0.3040 c3        1 FH7     -0.062400
      4 CG          0.1610   -0.3340    0.0150 c3        1 FH7     -0.104400
      5 CD          0.7550   -0.3330    1.4270 c3        1 FH7      0.060000
      6 NE          1.2760   -1.6370    1.7260 n         1 FH7     -0.301300
      7 OZ          2.3950   -2.0910    1.0790 oh        1 FH7     -0.429100
      8 CZ          0.6690   -2.4370    2.7600 c         1 FH7      0.614900
      9 OH          1.0270   -3.5820    2.9270 o         1 FH7     -0.592100
     10 C          -0.2670    2.0080   -2.5820 c         1 FH7      0.887600
     11 O          -0.3750    3.2440   -2.3820 o         1 FH7     -0.841800
     12 OX0         0.4030    1.5850   -3.5620 o         1 FH7     -0.841800
     13 HN1        -2.7060    1.5260   -2.4520 hn        1 FH7      0.330800
     14 HN2        -2.8460    0.7590   -1.1910 hn        1 FH7      0.330800
     15 HA         -0.9410    0.1400   -2.0750 h1        1 FH7      0.042700
     16 HB1C        0.3300    1.7010   -0.2700 hc        1 FH7      0.048700
     17 HB2C       -1.0790    1.2760    0.3540 hc        1 FH7      0.048700
     18 HG1C        0.8630   -0.5630   -0.6360 hc        1 FH7      0.049200
     19 HG2C       -0.5540   -0.9910   -0.0360 hc        1 FH7      0.049200
     20 HD1C        0.0450   -0.1010    2.0860 h1        1 FH7      0.064200
     21 HD2C        1.4870    0.3360    1.4780 h1        1 FH7      0.064200
     22 HZ          0.0250   -2.0370    3.3660 h5        1 FH7      0.041200
     23 H11         3.1070   -1.9540    1.5880 ho        1 FH7      0.415000
@<TRIPOS>BOND
     1    1    2 1   
     2    1   13 1   
     3    1   14 1   
     4    2    3 1   
     5    2   10 1   
     6    2   15 1   
     7    3    4 1   
     8    3   16 1   
     9    3   17 1   
    10    4    5 1   
    11    4   18 1   
    12    4   19 1   
    13    5    6 1   
    14    5   20 1   
    15    5   21 1   
    16    6    7 1   
    17    6    8 1   
    18    7   23 1   
    19    8    9 2   
    20    8   22 1   
    21   10   11 1   
    22   10   12 1   
@<TRIPOS>SUBSTRUCTURE
     1 FH7         1 TEMP              0 ****  ****    0 ROOT
