@<TRIPOS>MOLECULE
FH7
   23    22     1     0     0
SMALL
bcc


@<TRIPOS>ATOM
      1 N          -1.9870    1.5120    1.1660 n3        1 FH7     -0.891800
      2 CA         -1.9200    0.1950    0.5480 c3        1 FH7      0.018500
      3 CB         -0.8240    0.0780   -0.5110 c3        1 FH7     -0.064400
      4 CG          0.5640    0.1810    0.0840 c3        1 FH7     -0.103400
      5 CD          1.6050   -0.1240   -0.9870 c3        1 FH7      0.059000
      6 NE          3.0050   -0.1950   -0.5530 n         1 FH7     -0.299300
      7 OZ          3.5530    1.0260   -0.4900 oh        1 FH7     -0.430100
      8 CZ          3.2900   -1.0440    0.5440 c         1 FH7      0.612900
      9 OH          4.2900   -0.8840    1.2600 o         1 FH7     -0.593100
     10 C          -3.2650   -0.2930   -0.0920 c         1 FH7      0.888600
     11 O          -4.2820    0.4460    0.0300 o         1 FH7     -0.841800
     12 OX0        -3.2560   -1.4110   -0.6770 o         1 FH7     -0.841800
     13 HN1        -2.0560    2.2020    0.4390 hn        1 FH7      0.331800
     14 HN2        -2.8540    1.5560    1.6770 hn        1 FH7      0.331800
     15 HA         -1.6870   -0.5350    1.3790 h1        1 FH7      0.040700
     16 HB1C       -0.9580   -0.9200   -1.0110 hc        1 FH7      0.049200
     17 HB2C       -0.9580    0.8680   -1.2950 hc        1 FH7      0.049200
     18 HG1C        0.7320    1.2080    0.4990 hc        1 FH7      0.048700
     19 HG2C        0.6620   -0.5430    0.9350 hc        1 FH7      0.048700
     20 HD1C        1.3890   -1.1290   -1.4490 h1        1 FH7      0.064700
     21 HD2C        1.5470    0.6600   -1.7920 h1        1 FH7      0.064700
     22 HZ          2.6200   -1.9310    0.6140 h5        1 FH7      0.043200
     23 H11         4.5130    0.8860   -0.5970 ho        1 FH7      0.415000
@<TRIPOS>BOND
     1    1    2 1   
     2    1   13 1   
     3    1   14 1   
     4    2    3 1   
     5    2   10 1   
     6    2   15 1   
     7    3    4 1   
     8    3   16 1   
     9    3   17 1   
    10    4    5 1   
    11    4   18 1   
    12    4   19 1   
    13    5    6 1   
    14    5   20 1   
    15    5   21 1   
    16    6    7 1   
    17    6    8 1   
    18    7   23 1   
    19    8    9 2   
    20    8   22 1   
    21   10   11 1   
    22   10   12 1   
@<TRIPOS>SUBSTRUCTURE
     1 FH7         1 TEMP              0 ****  ****    0 ROOT
