@<TRIPOS>MOLECULE
FH9
   72    72     1     0     0
SMALL
bcc


@<TRIPOS>ATOM
      1 C23         1.8030    0.9000    1.2990 c3        1 FH9     -0.077400
      2 C24         3.1960    0.9000    1.8920 c3        1 FH9     -0.079900
      3 C25         3.1580    0.7150    3.3930 c3        1 FH9     -0.087400
      4 C28         2.4000   -0.5400    3.7700 c3        1 FH9     -0.079900
      5 C29         1.0040   -0.5440    3.1740 c3        1 FH9     -0.077400
      6 C22         1.0500   -0.3830    1.6610 c3        1 FH9     -0.086700
      7 C21        -0.3400   -0.3140    1.0420 c3        1 FH9     -0.125400
      8 C14        -1.1080   -1.6390    0.9060 c3        1 FH9      0.062500
      9 C15        -1.4670   -2.2440    2.2720 c         1 FH9      0.527100
     10 O16        -1.1470   -3.3690    2.6340 o         1 FH9     -0.390100
     11 N17        -2.2700   -1.3880    3.1890 ny        1 FH9     -0.661800
     12 C18        -3.0710   -2.1830    4.1960 c3        1 FH9      0.111800
     13 C19        -3.8240   -1.2710    5.1530 c3        1 FH9     -0.114400
     14 C20        -4.6240   -2.1180    6.1460 c3        1 FH9     -0.055700
     15 C26        -3.7200   -2.7740    7.1680 c3        1 FH9     -0.105100
     16 C27        -5.6440   -1.2330    6.8370 c3        1 FH9     -0.105100
     17 N13        -0.3660   -2.6320    0.0560 ny        1 FH9     -0.691800
     18 C11        -1.2720   -3.4010   -0.9560 c         1 FH9      0.658100
     19 O12        -2.4720   -3.3340   -0.7080 o         1 FH9     -0.439100
     20 N10        -0.6550   -4.0260   -2.0320 ns        1 FH9     -0.452900
     21 C6         -0.9820   -5.4460   -2.2070 c3        1 FH9      0.034700
     22 C7         -0.4690   -6.3240   -1.0650 c         1 FH9      0.590100
     23 O8         -0.3990   -7.5460   -1.0460 o         1 FH9     -0.430000
     24 O9         -0.0830   -5.6450    0.0610 oh        1 FH9     -0.690100
     25 C5         -0.4520   -6.0130   -3.5370 c3        1 FH9     -0.087400
     26 C4         -1.4420   -5.8380   -4.6730 c3        1 FH9     -0.078400
     27 C3         -0.9930   -6.6470   -5.8790 c3        1 FH9     -0.111400
     28 C2         -2.0400   -6.5550   -6.9850 c3        1 FH9      0.101800
     29 N1         -1.7020   -7.3800   -8.1810 nz        1 FH9     -0.838600
     30 H231        1.2310    1.7860    1.6820 hc        1 FH9      0.037450
     31 H232        1.8710    0.9930    0.1830 hc        1 FH9      0.037450
     32 H241        3.6970    1.8750    1.6470 hc        1 FH9      0.066450
     33 H242        3.8080    0.0830    1.4250 hc        1 FH9      0.066450
     34 H22         1.6250   -1.2500    1.2310 hc        1 FH9      0.039700
     35 H251        2.6780    1.6080    3.8740 hc        1 FH9      0.074200
     36 H252        4.2070    0.6480    3.7900 hc        1 FH9      0.074200
     37 H281        2.3230   -0.6120    4.8880 hc        1 FH9      0.066450
     38 H282        2.9620   -1.4430    3.4130 hc        1 FH9      0.066450
     39 H291        0.5060   -1.5140    3.4400 hc        1 FH9      0.037450
     40 H292        0.4120    0.2970    3.6240 hc        1 FH9      0.037450
     41 H211       -0.2550    0.1360    0.0100 hc        1 FH9      0.099200
     42 H212       -0.9760    0.4010    1.6310 hc        1 FH9      0.099200
     43 H14        -2.0940   -1.4160    0.3730 hx        1 FH9      0.158700
     44 H13         0.0640   -3.3630    0.6520 hn        1 FH9      0.484300
     45 H17        -2.9100   -0.7920    2.6490 hn        1 FH9      0.477800
     46 H181       -2.3500   -2.8440    4.7610 hx        1 FH9      0.122200
     47 H182       -3.7880   -2.8330    3.6170 hx        1 FH9      0.122200
     48 H191       -3.1140   -0.6160    5.7250 hc        1 FH9      0.073700
     49 H192       -4.5340   -0.6100    4.5870 hc        1 FH9      0.073700
     50 H20        -5.1740   -2.9180    5.5760 hc        1 FH9      0.058700
     51 H261       -3.1410   -2.0080    7.7390 hc        1 FH9      0.056700
     52 H262       -4.3380   -3.3550    7.8980 hc        1 FH9      0.056700
     53 H263       -3.0050   -3.4800    6.6820 hc        1 FH9      0.056700
     54 H271       -6.3490   -0.7870    6.0960 hc        1 FH9      0.056700
     55 H272       -5.1400   -0.4090    7.3960 hc        1 FH9      0.056700
     56 H273       -6.2360   -1.8410    7.5650 hc        1 FH9      0.056700
     57 H10         0.3080   -3.8080   -2.2110 hn        1 FH9      0.329500
     58 H6         -2.1160   -5.5350   -2.1870 h1        1 FH9      0.138700
     59 H51C       -0.2660   -7.1140   -3.3770 hc        1 FH9      0.095200
     60 H52C        0.5320   -5.5500   -3.8120 hc        1 FH9      0.095200
     61 H41C       -2.4600   -6.1850   -4.3490 hc        1 FH9      0.068200
     62 H42C       -1.5260   -4.7540   -4.9490 hc        1 FH9      0.068200
     63 H31C       -0.8460   -7.7190   -5.5730 hc        1 FH9      0.079700
     64 H32C       -0.0050   -6.2580   -6.2450 hc        1 FH9      0.079700
     65 H21C       -3.0410   -6.9110   -6.5990 hx        1 FH9      0.117700
     66 H22C       -2.1470   -5.4840   -7.3280 hx        1 FH9      0.117700
     67 H11N       -1.6230   -8.3710   -7.9230 hn        1 FH9      0.472133
     68 H12N       -0.8090   -7.0780   -8.5860 hn        1 FH9      0.472133
     69 H172       -1.6160   -0.7710    3.7060 hn        1 FH9      0.477800
     70 H132        0.3870   -2.1310   -0.4330 hn        1 FH9      0.484300
     71 H102        0.1990   -6.2830    0.7460 ho        1 FH9      0.498000
     72 H131       -2.4380   -7.2820   -8.8920 hn        1 FH9      0.472133
@<TRIPOS>BOND
     1    1    2 1   
     2    1    6 1   
     3    1   30 1   
     4    1   31 1   
     5    2    3 1   
     6    2   32 1   
     7    2   33 1   
     8    3    4 1   
     9    3   35 1   
    10    3   36 1   
    11    4    5 1   
    12    4   37 1   
    13    4   38 1   
    14    5    6 1   
    15    5   39 1   
    16    5   40 1   
    17    6    7 1   
    18    6   34 1   
    19    7    8 1   
    20    7   41 1   
    21    7   42 1   
    22    8    9 1   
    23    8   17 1   
    24    8   43 1   
    25    9   10 2   
    26    9   11 1   
    27   11   12 1   
    28   11   45 1   
    29   11   69 1   
    30   12   13 1   
    31   12   46 1   
    32   12   47 1   
    33   13   14 1   
    34   13   48 1   
    35   13   49 1   
    36   14   15 1   
    37   14   16 1   
    38   14   50 1   
    39   15   51 1   
    40   15   52 1   
    41   15   53 1   
    42   16   54 1   
    43   16   55 1   
    44   16   56 1   
    45   17   18 1   
    46   17   44 1   
    47   17   70 1   
    48   18   19 2   
    49   18   20 1   
    50   20   21 1   
    51   20   57 1   
    52   21   22 1   
    53   21   25 1   
    54   21   58 1   
    55   22   23 2   
    56   22   24 1   
    57   24   71 1   
    58   25   26 1   
    59   25   59 1   
    60   25   60 1   
    61   26   27 1   
    62   26   61 1   
    63   26   62 1   
    64   27   28 1   
    65   27   63 1   
    66   27   64 1   
    67   28   29 1   
    68   28   65 1   
    69   28   66 1   
    70   29   67 1   
    71   29   68 1   
    72   29   72 1   
@<TRIPOS>SUBSTRUCTURE
     1 FH9         1 TEMP              0 ****  ****    0 ROOT
