@<TRIPOS>MOLECULE
FH9
   72    72     1     0     0
SMALL
bcc


@<TRIPOS>ATOM
      1 C23         1.8020    0.8920    1.3430 c3        1 FH9     -0.077400
      2 C24         3.1910    0.8880    1.9480 c3        1 FH9     -0.079900
      3 C25         3.1390    0.6960    3.4480 c3        1 FH9     -0.087400
      4 C28         2.3760   -0.5600    3.8120 c3        1 FH9     -0.079900
      5 C29         0.9850   -0.5590    3.2040 c3        1 FH9     -0.077400
      6 C22         1.0440   -0.3910    1.6920 c3        1 FH9     -0.086700
      7 C21        -0.3390   -0.3170    1.0600 c3        1 FH9     -0.125400
      8 C14        -1.1080   -1.6400    0.9110 c3        1 FH9      0.062500
      9 C15        -1.4800   -2.2520    2.2710 c         1 FH9      0.527100
     10 O16        -1.1650   -3.3780    2.6300 o         1 FH9     -0.390100
     11 N17        -2.2900   -1.3980    3.1850 n4        1 FH9     -0.661800
     12 C18        -3.1020   -2.1970    4.1810 c3        1 FH9      0.111800
     13 C19        -3.8620   -1.2890    5.1360 c3        1 FH9     -0.114400
     14 C20        -4.6710   -2.1390    6.1170 c3        1 FH9     -0.055700
     15 C26        -3.7780   -2.8010    7.1440 c3        1 FH9     -0.105100
     16 C27        -5.6970   -1.2560    6.8030 c3        1 FH9     -0.105100
     17 N13        -0.3590   -2.6310    0.0640 n4        1 FH9     -0.691800
     18 C11        -1.2580   -3.3920   -0.9610 c         1 FH9      0.658100
     19 O12        -2.4590   -3.3250   -0.7230 o         1 FH9     -0.439100
     20 N10        -0.6310   -4.0130   -2.0350 n         1 FH9     -0.452900
     21 C6         -0.9590   -5.4320   -2.2190 c3        1 FH9      0.034700
     22 C7         -0.4580   -6.3170   -1.0780 c         1 FH9      0.590100
     23 O8         -0.3900   -7.5380   -1.0640 o         1 FH9     -0.430000
     24 O9         -0.0810   -5.6440    0.0560 oh        1 FH9     -0.690100
     25 C5         -0.4180   -5.9920   -3.5480 c3        1 FH9     -0.087400
     26 C4         -1.3970   -5.8100   -4.6920 c3        1 FH9     -0.078400
     27 C3         -0.9380   -6.6140   -5.8980 c3        1 FH9     -0.111400
     28 C2         -1.9750   -6.5150   -7.0120 c3        1 FH9      0.101800
     29 N1         -1.6270   -7.3350   -8.2100 n4        1 FH9     -0.838600
     30 H231        1.2290    1.7770    1.7250 hc        1 FH9      0.037450
     31 H232        1.8810    0.9910    0.2280 hc        1 FH9      0.037450
     32 H241        3.8050    0.0730    1.4820 hc        1 FH9      0.066450
     33 H242        3.6950    1.8630    1.7120 hc        1 FH9      0.066450
     34 H22         1.6230   -1.2560    1.2630 hc        1 FH9      0.039700
     35 H251        4.1830    0.6260    3.8540 hc        1 FH9      0.074200
     36 H252        2.6550    1.5870    3.9290 hc        1 FH9      0.074200
     37 H281        2.2880   -0.6370    4.9290 hc        1 FH9      0.066450
     38 H282        2.9390   -1.4620    3.4550 hc        1 FH9      0.066450
     39 H291        0.3900    0.2800    3.6530 hc        1 FH9      0.037450
     40 H292        0.4830   -1.5300    3.4610 hc        1 FH9      0.037450
     41 H211       -0.9800    0.3960    1.6470 hc        1 FH9      0.099200
     42 H212       -0.2440    0.1380    0.0320 hc        1 FH9      0.099200
     43 H14        -2.0880   -1.4130    0.3700 hx        1 FH9      0.158700
     44 H13         0.3990   -2.1280   -0.4160 hn        1 FH9      0.484300
     45 H17        -1.6400   -0.7850    3.7100 hn        1 FH9      0.477800
     46 H181       -3.8130   -2.8440    3.5930 hx        1 FH9      0.122200
     47 H182       -2.3860   -2.8610    4.7500 hx        1 FH9      0.122200
     48 H191       -4.5660   -0.6250    4.5660 hc        1 FH9      0.073700
     49 H192       -3.1560   -0.6370    5.7160 hc        1 FH9      0.073700
     50 H20        -5.2180   -2.9360    5.5380 hc        1 FH9      0.058700
     51 H261       -4.4030   -3.3840    7.8660 hc        1 FH9      0.056700
     52 H262       -3.0590   -3.5060    6.6620 hc        1 FH9      0.056700
     53 H263       -3.2030   -2.0390    7.7240 hc        1 FH9      0.056700
     54 H271       -5.1970   -0.4350    7.3710 hc        1 FH9      0.056700
     55 H272       -6.3950   -0.8050    6.0570 hc        1 FH9      0.056700
     56 H273       -6.2960   -1.8660    7.5230 hc        1 FH9      0.056700
     57 H10         0.3340   -3.7950   -2.2030 hn        1 FH9      0.329500
     58 H6         -2.0930   -5.5190   -2.2110 h1        1 FH9      0.138700
     59 H51C       -0.2340   -7.0950   -3.3920 hc        1 FH9      0.095200
     60 H52C        0.5700   -5.5290   -3.8110 hc        1 FH9      0.095200
     61 H41C       -1.4760   -4.7250   -4.9640 hc        1 FH9      0.068200
     62 H42C       -2.4180   -6.1570   -4.3790 hc        1 FH9      0.068200
     63 H31C       -0.7950   -7.6880   -5.5960 hc        1 FH9      0.079700
     64 H32C        0.0540   -6.2250   -6.2530 hc        1 FH9      0.079700
     65 H21C       -2.0770   -5.4420   -7.3510 hx        1 FH9      0.117700
     66 H22C       -2.9800   -6.8710   -6.6380 hx        1 FH9      0.117700
     67 H11N       -2.3570   -7.2320   -8.9270 hn        1 FH9      0.472133
     68 H12N       -1.5520   -8.3270   -7.9560 hn        1 FH9      0.472133
     69 H172       -2.9250   -0.7990    2.6420 hn        1 FH9      0.477800
     70 H132        0.0640   -3.3650    0.6600 hn        1 FH9      0.484300
     71 H102        0.1940   -6.2860    0.7400 ho        1 FH9      0.498000
     72 H131       -0.7300   -7.0320   -8.6050 hn        1 FH9      0.472133
@<TRIPOS>BOND
     1    1    2 1   
     2    1    6 1   
     3    1   30 1   
     4    1   31 1   
     5    2    3 1   
     6    2   32 1   
     7    2   33 1   
     8    3    4 1   
     9    3   35 1   
    10    3   36 1   
    11    4    5 1   
    12    4   37 1   
    13    4   38 1   
    14    5    6 1   
    15    5   39 1   
    16    5   40 1   
    17    6    7 1   
    18    6   34 1   
    19    7    8 1   
    20    7   41 1   
    21    7   42 1   
    22    8    9 1   
    23    8   17 1   
    24    8   43 1   
    25    9   10 2   
    26    9   11 1   
    27   11   12 1   
    28   11   45 1   
    29   11   69 1   
    30   12   13 1   
    31   12   46 1   
    32   12   47 1   
    33   13   14 1   
    34   13   48 1   
    35   13   49 1   
    36   14   15 1   
    37   14   16 1   
    38   14   50 1   
    39   15   51 1   
    40   15   52 1   
    41   15   53 1   
    42   16   54 1   
    43   16   55 1   
    44   16   56 1   
    45   17   18 1   
    46   17   44 1   
    47   17   70 1   
    48   18   19 2   
    49   18   20 1   
    50   20   21 1   
    51   20   57 1   
    52   21   22 1   
    53   21   25 1   
    54   21   58 1   
    55   22   23 2   
    56   22   24 1   
    57   24   71 1   
    58   25   26 1   
    59   25   59 1   
    60   25   60 1   
    61   26   27 1   
    62   26   61 1   
    63   26   62 1   
    64   27   28 1   
    65   27   63 1   
    66   27   64 1   
    67   28   29 1   
    68   28   65 1   
    69   28   66 1   
    70   29   67 1   
    71   29   68 1   
    72   29   72 1   
@<TRIPOS>SUBSTRUCTURE
     1 FH9         1 TEMP              0 ****  ****    0 ROOT
