@<TRIPOS>MOLECULE
FHB
   15    15     1     0     0
SMALL
bcc


@<TRIPOS>ATOM
      1 C1         -0.0090    0.0030   -0.0060 ca        1 FHB     -0.136600
      2 C2          1.3830    0.0870    0.0380 ca        1 FHB     -0.098000
      3 C3          2.0400    0.1480    1.2770 ca        1 FHB      0.000900
      4 F3          3.3970    0.2300    1.3490 f         1 FHB     -0.175900
      5 C4          1.2870    0.1220    2.4730 ca        1 FHB      0.059100
      6 O4          1.8810    0.1790    3.7200 oh        1 FHB     -0.516100
      7 C5         -0.1090    0.0380    2.4230 ca        1 FHB     -0.167000
      8 C6         -0.7430   -0.0210    1.1850 ca        1 FHB     -0.088000
      9 C7         -0.7260   -0.0630   -1.3490 c         1 FHB      0.911200
     10 O1         -1.9870   -0.1380   -1.3380 o         1 FHB     -0.827800
     11 O2         -0.0200   -0.0380   -2.3960 o         1 FHB     -0.827800
     12 H2          1.9500    0.1050   -0.9060 ha        1 FHB      0.168000
     13 HO4         2.8370    0.2340    3.5780 ho        1 FHB      0.412000
     14 H5         -0.6790    0.0190    3.3600 ha        1 FHB      0.128000
     15 H6         -1.8420   -0.0880    1.1140 ha        1 FHB      0.159000
@<TRIPOS>BOND
     1    1    2 ar  
     2    1    8 ar  
     3    1    9 1   
     4    2    3 ar  
     5    2   12 1   
     6    3    4 1   
     7    3    5 ar  
     8    5    6 1   
     9    5    7 ar  
    10    6   13 1   
    11    7    8 ar  
    12    7   14 1   
    13    8   15 1   
    14    9   10 1   
    15    9   11 1   
@<TRIPOS>SUBSTRUCTURE
     1 FHB         1 TEMP              0 ****  ****    0 ROOT
