@<TRIPOS>MOLECULE
FHB
   15    12     1     0     0
SMALL
bcc


@<TRIPOS>ATOM
      1 C1         -0.5780    0.0180   -0.9680 c1        1 FHB     -0.116000
      2 C2          0.8070    0.0710   -0.9850 c1        1 FHB     -0.098000
      3 C3          1.5140    0.1050    0.2060 c1        1 FHB     -0.034000
      4 F3          2.8520    0.1760    0.1880 f         1 FHB     -0.141000
      5 C4          0.8370    0.0860    1.4150 c2        1 FHB      0.014000
      6 O4          1.5560    0.1100    2.6240 oh        1 FHB     -0.270000
      7 C5         -0.5480    0.0330    1.4330 c1        1 FHB     -0.167000
      8 C6         -1.2550   -0.0010    0.2420 c1        1 FHB     -0.088000
      9 C7         -1.3510    0.0090   -2.2680 c2        1 FHB      0.360000
     10 O1         -1.6540   -1.0850   -2.8120 o         1 FHB     -0.562500
     11 O2         -1.7010    1.0950   -2.8000 o         1 FHB     -0.562500
     12 H2          1.2830    0.0850   -1.8370 ha        1 FHB      0.168000
     13 HO4         1.4930   -0.6830    3.0220 ho        1 FHB      0.211000
     14 H5         -1.0250    0.0190    2.2840 ha        1 FHB      0.128000
     15 H6         -2.2310   -0.0380    0.2540 ha        1 FHB      0.159000
@<TRIPOS>BOND
     1    1    8 1   
     2    1    9 1   
     3    2    3 1   
     4    2   12 1   
     5    3    5 1   
     6    5    6 1   
     7    5    7 1   
     8    6   13 1   
     9    7   14 1   
    10    8   15 1   
    11    9   10 1   
    12    9   11 1   
@<TRIPOS>SUBSTRUCTURE
     1 FHB         1 TEMP              0 ****  ****    0 ROOT
