@<TRIPOS>MOLECULE
FHB
   15    15     1     0     0
SMALL
bcc


@<TRIPOS>ATOM
      1 C1         -0.1710    0.0010    0.9240 ca        1 FHB     -0.136600
      2 C2          0.9030    0.0870    0.0380 ca        1 FHB     -0.098000
      3 C3          0.6660    0.1500   -1.3440 ca        1 FHB      0.000900
      4 F3          1.6970    0.2340   -2.2300 f         1 FHB     -0.175900
      5 C4         -0.6600    0.1250   -1.8300 ca        1 FHB      0.059100
      6 O4         -0.9520    0.1840   -3.1800 oh        1 FHB     -0.516100
      7 C5         -1.7350    0.0380   -0.9370 ca        1 FHB     -0.167000
      8 C6         -1.4800   -0.0230    0.4300 ca        1 FHB     -0.088000
      9 C7          0.0830   -0.0680    2.4250 c         1 FHB      0.911200
     10 O1         -0.9220   -0.1450    3.1870 o         1 FHB     -0.827800
     11 O2          1.2810   -0.0430    2.8220 o         1 FHB     -0.827800
     12 H2          1.9290    0.1040    0.4390 ha        1 FHB      0.168000
     13 HO4        -0.1090    0.2400   -3.6510 ho        1 FHB      0.412000
     14 H5         -2.7590    0.0210   -1.3300 ha        1 FHB      0.128000
     15 H6         -2.3060   -0.0920    1.1580 ha        1 FHB      0.159000
@<TRIPOS>BOND
     1    1    2 ar  
     2    1    8 ar  
     3    1    9 1   
     4    2    3 ar  
     5    2   12 1   
     6    3    4 1   
     7    3    5 ar  
     8    5    6 1   
     9    5    7 ar  
    10    6   13 1   
    11    7    8 ar  
    12    7   14 1   
    13    8   15 1   
    14    9   10 1   
    15    9   11 1   
@<TRIPOS>SUBSTRUCTURE
     1 FHB         1 TEMP              0 ****  ****    0 ROOT
