@<TRIPOS>MOLECULE
FHC
   19    19     1     0     0
SMALL
bcc


@<TRIPOS>ATOM
      1 C1          0.3000   -0.7920    0.0000 ca        1 FHC     -0.011800
      2 C7         -1.0760   -1.2200   -0.1340 ce        1 FHC     -0.256200
      3 C8         -2.1860   -0.4400   -0.1410 cf        1 FHC      0.111300
      4 C9         -2.2700    1.0990   -0.0540 c         1 FHC      0.910800
      5 O3         -2.4110    1.7220   -1.1350 o         1 FHC     -0.802300
      6 O2         -2.2050    1.6130    1.0950 o         1 FHC     -0.802300
      7 F1         -3.3940   -1.0470   -0.2690 f         1 FHC     -0.199500
      8 C6          1.3130   -1.6190   -0.5180 ca        1 FHC     -0.105500
      9 C5          2.6560   -1.2800   -0.4000 ca        1 FHC     -0.187500
     10 C4          3.0000   -0.0890    0.2530 ca        1 FHC      0.081100
     11 O1          4.3490    0.2030    0.3520 oh        1 FHC     -0.521100
     12 C3          2.0090    0.7480    0.7810 ca        1 FHC     -0.187500
     13 C2          0.6690    0.3940    0.6550 ca        1 FHC     -0.105500
     14 HC7        -1.2010   -2.3110   -0.2570 ha        1 FHC      0.103000
     15 HC6         1.0380   -2.5510   -1.0340 ha        1 FHC      0.158500
     16 HC5         3.4440   -1.9250   -0.8090 ha        1 FHC      0.124000
     17 HO1         4.4230    1.0720    0.7690 ho        1 FHC      0.406000
     18 HC3         2.2860    1.6820    1.2880 ha        1 FHC      0.124000
     19 HC2        -0.1170    1.0540    1.0710 ha        1 FHC      0.158500
@<TRIPOS>BOND
     1    1    2 1   
     2    1    8 ar  
     3    1   13 ar  
     4    2    3 2   
     5    2   14 1   
     6    3    4 1   
     7    3    7 1   
     8    4    5 1   
     9    4    6 1   
    10    8    9 ar  
    11    8   15 1   
    12    9   10 ar  
    13    9   16 1   
    14   10   11 1   
    15   10   12 ar  
    16   11   17 1   
    17   12   13 ar  
    18   12   18 1   
    19   13   19 1   
@<TRIPOS>SUBSTRUCTURE
     1 FHC         1 TEMP              0 ****  ****    0 ROOT
