@<TRIPOS>MOLECULE
FHC
   19    19     1     0     0
SMALL
bcc


@<TRIPOS>ATOM
      1 C1          0.0970    0.1150    0.0060 ca        1 FHC     -0.011800
      2 C7         -0.5920    0.3060   -1.2510 ce        1 FHC     -0.256200
      3 C8         -1.7360    1.0020   -1.4680 cf        1 FHC      0.111300
      4 C9         -2.5740    1.8020   -0.4460 c         1 FHC      0.910800
      5 O3         -2.3930    3.0440   -0.4140 o         1 FHC     -0.802300
      6 O2         -3.3830    1.1510    0.2670 o         1 FHC     -0.802300
      7 F1         -2.2260    1.0500   -2.7330 f         1 FHC     -0.199500
      8 C6          1.4760   -0.1630   -0.0200 ca        1 FHC     -0.105500
      9 C5          2.1940   -0.3830    1.1510 ca        1 FHC     -0.187500
     10 C4          1.5210   -0.3280    2.3790 ca        1 FHC      0.081100
     11 O1          2.2750   -0.5600    3.5160 oh        1 FHC     -0.521100
     12 C3          0.1470   -0.0570    2.4290 ca        1 FHC     -0.187500
     13 C2         -0.5560    0.1600    1.2490 ca        1 FHC     -0.105500
     14 HC7        -0.0950   -0.1680   -2.1170 ha        1 FHC      0.103000
     15 HC6         2.0010   -0.2010   -0.9860 ha        1 FHC      0.158500
     16 HC5         3.2700   -0.5950    1.1280 ha        1 FHC      0.124000
     17 HO1         1.6910   -0.4310    4.2750 ho        1 FHC      0.406000
     18 HC3        -0.3720   -0.0120    3.3960 ha        1 FHC      0.124000
     19 HC2        -1.6420    0.3760    1.2860 ha        1 FHC      0.158500
@<TRIPOS>BOND
     1    1    2 1   
     2    1    8 ar  
     3    1   13 ar  
     4    2    3 2   
     5    2   14 1   
     6    3    4 1   
     7    3    7 1   
     8    4    5 1   
     9    4    6 1   
    10    8    9 ar  
    11    8   15 1   
    12    9   10 ar  
    13    9   16 1   
    14   10   11 1   
    15   10   12 ar  
    16   11   17 1   
    17   12   13 ar  
    18   12   18 1   
    19   13   19 1   
@<TRIPOS>SUBSTRUCTURE
     1 FHC         1 TEMP              0 ****  ****    0 ROOT
