@<TRIPOS>MOLECULE
FHC
   19    15     1     0     0
SMALL
bcc


@<TRIPOS>ATOM
      1 C1         -0.2960    0.5240   -0.3970 cg        1 FHC     -0.014300
      2 C7         -1.0800    0.5640   -1.6910 c1        1 FHC     -0.212500
      3 C8         -1.3450   -0.5780   -2.3550 c1        1 FHC      0.071100
      4 C9         -0.8590   -1.9020   -1.8060 c1        1 FHC      0.828000
      5 O3          0.2300   -2.3880   -2.2090 o         1 FHC     -0.769500
      6 O2         -1.5640   -2.5370   -0.9790 o         1 FHC     -0.769500
      7 F1         -2.0380   -0.5420   -3.5000 f         1 FHC     -0.139100
      8 C6          1.0880    0.5900   -0.4230 c1        1 FHC     -0.066000
      9 C5          1.8040    0.6140    0.7640 c1        1 FHC     -0.066000
     10 C4          1.1350    0.5710    1.9770 ch        1 FHC     -0.014300
     11 O1          1.8580    0.6540    3.1820 o         1 FHC     -0.269000
     12 C3         -0.2490    0.5040    2.0040 cf        1 FHC     -0.136700
     13 C2         -0.9650    0.4810    0.8170 ce        1 FHC     -0.136700
     14 HC7        -1.3940    1.4180   -2.0450 ha        1 FHC      0.045500
     15 HC6         1.5590    0.6200   -1.2780 ha        1 FHC      0.111000
     16 HC5         2.7780    0.6610    0.7450 ha        1 FHC      0.111000
     17 HO1         1.9990   -0.1640    3.5000 ho        1 FHC      0.199000
     18 HC3        -0.7200    0.4740    2.8580 ha        1 FHC      0.114000
     19 HC2        -1.9400    0.4340    0.8350 ha        1 FHC      0.114000
@<TRIPOS>BOND
     1    1    8 3   
     2    1   13 1   
     3    2    3 3   
     4    2   14 1   
     5    3    7 1   
     6    4    5 2   
     7    4    6 2   
     8    8   15 1   
     9    9   10 3   
    10    9   16 1   
    11   10   12 1   
    12   11   17 1   
    13   12   13 2   
    14   12   18 1   
    15   13   19 1   
@<TRIPOS>SUBSTRUCTURE
     1 FHC         1 TEMP              0 ****  ****    0 ROOT
