@<TRIPOS>MOLECULE
FHF
   58    53     1     0     0
SMALL
bcc


@<TRIPOS>ATOM
      1 C         230.5470-1485.1300  962.3340 c1        1 FHF      0.431000
      2 N         784.4230  416.1910 -606.5280 n         1 FHF     -0.382000
      3 O         230.1730-1485.7070  961.4030 o         1 FHF      0.106000
      4 CA        231.0320-1484.4730  963.5010 c3        1 FHF     -0.231000
      5 CB        231.7020-1485.4630  964.5040 c3        1 FHF     -0.161000
      6 OAG       245.2780   76.4420 -294.5550 oh        1 FHF     -0.241000
      7 CAI       246.0480   77.5350 -292.6380 c2        1 FHF      0.197000
      8 CAJ       789.3430  418.4290 -609.6680 c2        1 FHF     -0.080000
      9 CAK       788.1880  418.4520 -608.9560 c2        1 FHF     -0.253000
     10 CAL       789.1630  417.4350 -608.6530 c1        1 FHF      0.022000
     11 CAM       786.8850  418.9840 -608.6340 c3        1 FHF     -0.048000
     12 CAN     -1342.9320  748.1580   68.1710 c2        1 FHF      0.297000
     13 CAP     -1345.3390  747.5340   68.3900 c3        1 FHF     -0.070000
     14 CAQ     -1347.0540  745.7640   67.9170 c1        1 FHF      0.309000
     15 CAT       785.5580  416.1270 -607.2730 c2        1 FHF      0.342000
     16 CAV       785.6640  419.2960 -606.4930 c2        1 FHF      0.087000
     17 CAW       786.3850  418.4740 -607.3060 c2        1 FHF     -0.199000
     18 CAY     -1346.2140  746.3920   68.7190 c2        1 FHF     -0.551000
     19 CG1       232.2980-1484.8520  965.6610 c1        1 FHF      0.032000
     20 CG2       230.7020-1486.5280  964.9320 c3        1 FHF     -0.214000
     21 HN        784.3020  416.8090 -605.7610 hn        1 FHF      0.281000
     22 HA        230.1620-1483.9590  964.0150 hc        1 FHF      0.205000
     23 HB        232.5760-1485.9680  963.9780 hc        1 FHF      0.183000
     24 HAA     -1343.6620  746.1980   67.9460 hc        1 FHF      0.214000
     25 HAAA    -1341.1900  747.0390   68.7870 hc        1 FHF      0.193667
     26 HAAB    -1340.9770  748.1680   67.3550 hc        1 FHF      0.193667
     27 HOAG      244.6340   75.8710 -294.0910 ho        1 FHF      0.231000
     28 HAI       246.9790   77.8250 -292.0990 h5        1 FHF      0.130000
     29 HAJ       789.9370  418.8730 -610.4500 ha        1 FHF      0.225000
     30 HAK       786.1490  418.6920 -609.4420 hc        1 FHF      0.154500
     31 HAL       785.4450  420.3500 -606.7590 h4        1 FHF      0.214000
     32 HAM       786.9100  420.1120 -608.6040 hc        1 FHF      0.154500
     33 HAN     -1341.1180  748.8590   68.9990 hc        1 FHF      0.193667
     34 HANA    -1343.3160  749.0990   67.7140 ha        1 FHF      0.186000
     35 HAP     -1345.5210  747.8800   67.3370 hc        1 FHF      0.112500
     36 HAPA    -1346.2000  746.0610   69.7810 ha        1 FHF      0.204000
     37 HAQ       247.1160   76.8390 -294.2360 hn        1 FHF      0.216000
     38 HAQA      237.6590   13.2730  -96.6350 ha        1 FHF      0.000000
     39 HAY       783.7010  415.5340 -606.7430 hn        1 FHF      0.281000
     40 HG1       232.3180-1483.7670  965.8100 ha        1 FHF      0.101000
     41 HG1A       37.3320 -162.3170   86.6670 ha        1 FHF      0.000000
     42 HG1B       37.7810 -162.7670   86.8980 ha        1 FHF      0.000000
     43 HG2       231.1940-1487.2400  965.6440 hc        1 FHF      0.114333
     44 HG2A      229.8230-1486.0700  965.4470 hc        1 FHF      0.114333
     45 HG2B      230.3470-1487.1010  964.0410 hc        1 FHF      0.114333
     46 OAE       785.8000  415.3720 -608.2180 o         1 FHF     -0.233000
     47 CAO     -1343.8780  747.1410   68.5550 c3        1 FHF     -0.273000
     48 NAR       786.7020  417.0990 -606.9310 n4        1 FHF     -0.057000
     49 HAO     -1343.6790  746.8010   69.6230 hc        1 FHF      0.214000
     50 HAOA    -1345.5770  748.3940   69.0740 hc        1 FHF      0.112500
     51 HNAR      787.5480  416.7660 -607.4560 hn        1 FHF      0.288000
     52 H2        231.7790-1483.6800  963.1920 hc        1 FHF      0.205000
     53 HBA1      237.7230   12.9870  -96.0250 ha        1 FHF      0.000000
     54 HAR2      786.9140  417.0600 -605.9270 hn        1 FHF      0.288000
     55 NBA       246.2850   76.6250 -293.6980 n         1 FHF     -0.221000
     56 FAH       785.1630  418.9010 -605.3130 f         1 FHF     -0.084000
     57 CAA     -1341.5100  748.0180   68.3440 c3        1 FHF     -0.337000
     58 OAD       244.9130   77.8530 -292.2660 o         1 FHF     -0.313000
@<TRIPOS>BOND
     1    1    3 1   
     2    1    4 1   
     3    2   15 1   
     4    2   21 1   
     5    2   39 1   
     6    4    5 1   
     7    4   22 1   
     8    4   52 1   
     9    5   19 1   
    10    5   20 1   
    11    5   23 1   
    12    6   27 1   
    13    6   55 1   
    14    7   28 1   
    15    7   55 1   
    16    7   58 1   
    17    8    9 1   
    18    8   10 1   
    19    8   29 1   
    20    9   10 1   
    21    9   11 1   
    22   11   17 1   
    23   11   30 1   
    24   11   32 1   
    25   12   34 1   
    26   12   47 1   
    27   12   57 1   
    28   13   18 1   
    29   13   35 1   
    30   13   47 1   
    31   13   50 1   
    32   14   18 1   
    33   15   46 1   
    34   15   48 1   
    35   16   17 1   
    36   16   31 1   
    37   16   56 1   
    38   17   48 1   
    39   18   36 1   
    40   19   40 1   
    41   20   43 1   
    42   20   44 1   
    43   20   45 1   
    44   24   47 1   
    45   25   57 1   
    46   26   57 1   
    47   33   57 1   
    48   37   55 1   
    49   38   53 1   
    50   41   42 1   
    51   47   49 1   
    52   48   51 1   
    53   48   54 1   
@<TRIPOS>SUBSTRUCTURE
     1 FHF         1 TEMP              0 ****  ****    0 ROOT
