@<TRIPOS>MOLECULE
FHF
   55    50     1     0     0
SMALL
bcc


@<TRIPOS>ATOM
      1 C          -1.5110    0.0100    1.1640 c1        1 FHF      0.206000
      2 N           0.4230    1.3910    0.8010 n         1 FHF     -0.340000
      3 O          -2.1750    0.7810    1.8350 o         1 FHF     -0.288000
      4 CA          0.0050    0.0870    1.1930 c2        1 FHF     -0.028000
      5 CB          0.5060   -0.2070    2.6070 c3        1 FHF     -0.102000
      6 CAA        -1.2200   -3.4830   -3.9100 c3        1 FHF     -0.209000
      7 OAD        -5.7190   -0.5210    2.3560 o         1 FHF     -0.306000
      8 OAE         1.8450    0.7030   -0.9150 o         1 FHF     -0.372000
      9 OAG        -4.1460   -3.2370    0.6640 oh        1 FHF     -0.245000
     10 FAH         3.3250    2.6290   -3.1080 f         1 FHF     -0.090000
     11 CAI        -5.2360   -1.6510    2.2230 c1        1 FHF      0.246000
     12 CAJ         5.5800    4.7770   -1.1830 c1        1 FHF     -0.135250
     13 CAK         5.2220    4.4390    0.1180 c1        1 FHF     -0.135250
     14 CAL         4.9640    4.1450   -2.2670 c1        1 FHF     -0.135250
     15 CAM         4.2410    3.4630    0.3440 c1        1 FHF     -0.135250
     16 CAN        -1.3050   -2.0720   -3.2700 c3        1 FHF     -0.163000
     17 CAO        -1.9490   -2.1730   -1.8970 c3        1 FHF     -0.152000
     18 CAP        -1.7360   -0.8670   -1.1410 c3        1 FHF     -0.163000
     19 CAQ        -3.7200   -0.8340    0.3560 c3        1 FHF     -0.057000
     20 NAR         2.4600    2.6920    0.1040 n         1 FHF     -0.310000
     21 CAT         1.5900    1.5510   -0.0620 c2        1 FHF      0.372000
     22 CAV         3.9920    3.1790   -2.0470 c1        1 FHF      0.108000
     23 CAW         3.6280    2.8350   -0.7310 c1        1 FHF      0.024000
     24 CAY        -2.2000   -1.0280    0.2870 c3        1 FHF     -0.163000
     25 NBA        -4.3160   -1.9340    1.1040 n2        1 FHF     -0.210000
     26 CG1        -0.3090   -1.3630    3.2100 c3        1 FHF     -0.213000
     27 CG2         1.9630   -0.5950    2.5510 c3        1 FHF     -0.213000
     28 HN         -0.0630    2.1190    1.0480 hn        1 FHF      0.222000
     29 HA          0.3870   -0.5930    0.5540 h4        1 FHF      0.148000
     30 HB          0.4010    0.5950    3.1680 hc        1 FHF      0.101000
     31 HAA        -2.1310   -3.8120   -4.1040 hc        1 FHF      0.071333
     32 HAAA       -0.7750   -4.0990   -3.2860 hc        1 FHF      0.071333
     33 HAAB       -0.7030   -3.4330   -4.7470 hc        1 FHF      0.071333
     34 HOAG       -4.9160   -3.5670    0.4310 ho        1 FHF      0.219000
     35 HAI        -5.4890   -2.3800    2.8580 ha        1 FHF      0.136000
     36 HAJ         6.2790    5.4710   -1.3430 ha        1 FHF      0.141000
     37 HAK         5.6620    4.8900    0.8900 ha        1 FHF      0.141000
     38 HAL         5.2180    4.3860   -3.1850 ha        1 FHF      0.141000
     39 HAM         3.9910    3.2280    1.2500 ha        1 FHF      0.141000
     40 HAN        -0.4040   -1.7000   -3.1810 hc        1 FHF      0.087500
     41 HANA       -1.8430   -1.4890   -3.8400 hc        1 FHF      0.087500
     42 HAO        -2.9080   -2.3380   -1.9980 hc        1 FHF      0.077500
     43 HAOA       -1.5430   -2.9060   -1.4000 hc        1 FHF      0.077500
     44 HAP        -2.2580   -0.1390   -1.5810 hc        1 FHF      0.103500
     45 HAPA       -0.7790   -0.6360   -1.1500 hc        1 FHF      0.103500
     46 HAQ        -4.0900   -0.8190   -0.5520 h1        1 FHF      0.118500
     47 HAQA       -3.9190    0.0050    0.8000 h1        1 FHF      0.118500
     48 HNAR        2.2690    3.3200    0.7260 hn        1 FHF      0.224000
     49 HAY        -1.9700   -1.9330    0.6070 hc        1 FHF      0.126000
     50 HG1         0.0590   -1.5980    4.0980 hc        1 FHF      0.080833
     51 HG1A       -0.2580   -2.1570    2.6090 hc        1 FHF      0.080833
     52 HG1B       -1.2380   -1.0890    3.3060 hc        1 FHF      0.080833
     53 HG2         2.3520   -0.5270    3.4470 hc        1 FHF      0.080833
     54 HG2A        2.0430   -1.5060    2.2320 hc        1 FHF      0.080833
     55 HG2B        2.4250   -0.0100    1.9590 hc        1 FHF      0.080833
@<TRIPOS>BOND
     1    1    3 1   
     2    1   24 1   
     3    2    4 1   
     4    2   21 1   
     5    2   28 1   
     6    4    5 1   
     7    4   29 1   
     8    5   26 1   
     9    5   27 1   
    10    5   30 1   
    11    6   16 1   
    12    6   31 1   
    13    6   32 1   
    14    6   33 1   
    15    7   11 1   
    16    8   21 1   
    17    9   25 1   
    18    9   34 1   
    19   10   22 1   
    20   11   35 1   
    21   12   14 1   
    22   12   36 1   
    23   13   15 1   
    24   13   37 1   
    25   14   38 1   
    26   15   39 1   
    27   16   17 1   
    28   16   40 1   
    29   16   41 1   
    30   17   18 1   
    31   17   42 1   
    32   17   43 1   
    33   18   24 1   
    34   18   44 1   
    35   18   45 1   
    36   19   24 1   
    37   19   25 1   
    38   19   46 1   
    39   19   47 1   
    40   20   21 1   
    41   20   23 1   
    42   20   48 1   
    43   22   23 1   
    44   24   49 1   
    45   26   50 1   
    46   26   51 1   
    47   26   52 1   
    48   27   53 1   
    49   27   54 1   
    50   27   55 1   
@<TRIPOS>SUBSTRUCTURE
     1 FHF         1 TEMP              0 ****  ****    0 ROOT
