@<TRIPOS>MOLECULE
FHF
   55    55     1     0     0
SMALL
bcc


@<TRIPOS>ATOM
      1 C          -2.0660    1.0620    0.7040 c         1 FHF      0.569100
      2 N           0.2190    0.4110    0.1070 n         1 FHF     -0.547900
      3 O          -2.5630    1.8600    1.5040 o         1 FHF     -0.520100
      4 CA         -0.7790    1.4500   -0.0350 c3        1 FHF     -0.004300
      5 CB         -1.0690    1.9100   -1.4810 c3        1 FHF     -0.090700
      6 CAA        -6.8350   -2.1710   -1.6840 c3        1 FHF     -0.093100
      7 OAD         1.0080   -1.5410    2.2300 o         1 FHF     -0.570100
      8 OAG        -0.8790   -2.4690    0.6130 oh        1 FHF     -0.445100
      9 CAI        -0.1750   -1.2750    2.4740 c         1 FHF      0.636900
     10 CAJ         6.7310    0.3180    0.0020 ca        1 FHF     -0.132000
     11 CAK         5.9020    1.2890   -0.5570 ca        1 FHF     -0.123000
     12 CAL         6.1750   -0.8240    0.5660 ca        1 FHF     -0.144000
     13 CAM         4.5190    1.1330   -0.5610 ca        1 FHF     -0.125000
     14 CAN        -6.2500   -1.0420   -0.8750 c3        1 FHF     -0.080400
     15 CAP        -4.1870   -0.0940    0.1600 c3        1 FHF     -0.071400
     16 CAQ        -2.5160   -1.2080    1.6590 c3        1 FHF      0.076000
     17 CAT         1.5810    0.7930   -0.0260 c         1 FHF      0.756100
     18 CAV         4.7820   -0.9980    0.5780 ca        1 FHF      0.075900
     19 CAW         3.9200   -0.0100    0.0060 ca        1 FHF      0.035600
     20 CAY        -2.7000   -0.2860    0.4430 c3        1 FHF     -0.187700
     21 CG1        -1.5940    0.8260   -2.3930 c3        1 FHF     -0.097100
     22 CG2        -2.0200    3.0890   -1.4580 c3        1 FHF     -0.097100
     23 HN         -0.0330   -0.4810   -0.2650 hn        1 FHF      0.309500
     24 HA         -0.3680    2.3690    0.5010 h1        1 FHF      0.114700
     25 HB         -0.0790    2.2670   -1.8950 hc        1 FHF      0.076700
     26 HAA        -6.6980   -3.1470   -1.1570 hc        1 FHF      0.034700
     27 HAAA       -7.9280   -2.0070   -1.8440 hc        1 FHF      0.034700
     28 HAAB       -6.3390   -2.2410   -2.6820 hc        1 FHF      0.034700
     29 HOAG       -0.5660   -3.3650    0.8460 ho        1 FHF      0.433000
     30 HAI        -0.5090   -0.6340    3.3200 h5        1 FHF      0.053200
     31 HAJ         7.8220    0.4520   -0.0000 ha        1 FHF      0.137000
     32 HAK         6.3400    2.1940   -1.0030 ha        1 FHF      0.138000
     33 HAL         6.8120   -1.6020    1.0120 ha        1 FHF      0.147000
     34 HAM         3.8900    1.9220   -1.0040 ha        1 FHF      0.172000
     35 HAN        -6.4190   -0.0690   -1.4090 hc        1 FHF      0.041700
     36 HANA       -6.7780   -0.9720    0.1120 hc        1 FHF      0.041700
     37 HAP        -4.3280    0.8640   -0.4100 hc        1 FHF      0.055700
     38 HAPA       -4.7390    0.0210    1.1300 hc        1 FHF      0.055700
     39 HAQ        -2.6750   -0.6190    2.6050 h1        1 FHF      0.075700
     40 HAQA       -3.3000   -2.0170    1.6020 h1        1 FHF      0.075700
     41 HAY        -2.2240   -0.7670   -0.4590 hc        1 FHF      0.087700
     42 HG1        -2.6370    0.5350   -2.1120 hc        1 FHF      0.040033
     43 HG1A       -1.6130    1.2000   -3.4460 hc        1 FHF      0.040033
     44 HG1B       -0.9470   -0.0830   -2.3620 hc        1 FHF      0.040033
     45 HG2        -1.5870    3.9290   -0.8630 hc        1 FHF      0.040033
     46 HG2A       -2.2070    3.4490   -2.4980 hc        1 FHF      0.040033
     47 HG2B       -2.9980    2.8000   -1.0000 hc        1 FHF      0.040033
     48 NBA        -1.2390   -1.9080    1.7750 n         1 FHF     -0.312300
     49 OAE         1.8920    2.0020   -0.1210 o         1 FHF     -0.625100
     50 CAO        -4.7670   -1.2380   -0.6420 c3        1 FHF     -0.081400
     51 NAR         2.5330   -0.2500   -0.0410 n         1 FHF     -0.443100
     52 FAH         4.2660   -2.1250    1.1310 f         1 FHF     -0.141900
     53 HAO        -4.5980   -2.2100   -0.1070 hc        1 FHF      0.042200
     54 HAOA       -4.2380   -1.3100   -1.6300 hc        1 FHF      0.042200
     55 HNAR        2.2530   -1.1130    0.3930 hn        1 FHF      0.339500
@<TRIPOS>BOND
     1    1    3 2   
     2    1    4 1   
     3    1   20 1   
     4    2    4 1   
     5    2   17 1   
     6    2   23 1   
     7    4    5 1   
     8    4   24 1   
     9    5   21 1   
    10    5   22 1   
    11    5   25 1   
    12    6   14 1   
    13    6   26 1   
    14    6   27 1   
    15    6   28 1   
    16    7    9 2   
    17    8   29 1   
    18    8   48 1   
    19    9   30 1   
    20    9   48 1   
    21   10   11 ar  
    22   10   12 ar  
    23   10   31 1   
    24   11   13 ar  
    25   11   32 1   
    26   12   18 ar  
    27   12   33 1   
    28   13   19 ar  
    29   13   34 1   
    30   14   35 1   
    31   14   36 1   
    32   14   50 1   
    33   15   20 1   
    34   15   37 1   
    35   15   38 1   
    36   15   50 1   
    37   16   20 1   
    38   16   39 1   
    39   16   40 1   
    40   16   48 1   
    41   17   49 2   
    42   17   51 1   
    43   18   19 ar  
    44   18   52 1   
    45   19   51 1   
    46   20   41 1   
    47   21   42 1   
    48   21   43 1   
    49   21   44 1   
    50   22   45 1   
    51   22   46 1   
    52   22   47 1   
    53   50   53 1   
    54   50   54 1   
    55   51   55 1   
@<TRIPOS>SUBSTRUCTURE
     1 FHF         1 TEMP              0 ****  ****    0 ROOT
