@<TRIPOS>MOLECULE
FHF
   57    55     1     0     0
SMALL
bcc


@<TRIPOS>ATOM
      1 C          -0.4360    0.2110   -0.2800 c2        1 FHF      0.212000
      2 N           1.5750    0.8880   -1.6490 n4        1 FHF     -0.102000
      3 O          -0.9960   -0.8590   -0.0460 o         1 FHF     -0.211000
      4 CA          1.0940    0.1820   -0.4220 c3        1 FHF     -0.129000
      5 CB          1.8100    0.6290    0.8690 c3        1 FHF     -0.119000
      6 OAG         2.3980   -0.3590   -4.2310 oh        1 FHF     -0.282000
      7 CAI         0.3320    0.1480   -5.1200 c2        1 FHF      0.271000
      8 CAJ         8.2360    2.7700   -2.6760 c1        1 FHF      0.302000
      9 CAK         7.2420    0.4930   -2.7890 c1        1 FHF     -0.102000
     10 CAL         7.1440    2.6920   -3.4290 c2        1 FHF     -0.436000
     11 CAM         6.1700    0.6320   -1.7970 c3        1 FHF     -0.190000
     12 CAN        -4.3520    2.5430    1.6120 c3        1 FHF     -0.291000
     13 CAP        -2.4370    1.4030    0.5150 c3        1 FHF     -0.161000
     14 CAQ        -1.6230    1.7280   -1.8420 c3        1 FHF     -0.224000
     15 CAT         3.0870    0.6740   -1.8420 c2        1 FHF      0.353000
     16 CAV         5.7420    2.7290   -3.0240 c2        1 FHF      0.169000
     17 CAW         5.2400    1.7350   -2.2180 c2        1 FHF     -0.065000
     18 CAY        -1.2150    1.5060   -0.3970 c3        1 FHF     -0.146000
     19 CG1         1.5890    2.0730    1.2520 c3        1 FHF     -0.222500
     20 CG2         1.3970   -0.2920    2.0010 c3        1 FHF     -0.222500
     21 HN          1.1210    0.4590   -2.4900 hn        1 FHF      0.270500
     22 HA          1.3150    1.8740   -1.6100 hn        1 FHF      0.270500
     23 HB          2.9190    0.4780    0.6970 hc        1 FHF      0.122000
     24 HAA        -3.3930    3.2150   -0.2140 hc        1 FHF      0.117000
     25 HAAA       -4.8800    4.6900    1.4530 ha        1 FHF      0.194500
     26 HAAB       -6.0510    3.6340    2.5050 ha        1 FHF      0.194500
     27 HOAG        2.7070   -1.2640   -4.0000 ho        1 FHF      0.262000
     28 HAI        -0.3050    0.1150   -6.0350 h5        1 FHF      0.183000
     29 HAJ         8.2400    0.2290   -2.4090 ha        1 FHF      0.088000
     30 HAK         6.4930    0.8320   -0.7360 hc        1 FHF      0.132000
     31 HAL         7.3040    2.5860   -4.5330 ha        1 FHF      0.249000
     32 HAM         5.6520   -0.3760   -1.8020 hc        1 FHF      0.132000
     33 HAN        -5.0350    1.7390    1.1470 hc        1 FHF      0.251000
     34 HANA       -4.0870    2.0300    2.6060 hc        1 FHF      0.251000
     35 HAP        -3.1630    0.6810    0.0510 hc        1 FHF      0.113000
     36 HAPA       -0.5730    2.3650   -0.0560 hc        1 FHF      0.107000
     37 HAQ         2.0220   -0.4300   -6.1490 hn        1 FHF      0.252000
     38 HAQA       -1.9460    0.7710   -2.3220 hc        1 FHF      0.101667
     39 HAY        -2.4700    2.4530   -1.9020 hc        1 FHF      0.101667
     40 HG1         1.7530    2.7670    0.3930 hc        1 FHF      0.095167
     41 HG1A        2.3130    2.3530    2.0600 hc        1 FHF      0.095167
     42 HG1B        0.5590    2.2300    1.6560 hc        1 FHF      0.095167
     43 HG2         1.9360    0.0010    2.9360 hc        1 FHF      0.095167
     44 HG2A        1.6540   -1.3530    1.7630 hc        1 FHF      0.095167
     45 HG2B        0.2980   -0.2270    2.1880 hc        1 FHF      0.095167
     46 OAE         3.4030   -0.5110   -1.9920 o         1 FHF     -0.259000
     47 CAO        -3.1100    2.7370    0.7620 c3        1 FHF     -0.171000
     48 NAR         3.9070    1.7760   -1.7310 n         1 FHF     -0.244000
     49 HAO        -2.3990    3.4320    1.2840 hc        1 FHF      0.117000
     50 HAOA       -2.1160    0.9630    1.4990 hc        1 FHF      0.113000
     51 HNAR        3.4950    2.6890   -1.7260 hn        1 FHF      0.248000
     52 H2          1.3780   -0.9160   -0.5760 hx        1 FHF      0.189000
     53 HBA1       -0.7780    2.1470   -2.4410 hc        1 FHF      0.101667
     54 NBA         1.5550   -0.5120   -5.2540 n         1 FHF     -0.229000
     55 FAH         4.9890    3.7600   -3.4610 f         1 FHF     -0.088000
     56 CAA        -5.1400    3.6950    1.8720 c2        1 FHF      0.288000
     57 OAD        -0.0490    0.6310   -4.0340 o         1 FHF     -0.431000
@<TRIPOS>BOND
     1    1    3 1   
     2    1    4 1   
     3    1   18 1   
     4    2    4 1   
     5    2   15 1   
     6    2   21 1   
     7    2   22 1   
     8    4    5 1   
     9    4   52 1   
    10    5   19 1   
    11    5   20 1   
    12    5   23 1   
    13    6   27 1   
    14    6   54 1   
    15    7   28 1   
    16    7   54 1   
    17    7   57 1   
    18    8   10 1   
    19    9   11 1   
    20    9   29 1   
    21   10   16 1   
    22   10   31 1   
    23   11   17 1   
    24   11   30 1   
    25   11   32 1   
    26   12   33 1   
    27   12   34 1   
    28   12   47 1   
    29   12   56 1   
    30   13   18 1   
    31   13   35 1   
    32   13   47 1   
    33   13   50 1   
    34   14   18 1   
    35   14   38 1   
    36   14   39 1   
    37   14   53 1   
    38   15   46 1   
    39   15   48 1   
    40   16   17 1   
    41   16   55 1   
    42   17   48 1   
    43   18   36 1   
    44   19   40 1   
    45   19   41 1   
    46   19   42 1   
    47   20   43 1   
    48   20   44 1   
    49   20   45 1   
    50   24   47 1   
    51   25   56 1   
    52   26   56 1   
    53   37   54 1   
    54   47   49 1   
    55   48   51 1   
@<TRIPOS>SUBSTRUCTURE
     1 FHF         1 TEMP              0 ****  ****    0 ROOT
