@<TRIPOS>MOLECULE
FHI
   25    20     1     0     0
SMALL
bcc


@<TRIPOS>ATOM
      1 FAT        -1.1500    1.2390    2.0390 f         1 FHI     -0.102000
      2 CAN         0.0920    0.7480    2.1420 c2        1 FHI      0.105000
      3 CAM         0.7630    0.8100    3.3530 c2        1 FHI     -0.212000
      4 CAF         2.0370    0.2770    3.4680 c1        1 FHI      0.086000
      5 FAE         2.6800    0.3260    4.6410 f         1 FHI     -0.118000
      6 CAG         2.6400   -0.3180    2.3710 c2        1 FHI     -0.178000
      7 CAH         1.9700   -0.3800    1.1600 c1        1 FHI     -0.086000
      8 CAO         0.6950    0.1530    1.0450 c1        1 FHI     -0.024000
      9 CAP         0.0460    0.1390   -0.1790 c1        1 FHI     -0.145000
     10 CAI        -0.7990   -0.9110   -0.5040 c1        1 FHI     -0.031000
     11 CAJ        -1.4940   -0.8960   -1.7030 c1        1 FHI     -0.209000
     12 CAC        -2.4590   -2.0130   -2.0310 c2        1 FHI      0.369000
     13 OAD        -3.6550   -1.9470   -1.6410 o         1 FHI     -0.558000
     14 OAB        -2.0640   -3.0150   -2.6830 o         1 FHI     -0.558000
     15 CAQ         0.1960    1.2040   -1.0540 c1        1 FHI     -0.050000
     16 CAR        -0.4990    1.2190   -2.2530 c1        1 FHI     -0.338000
     17 IAS        -0.2790    2.8420   -3.5790 i         1 FHI      0.103000
     18 CAK        -1.3440    0.1690   -2.5780 c2        1 FHI      0.192000
     19 OAL        -2.0540    0.1870   -3.7920 oh        1 FHI     -0.285000
     20 HAM         0.3420    1.2390    4.1230 ha        1 FHI      0.151000
     21 HAG         3.5390   -0.6940    2.4520 ha        1 FHI      0.144000
     22 HAH         2.3880   -0.8150    0.3910 ha        1 FHI      0.160000
     23 HAI        -0.8870   -1.6710    0.1010 ha        1 FHI      0.161000
     24 HAQ         0.7770    1.9520   -0.8180 ha        1 FHI      0.131000
     25 HAL        -1.4810    0.1590   -4.4720 ho        1 FHI      0.293000
@<TRIPOS>BOND
     1    1    2 1   
     2    2    3 1   
     3    2    8 1   
     4    3    4 1   
     5    3   20 1   
     6    4    6 1   
     7    6    7 1   
     8    6   21 1   
     9    7   22 1   
    10    9   10 1   
    11   10   23 1   
    12   11   12 1   
    13   11   18 1   
    14   12   13 1   
    15   12   14 1   
    16   15   16 1   
    17   15   24 1   
    18   16   18 1   
    19   18   19 1   
    20   19   25 1   
@<TRIPOS>SUBSTRUCTURE
     1 FHI         1 TEMP              0 ****  ****    0 ROOT
