@<TRIPOS>MOLECULE
FHI
   25    26     1     0     0
SMALL
bcc


@<TRIPOS>ATOM
      1 FAT         1.3250   -1.5930    3.1200 f         1 FHI     -0.122900
      2 CAN         0.3470   -0.7120    3.4360 ca        1 FHI      0.155900
      3 CAM        -0.1150   -0.6890    4.7640 ca        1 FHI     -0.212000
      4 CAF        -1.1370    0.2010    5.1220 ca        1 FHI      0.123900
      5 FAE        -1.5880    0.2270    6.4020 f         1 FHI     -0.152900
      6 CAG        -1.6960    1.0650    4.1640 ca        1 FHI     -0.184000
      7 CAH        -1.2240    1.0300    2.8580 ca        1 FHI     -0.093000
      8 CAO        -0.2030    0.1540    2.4600 cp        1 FHI     -0.027000
      9 CAP         0.2500    0.1640    1.0740 cp        1 FHI     -0.145000
     10 CAI         1.6190    0.1570    0.7520 ca        1 FHI     -0.021000
     11 CAJ         2.0520    0.2130   -0.5660 ca        1 FHI     -0.227600
     12 CAC         3.5490    0.2290   -0.8290 c         1 FHI      0.920200
     13 OAD         4.3250    0.2420    0.1610 o         1 FHI     -0.822300
     14 OAB         3.9510    0.2330   -2.0340 o         1 FHI     -0.822300
     15 CAQ        -0.6870    0.2150    0.0380 ca        1 FHI     -0.060000
     16 CAR        -0.2840    0.2570   -1.2950 ca        1 FHI     -0.053100
     17 IAS        -1.7480    0.3160   -2.6970 i         1 FHI     -0.185900
     18 CAK         1.0930    0.2590   -1.6070 ca        1 FHI      0.237100
     19 OAL         1.4240    0.3070   -2.9240 oh        1 FHI     -0.533100
     20 HAM         0.3240   -1.3640    5.5110 ha        1 FHI      0.154000
     21 HAG        -2.4940    1.7600    4.4560 ha        1 FHI      0.140000
     22 HAH        -1.6550    1.7140    2.1090 ha        1 FHI      0.146000
     23 HAI         2.3830    0.1090    1.5490 ha        1 FHI      0.168000
     24 HAQ        -1.7600    0.2120    0.2860 ha        1 FHI      0.122000
     25 HAL         2.4060    0.2940   -3.0200 ho        1 FHI      0.495000
@<TRIPOS>BOND
     1    1    2 1   
     2    2    3 ar  
     3    2    8 ar  
     4    3    4 ar  
     5    3   20 1   
     6    4    5 1   
     7    4    6 ar  
     8    6    7 ar  
     9    6   21 1   
    10    7    8 ar  
    11    7   22 1   
    12    8    9 1   
    13    9   10 ar  
    14    9   15 ar  
    15   10   11 ar  
    16   10   23 1   
    17   11   12 1   
    18   11   18 ar  
    19   12   13 1   
    20   12   14 1   
    21   15   16 ar  
    22   15   24 1   
    23   16   17 1   
    24   16   18 ar  
    25   18   19 1   
    26   19   25 1   
@<TRIPOS>SUBSTRUCTURE
     1 FHI         1 TEMP              0 ****  ****    0 ROOT
