@<TRIPOS>MOLECULE
FHI
   25    26     1     0     0
SMALL
bcc


@<TRIPOS>ATOM
      1 FAT         0.0030   -0.3900    0.0410 f         1 FHI     -0.122900
      2 CAN         1.3430   -0.2020    0.0070 ca        1 FHI      0.155900
      3 CAM         2.0400   -0.2050    1.2290 ca        1 FHI     -0.212000
      4 CAF         3.4270    0.0020    1.2310 ca        1 FHI      0.123900
      5 FAE         4.1040    0.0020    2.4060 f         1 FHI     -0.152900
      6 CAG         4.1160    0.2090    0.0240 ca        1 FHI     -0.184000
      7 CAH         3.4110    0.2050   -1.1730 ca        1 FHI     -0.093000
      8 CAO         2.0240    0.0020   -1.2180 cp        1 FHI     -0.027000
      9 CAP         1.3390    0.0090   -2.5050 cp        1 FHI     -0.145000
     10 CAI         0.3900   -0.9740   -2.8330 ca        1 FHI     -0.021000
     11 CAJ        -0.2290   -0.9950   -4.0770 ca        1 FHI     -0.227600
     12 CAC        -1.2250   -2.1080   -4.3640 c         1 FHI      0.920200
     13 OAD        -1.4030   -2.9870   -3.4800 o         1 FHI     -0.822300
     14 OAB        -1.8290   -2.1060   -5.4810 o         1 FHI     -0.822300
     15 CAQ         1.6500    0.9900   -3.4510 ca        1 FHI     -0.060000
     16 CAR         1.0360    1.0040   -4.7010 ca        1 FHI     -0.053100
     17 IAS         1.5710    2.4900   -5.9730 i         1 FHI     -0.185900
     18 CAK         0.0910    0.0070   -5.0240 ca        1 FHI      0.237100
     19 OAL        -0.4700    0.0690   -6.2610 oh        1 FHI     -0.533100
     20 HAM         1.4990   -0.3680    2.1700 ha        1 FHI      0.154000
     21 HAG         5.2030    0.3670    0.0360 ha        1 FHI      0.140000
     22 HAH         3.9530    0.3570   -2.1210 ha        1 FHI      0.146000
     23 HAI         0.1160   -1.7580   -2.1030 ha        1 FHI      0.168000
     24 HAQ         2.3880    1.7670   -3.1950 ha        1 FHI      0.122000
     25 HAL        -1.1170   -0.6680   -6.3690 ho        1 FHI      0.495000
@<TRIPOS>BOND
     1    1    2 1   
     2    2    3 ar  
     3    2    8 ar  
     4    3    4 ar  
     5    3   20 1   
     6    4    5 1   
     7    4    6 ar  
     8    6    7 ar  
     9    6   21 1   
    10    7    8 ar  
    11    7   22 1   
    12    8    9 1   
    13    9   10 ar  
    14    9   15 ar  
    15   10   11 ar  
    16   10   23 1   
    17   11   12 1   
    18   11   18 ar  
    19   12   13 1   
    20   12   14 1   
    21   15   16 ar  
    22   15   24 1   
    23   16   17 1   
    24   16   18 ar  
    25   18   19 1   
    26   19   25 1   
@<TRIPOS>SUBSTRUCTURE
     1 FHI         1 TEMP              0 ****  ****    0 ROOT
