@<TRIPOS>MOLECULE
FHL
   36    35     1     0     0
SMALL
bcc


@<TRIPOS>ATOM
      1 O1         -3.9320   -4.5660   -1.0730 o         1 FHL     -0.853800
      2 C1         -3.3750   -5.3760   -0.2760 c         1 FHL      0.907600
      3 O2         -3.6080   -6.6190   -0.2660 o         1 FHL     -0.853800
      4 C2         -2.3260   -4.8400    0.7150 c3        1 FHL     -0.189400
      5 C3         -2.6860   -3.4660    1.2340 c3        1 FHL     -0.161700
      6 C4         -1.4810   -2.7190    1.7390 c2        1 FHL      0.403300
      7 C5         -0.5430   -2.3280    0.6010 c3        1 FHL      0.086100
      8 O3          0.0310   -1.0410    0.7060 oh        1 FHL     -0.619800
      9 NZ         -1.1380   -2.4160    2.9430 n2        1 FHL     -0.644900
     10 CE         -1.8890   -2.7690    4.1130 c3        1 FHL      0.118800
     11 CD         -2.3450   -1.5690    4.9500 c3        1 FHL     -0.067400
     12 CG         -1.2160   -0.9460    5.7440 c3        1 FHL     -0.078400
     13 CB         -1.6970    0.2800    6.4930 c3        1 FHL     -0.060400
     14 CA         -0.7290    0.7950    7.5600 c3        1 FHL      0.025500
     15 N           0.6280    1.0160    7.0810 n3        1 FHL     -0.894800
     16 C          -0.8280   -0.0970    8.8400 c         1 FHL      0.887600
     17 O           0.2350   -0.6110    9.3000 o         1 FHL     -0.851800
     18 OXT        -1.9630   -0.2260    9.3790 o         1 FHL     -0.851800
     19 H2C1       -1.3480   -4.8050    0.1700 hc        1 FHL      0.024700
     20 H2C2       -2.2190   -5.5610    1.5630 hc        1 FHL      0.024700
     21 H3C1       -3.4720   -3.5630    2.0270 hc        1 FHL      0.063700
     22 H3C2       -3.1510   -2.8790    0.3920 hc        1 FHL      0.063700
     23 H5C1       -1.1120   -2.3060   -0.3690 h1        1 FHL      0.052700
     24 H5C2        0.2750   -3.0980    0.5370 h1        1 FHL      0.052700
     25 H3          0.3550   -0.9280    1.6070 ho        1 FHL      0.416000
     26 HEC1       -1.1950   -3.3980    4.7450 h1        1 FHL      0.036700
     27 HEC2       -2.7990   -3.4000    3.8940 h1        1 FHL      0.036700
     28 HDC1       -3.1350   -1.9350    5.6590 hc        1 FHL      0.035700
     29 HDC2       -2.8180   -0.7940    4.2930 hc        1 FHL      0.035700
     30 HGC1       -0.3840   -0.6710    5.0440 hc        1 FHL      0.047200
     31 HGC2       -0.8100   -1.6910    6.4780 hc        1 FHL      0.047200
     32 HBC1       -2.6580    0.0390    7.0250 hc        1 FHL      0.033700
     33 HBC2       -1.9080    1.0970    5.7540 hc        1 FHL      0.033700
     34 HA         -1.1100    1.8130    7.8780 h1        1 FHL      0.032700
     35 HN1         1.2290    1.0400    7.8900 hn        1 FHL      0.330300
     36 HN2         0.9180    0.2190    6.5420 hn        1 FHL      0.330300
@<TRIPOS>BOND
     1    1    2 1   
     2    2    3 1   
     3    2    4 1   
     4    4    5 1   
     5    4   19 1   
     6    4   20 1   
     7    5    6 1   
     8    5   21 1   
     9    5   22 1   
    10    6    7 1   
    11    6    9 2   
    12    7    8 1   
    13    7   23 1   
    14    7   24 1   
    15    8   25 1   
    16    9   10 1   
    17   10   11 1   
    18   10   26 1   
    19   10   27 1   
    20   11   12 1   
    21   11   28 1   
    22   11   29 1   
    23   12   13 1   
    24   12   30 1   
    25   12   31 1   
    26   13   14 1   
    27   13   32 1   
    28   13   33 1   
    29   14   15 1   
    30   14   16 1   
    31   14   34 1   
    32   15   35 1   
    33   15   36 1   
    34   16   17 1   
    35   16   18 1   
@<TRIPOS>SUBSTRUCTURE
     1 FHL         1 TEMP              0 ****  ****    0 ROOT
