@<TRIPOS>MOLECULE
FHM
   42    43     1     0     0
SMALL
bcc


@<TRIPOS>ATOM
      1 C17        -0.1590    0.4400   -0.0600 ca        1 FHM     -0.151000
      2 C18         1.1710    0.4050   -0.4510 ca        1 FHM     -0.131500
      3 C19         2.1520   -0.0660    0.4450 ca        1 FHM      0.097900
      4 F19         3.4520   -0.0990    0.0620 f         1 FHM     -0.137900
      5 C20         1.7890   -0.5010    1.7300 ca        1 FHM     -0.131500
      6 C21         0.4530   -0.4670    2.1230 ca        1 FHM     -0.151000
      7 C16        -0.5140    0.0030    1.2290 ca        1 FHM      0.108100
      8 O14        -1.8700    0.0710    1.5050 os        1 FHM     -0.349900
      9 C13        -2.2490   -0.2780    2.8410 c3        1 FHM      0.106400
     10 C11        -3.7690   -0.0320    2.9070 c3        1 FHM      0.094800
     11 O11        -4.0640    1.3150    2.5640 oh        1 FHM     -0.607800
     12 C12        -4.5230   -0.9960    2.0020 c3        1 FHM     -0.127100
     13 C10        -4.2160   -0.2710    4.3690 c         1 FHM      0.678100
     14 O10        -3.5920   -1.0750    5.0800 o         1 FHM     -0.579100
     15 N9         -5.3570    0.4010    4.7880 n         1 FHM     -0.450100
     16 C6         -5.9520    0.3450    6.0500 ca        1 FHM      0.115600
     17 C5         -7.0180    1.2430    6.3290 ca        1 FHM     -0.159000
     18 C1         -5.5670   -0.5700    7.0540 ca        1 FHM     -0.155000
     19 C2         -6.2200   -0.5860    8.2790 ca        1 FHM     -0.043000
     20 C3         -7.2740    0.3030    8.5430 ca        1 FHM     -0.174200
     21 N8         -7.9410    0.2410    9.8710 no        1 FHM      0.317200
     22 O2         -7.5490   -0.5720   10.6650 o         1 FHM     -0.195000
     23 O1         -8.8420    0.9930   10.1170 o         1 FHM     -0.195000
     24 C4         -7.6710    1.2220    7.5540 ca        1 FHM     -0.076300
     25 C7         -8.8160    2.2180    7.7870 c3        1 FHM      0.695200
     26 F2         -9.0680    3.0410    6.7120 f         1 FHM     -0.221967
     27 F3        -10.0260    1.6280    8.0380 f         1 FHM     -0.221967
     28 F1         -8.5970    3.0890    8.8220 f         1 FHM     -0.221967
     29 H17        -0.9390    0.8030   -0.7450 ha        1 FHM      0.150500
     30 H18         1.4690    0.7420   -1.4550 ha        1 FHM      0.154000
     31 H20         2.5630   -0.8670    2.4210 ha        1 FHM      0.154000
     32 H21         0.1810   -0.8130    3.1310 ha        1 FHM      0.150500
     33 H131       -1.7180    0.3800    3.5750 h1        1 FHM      0.070700
     34 H132       -2.0230   -1.3570    3.0410 h1        1 FHM      0.070700
     35 H11        -3.6720    1.4740    1.6940 ho        1 FHM      0.441000
     36 H121       -4.1080   -0.9310    0.9670 hc        1 FHM      0.063367
     37 H122       -4.4070   -2.0420    2.3730 hc        1 FHM      0.063367
     38 H123       -5.6060   -0.7290    1.9750 hc        1 FHM      0.063367
     39 HN9        -5.7130    1.0970    4.1610 hn        1 FHM      0.346500
     40 H5         -7.3420    1.9740    5.5670 ha        1 FHM      0.167000
     41 H1         -4.7410   -1.2830    6.8830 ha        1 FHM      0.191000
     42 H2         -5.9050   -1.3100    9.0540 ha        1 FHM      0.182000
@<TRIPOS>BOND
     1    1    2 ar  
     2    1    7 ar  
     3    1   29 1   
     4    2    3 ar  
     5    2   30 1   
     6    3    4 1   
     7    3    5 ar  
     8    5    6 ar  
     9    5   31 1   
    10    6    7 ar  
    11    6   32 1   
    12    7    8 1   
    13    8    9 1   
    14    9   10 1   
    15    9   33 1   
    16    9   34 1   
    17   10   11 1   
    18   10   12 1   
    19   10   13 1   
    20   11   35 1   
    21   12   36 1   
    22   12   37 1   
    23   12   38 1   
    24   13   14 2   
    25   13   15 1   
    26   15   16 1   
    27   15   39 1   
    28   16   17 ar  
    29   16   18 ar  
    30   17   24 ar  
    31   17   40 1   
    32   18   19 ar  
    33   18   41 1   
    34   19   20 ar  
    35   19   42 1   
    36   20   21 1   
    37   20   24 ar  
    38   21   22 1   
    39   21   23 1   
    40   24   25 1   
    41   25   26 1   
    42   25   27 1   
    43   25   28 1   
@<TRIPOS>SUBSTRUCTURE
     1 FHM         1 TEMP              0 ****  ****    0 ROOT
