@<TRIPOS>MOLECULE
FHM
   42    43     1     0     0
SMALL
bcc


@<TRIPOS>ATOM
      1 C17         6.5000    1.0740    0.4300 ca        1 FHM     -0.151000
      2 C18         7.7410    0.5280    0.7210 ca        1 FHM     -0.131500
      3 C19         7.9180   -0.8700    0.6840 ca        1 FHM      0.097900
      4 F19         9.1300   -1.4020    0.9700 f         1 FHM     -0.137900
      5 C20         6.8430   -1.7130    0.3530 ca        1 FHM     -0.131500
      6 C21         5.5960   -1.1650    0.0590 ca        1 FHM     -0.151000
      7 C16         5.4280    0.2230    0.0990 ca        1 FHM      0.108100
      8 O14         4.2420    0.8780   -0.1840 os        1 FHM     -0.349900
      9 C13         3.1120    0.0350   -0.4330 c3        1 FHM      0.106400
     10 C11         1.9240    0.9970   -0.6250 c3        1 FHM      0.094800
     11 O11         1.7750    1.8290    0.5180 oh        1 FHM     -0.607800
     12 C12         2.0930    1.8370   -1.8830 c3        1 FHM     -0.127100
     13 C10         0.6460    0.1370   -0.7710 c         1 FHM      0.678100
     14 O10         0.7250   -1.0050   -1.2520 o         1 FHM     -0.579100
     15 N9         -0.5520    0.7340   -0.4010 n         1 FHM     -0.450100
     16 C6         -1.8260    0.1650   -0.4440 ca        1 FHM      0.115600
     17 C5         -2.9020    0.8850    0.1410 ca        1 FHM     -0.159000
     18 C1         -2.1050   -1.0760   -1.0570 ca        1 FHM     -0.155000
     19 C2         -3.4020   -1.5710   -1.0850 ca        1 FHM     -0.043000
     20 C3         -4.4590   -0.8490   -0.5070 ca        1 FHM     -0.174200
     21 N8         -5.8290   -1.4250   -0.5670 no        1 FHM      0.317200
     22 O2         -5.9760   -2.4860   -1.1120 o         1 FHM     -0.195000
     23 O1         -6.7450   -0.8250   -0.0770 o         1 FHM     -0.195000
     24 C4         -4.1980    0.3890    0.1100 ca        1 FHM     -0.076300
     25 C7         -5.3140    1.2210    0.7590 c3        1 FHM      0.695200
     26 F2         -4.8780    2.4040    1.3120 f         1 FHM     -0.221967
     27 F3         -6.2980    1.6100   -0.1120 f         1 FHM     -0.221967
     28 F1         -5.9510    0.5890    1.7940 f         1 FHM     -0.221967
     29 H17         6.3430    2.1620    0.4520 ha        1 FHM      0.150500
     30 H18         8.5910    1.1760    0.9810 ha        1 FHM      0.154000
     31 H20         6.9920   -2.8020    0.3260 ha        1 FHM      0.154000
     32 H21         4.7640   -1.8340   -0.2010 ha        1 FHM      0.150500
     33 H131        2.9310   -0.6330    0.4480 h1        1 FHM      0.070700
     34 H132        3.2740   -0.5700   -1.3610 h1        1 FHM      0.070700
     35 H11         2.6250    2.2690    0.6560 ho        1 FHM      0.441000
     36 H121        3.0830    2.3550   -1.8510 hc        1 FHM      0.063367
     37 H122        2.0550    1.1850   -2.7880 hc        1 FHM      0.063367
     38 H123        1.2850    2.6030   -1.9450 hc        1 FHM      0.063367
     39 HN9        -0.4770    1.6170    0.0660 hn        1 FHM      0.346500
     40 H5         -2.7180    1.8570    0.6320 ha        1 FHM      0.167000
     41 H1         -1.2990   -1.6720   -1.5210 ha        1 FHM      0.191000
     42 H2         -3.6030   -2.5450   -1.5690 ha        1 FHM      0.182000
@<TRIPOS>BOND
     1    1    2 ar  
     2    1    7 ar  
     3    1   29 1   
     4    2    3 ar  
     5    2   30 1   
     6    3    4 1   
     7    3    5 ar  
     8    5    6 ar  
     9    5   31 1   
    10    6    7 ar  
    11    6   32 1   
    12    7    8 1   
    13    8    9 1   
    14    9   10 1   
    15    9   33 1   
    16    9   34 1   
    17   10   11 1   
    18   10   12 1   
    19   10   13 1   
    20   11   35 1   
    21   12   36 1   
    22   12   37 1   
    23   12   38 1   
    24   13   14 2   
    25   13   15 1   
    26   15   16 1   
    27   15   39 1   
    28   16   17 ar  
    29   16   18 ar  
    30   17   24 ar  
    31   17   40 1   
    32   18   19 ar  
    33   18   41 1   
    34   19   20 ar  
    35   19   42 1   
    36   20   21 1   
    37   20   24 ar  
    38   21   22 1   
    39   21   23 1   
    40   24   25 1   
    41   25   26 1   
    42   25   27 1   
    43   25   28 1   
@<TRIPOS>SUBSTRUCTURE
     1 FHM         1 TEMP              0 ****  ****    0 ROOT
