@<TRIPOS>MOLECULE
FHM
   42    43     1     0     0
SMALL
bcc


@<TRIPOS>ATOM
      1 C17        -0.1690    0.4450   -0.0660 ca        1 FHM     -0.151000
      2 C18         1.1610    0.4160   -0.4570 ca        1 FHM     -0.131500
      3 C19         2.1450   -0.0530    0.4360 ca        1 FHM      0.097900
      4 F19         3.4440   -0.0790    0.0530 f         1 FHM     -0.137900
      5 C20         1.7840   -0.4940    1.7210 ca        1 FHM     -0.131500
      6 C21         0.4480   -0.4670    2.1140 ca        1 FHM     -0.151000
      7 C16        -0.5220    0.0020    1.2230 ca        1 FHM      0.108100
      8 O14        -1.8780    0.0630    1.4990 os        1 FHM     -0.349900
      9 C13        -2.2540   -0.2850    2.8360 c3        1 FHM      0.106400
     10 C11        -3.7730   -0.0400    2.9050 c3        1 FHM      0.094800
     11 O11        -4.0710    1.3060    2.5600 oh        1 FHM     -0.607800
     12 C12        -4.5280   -1.0060    2.0040 c3        1 FHM     -0.127100
     13 C10        -4.2180   -0.2770    4.3680 c         1 FHM      0.678100
     14 O10        -3.5920   -1.0800    5.0790 o         1 FHM     -0.579100
     15 N9         -5.3570    0.3970    4.7890 n         1 FHM     -0.450100
     16 C6         -5.9490    0.3430    6.0530 ca        1 FHM      0.115600
     17 C5         -7.0130    1.2420    6.3340 ca        1 FHM     -0.159000
     18 C1         -5.5620   -0.5710    7.0570 ca        1 FHM     -0.155000
     19 C2         -6.2120   -0.5850    8.2840 ca        1 FHM     -0.043000
     20 C3         -7.2640    0.3060    8.5490 ca        1 FHM     -0.174200
     21 N8         -7.9260    0.2470    9.8800 no        1 FHM      0.317200
     22 O2         -7.5330   -0.5660   10.6740 o         1 FHM     -0.195000
     23 O1         -8.8260    1.0010   10.1270 o         1 FHM     -0.195000
     24 C4         -7.6620    1.2250    7.5610 ca        1 FHM     -0.076300
     25 C7         -8.8050    2.2230    7.7950 c3        1 FHM      0.695200
     26 F2         -9.0590    3.0440    6.7210 f         1 FHM     -0.221967
     27 F3        -10.0150    1.6340    8.0510 f         1 FHM     -0.221967
     28 F1         -8.5810    3.0940    8.8280 f         1 FHM     -0.221967
     29 H17        -0.9510    0.8070   -0.7490 ha        1 FHM      0.150500
     30 H18         1.4570    0.7580   -1.4600 ha        1 FHM      0.154000
     31 H20         2.5600   -0.8590    2.4100 ha        1 FHM      0.154000
     32 H21         0.1780   -0.8170    3.1210 ha        1 FHM      0.150500
     33 H131       -2.0260   -1.3630    3.0370 h1        1 FHM      0.070700
     34 H132       -1.7210    0.3750    3.5690 h1        1 FHM      0.070700
     35 H11        -3.6810    1.4640    1.6880 ho        1 FHM      0.441000
     36 H121       -5.6120   -0.7410    1.9790 hc        1 FHM      0.063367
     37 H122       -4.1160   -0.9430    0.9670 hc        1 FHM      0.063367
     38 H123       -4.4110   -2.0510    2.3770 hc        1 FHM      0.063367
     39 HN9        -5.7150    1.0910    4.1620 hn        1 FHM      0.346500
     40 H5         -7.3380    1.9730    5.5720 ha        1 FHM      0.167000
     41 H1         -4.7380   -1.2860    6.8850 ha        1 FHM      0.191000
     42 H2         -5.8950   -1.3080    9.0590 ha        1 FHM      0.182000
@<TRIPOS>BOND
     1    1    2 ar  
     2    1    7 ar  
     3    1   29 1   
     4    2    3 ar  
     5    2   30 1   
     6    3    4 1   
     7    3    5 ar  
     8    5    6 ar  
     9    5   31 1   
    10    6    7 ar  
    11    6   32 1   
    12    7    8 1   
    13    8    9 1   
    14    9   10 1   
    15    9   33 1   
    16    9   34 1   
    17   10   11 1   
    18   10   12 1   
    19   10   13 1   
    20   11   35 1   
    21   12   36 1   
    22   12   37 1   
    23   12   38 1   
    24   13   14 2   
    25   13   15 1   
    26   15   16 1   
    27   15   39 1   
    28   16   17 ar  
    29   16   18 ar  
    30   17   24 ar  
    31   17   40 1   
    32   18   19 ar  
    33   18   41 1   
    34   19   20 ar  
    35   19   42 1   
    36   20   21 1   
    37   20   24 ar  
    38   21   22 1   
    39   21   23 1   
    40   24   25 1   
    41   25   26 1   
    42   25   27 1   
    43   25   28 1   
@<TRIPOS>SUBSTRUCTURE
     1 FHM         1 TEMP              0 ****  ****    0 ROOT
