@<TRIPOS>MOLECULE
FHM
   42    43     1     0     0
SMALL
bcc


@<TRIPOS>ATOM
      1 C17        -0.1720    0.4250   -0.0720 ca        1 FHM     -0.151000
      2 C18         1.1580    0.3950   -0.4660 ca        1 FHM     -0.131500
      3 C19         2.1440   -0.0620    0.4320 ca        1 FHM      0.097900
      4 F19         3.4430   -0.0900    0.0460 f         1 FHM     -0.137900
      5 C20         1.7870   -0.4870    1.7220 ca        1 FHM     -0.131500
      6 C21         0.4520   -0.4590    2.1180 ca        1 FHM     -0.151000
      7 C16        -0.5210   -0.0030    1.2230 ca        1 FHM      0.108100
      8 O14        -1.8760    0.0600    1.5010 os        1 FHM     -0.349900
      9 C13        -2.2500   -0.2800    2.8410 c3        1 FHM      0.106400
     10 C11        -3.7710   -0.0430    2.9090 c3        1 FHM      0.094800
     11 O11        -4.0760    1.2990    2.5550 oh        1 FHM     -0.607800
     12 C12        -4.5210   -1.0200    2.0140 c3        1 FHM     -0.127100
     13 C10        -4.2130   -0.2720    4.3740 c         1 FHM      0.678100
     14 O10        -3.5820   -1.0660    5.0900 o         1 FHM     -0.579100
     15 N9         -5.3570    0.3960    4.7900 ns        1 FHM     -0.450100
     16 C6         -5.9490    0.3480    6.0540 ca        1 FHM      0.115600
     17 C5         -7.0190    1.2410    6.3280 ca        1 FHM     -0.159000
     18 C1         -5.5550   -0.5560    7.0650 ca        1 FHM     -0.155000
     19 C2         -6.2050   -0.5650    8.2920 ca        1 FHM     -0.043000
     20 C3         -7.2640    0.3200    8.5500 ca        1 FHM     -0.174200
     21 N8         -7.9260    0.2650    9.8800 no        1 FHM      0.317200
     22 O2         -7.5280   -0.5390   10.6810 o         1 FHM     -0.195000
     23 O1         -8.8320    1.0140   10.1220 o         1 FHM     -0.195000
     24 C4         -7.6690    1.2280    7.5540 ca        1 FHM     -0.076300
     25 C7         -8.8190    2.2190    7.7820 c3        1 FHM      0.695200
     26 F2         -9.0790    3.0310    6.7010 f         1 FHM     -0.221967
     27 F3        -10.0250    1.6240    8.0410 f         1 FHM     -0.221967
     28 F1         -8.6020    3.1000    8.8080 f         1 FHM     -0.221967
     29 H17        -0.9550    0.7770   -0.7580 ha        1 FHM      0.150500
     30 H18         1.4510    0.7240   -1.4730 ha        1 FHM      0.154000
     31 H20         2.5650   -0.8420    2.4140 ha        1 FHM      0.154000
     32 H21         0.1840   -0.7960    3.1300 ha        1 FHM      0.150500
     33 H131       -2.0160   -1.3550    3.0500 h1        1 FHM      0.070700
     34 H132       -1.7210    0.3880    3.5680 h1        1 FHM      0.070700
     35 H11        -3.6870    1.4520    1.6820 ho        1 FHM      0.441000
     36 H121       -4.1090   -0.9620    0.9770 hc        1 FHM      0.063367
     37 H122       -4.3970   -2.0620    2.3950 hc        1 FHM      0.063367
     38 H123       -5.6060   -0.7620    1.9880 hc        1 FHM      0.063367
     39 HN9        -5.7190    1.0840    4.1580 hn        1 FHM      0.346500
     40 H5         -7.3490    1.9640    5.5600 ha        1 FHM      0.167000
     41 H1         -4.7260   -1.2660    6.8980 ha        1 FHM      0.191000
     42 H2         -5.8840   -1.2800    9.0720 ha        1 FHM      0.182000
@<TRIPOS>BOND
     1    1    2 ar  
     2    1    7 ar  
     3    1   29 1   
     4    2    3 ar  
     5    2   30 1   
     6    3    4 1   
     7    3    5 ar  
     8    5    6 ar  
     9    5   31 1   
    10    6    7 ar  
    11    6   32 1   
    12    7    8 1   
    13    8    9 1   
    14    9   10 1   
    15    9   33 1   
    16    9   34 1   
    17   10   11 1   
    18   10   12 1   
    19   10   13 1   
    20   11   35 1   
    21   12   36 1   
    22   12   37 1   
    23   12   38 1   
    24   13   14 2   
    25   13   15 1   
    26   15   16 1   
    27   15   39 1   
    28   16   17 ar  
    29   16   18 ar  
    30   17   24 ar  
    31   17   40 1   
    32   18   19 ar  
    33   18   41 1   
    34   19   20 ar  
    35   19   42 1   
    36   20   21 1   
    37   20   24 ar  
    38   21   22 1   
    39   21   23 1   
    40   24   25 1   
    41   25   26 1   
    42   25   27 1   
    43   25   28 1   
@<TRIPOS>SUBSTRUCTURE
     1 FHM         1 TEMP              0 ****  ****    0 ROOT
