@<TRIPOS>MOLECULE
FHM
   42    38     1     0     0
SMALL
bcc


@<TRIPOS>ATOM
      1 C17         3.7200    1.2210   -2.3270 c1        1 FHM     -0.156000
      2 C18         5.0680    1.5420   -2.2990 c1        1 FHM     -0.141000
      3 C19         6.0170    0.5750   -2.5910 c1        1 FHM      0.078000
      4 F19         7.3160    0.8980   -2.6140 f         1 FHM     -0.101000
      5 C20         5.6180   -0.7130   -2.9120 c2        1 FHM     -0.146000
      6 C21         4.2700   -1.0340   -2.9410 c1        1 FHM     -0.112000
      7 C16         3.3210   -0.0670   -2.6480 c1        1 FHM      0.032000
      8 O14         1.9530   -0.3680   -2.7700 os        1 FHM     -0.230000
      9 C13         1.3620   -0.8330   -1.5790 c3        1 FHM     -0.041000
     10 C11        -0.1400   -0.8990   -1.7520 c3        1 FHM      0.048000
     11 O11        -0.5760    0.2190   -2.4860 oh        1 FHM     -0.340000
     12 C12        -0.5070   -2.1630   -2.4950 c3        1 FHM     -0.245000
     13 C10        -0.8050   -0.9000   -0.3940 c2        1 FHM      0.322000
     14 O10        -0.5840   -1.8020    0.3890 o         1 FHM     -0.337000
     15 N9         -1.6810    0.1550   -0.0320 n         1 FHM     -0.306000
     16 C6         -2.2990    0.1580    1.2450 c2        1 FHM      0.123000
     17 C5         -2.2700    1.3020    2.0260 c2        1 FHM     -0.160000
     18 C1         -2.9760   -0.9670    1.6890 c1        1 FHM     -0.155000
     19 C2         -3.6240   -0.9480    2.9130 c1        1 FHM     -0.042000
     20 C3         -3.5950    0.1960    3.6950 c1        1 FHM     -0.129000
     21 N8         -4.2690    0.2210    4.9420 n2        1 FHM      0.463400
     22 O2         -4.2480    1.2320    5.6290 o         1 FHM     -0.291200
     23 O1         -4.9410   -0.8850    5.3770 o         1 FHM     -0.291200
     24 C4         -2.9180    1.3210    3.2510 c2        1 FHM     -0.069000
     25 C7         -2.9120    2.5790    4.0890 c3        1 FHM      0.474000
     26 F2         -2.1680    3.5150    3.4850 f         1 FHM     -0.150667
     27 F3         -4.1660    3.0280    4.2290 f         1 FHM     -0.150667
     28 F1         -2.3980    2.3100    5.2960 f         1 FHM     -0.150667
     29 H17         3.0520    1.9020   -2.1210 ha        1 FHM      0.156000
     30 H18         5.3490    2.4490   -2.0730 ha        1 FHM      0.155000
     31 H20         6.2860   -1.3940   -3.1180 ha        1 FHM      0.155000
     32 H21         3.9890   -1.9410   -3.1670 ha        1 FHM      0.156000
     33 H131        1.5800   -0.2210   -0.8450 h1        1 FHM      0.121000
     34 H132        1.7060   -1.7270   -1.3710 h1        1 FHM      0.121000
     35 H11        -1.0190   -0.0540   -3.2070 ho        1 FHM      0.238000
     36 H121       -1.4770   -2.1910   -2.6340 hc        1 FHM      0.101667
     37 H122       -0.0520   -2.1760   -3.3630 hc        1 FHM      0.101667
     38 H123       -0.2300   -2.9430   -1.9690 hc        1 FHM      0.101667
     39 HN9        -1.8600    0.8240   -0.6260 hn        1 FHM      0.258000
     40 H5         -1.7930    2.0940    1.7140 ha        1 FHM      0.166000
     41 H1         -2.9970   -1.7730    1.1390 ha        1 FHM      0.192000
     42 H2         -4.1010   -1.7400    3.2260 ha        1 FHM      0.182000
@<TRIPOS>BOND
     1    1    7 1   
     2    1   29 1   
     3    2    3 1   
     4    2   30 1   
     5    3    5 1   
     6    5    6 1   
     7    5   31 1   
     8    6   32 1   
     9    7    8 1   
    10    8    9 1   
    11    9   10 1   
    12    9   33 1   
    13    9   34 1   
    14   10   11 1   
    15   10   12 1   
    16   10   13 1   
    17   11   35 1   
    18   12   36 1   
    19   12   37 1   
    20   12   38 1   
    21   13   14 1   
    22   13   15 1   
    23   15   16 1   
    24   15   39 1   
    25   16   17 1   
    26   16   18 1   
    27   17   24 1   
    28   17   40 1   
    29   18   41 1   
    30   19   20 1   
    31   19   42 1   
    32   20   24 1   
    33   21   22 2   
    34   21   23 2   
    35   24   25 1   
    36   25   26 1   
    37   25   27 1   
    38   25   28 1   
@<TRIPOS>SUBSTRUCTURE
     1 FHM         1 TEMP              0 ****  ****    0 ROOT
