@<TRIPOS>MOLECULE
FHN
   29    29     1     0     0
SMALL
bcc


@<TRIPOS>ATOM
      1 O2          0.0810   -0.0790    0.3540 oh        1 FHN     -0.602800
      2 C2          1.4800   -0.0180    0.1810 c3        1 FHN      0.115600
      3 C3          2.0950    0.0150    1.5940 c3        1 FHN      0.106100
      4 O3          1.8340    1.2700    2.1890 oh        1 FHN     -0.589800
      5 C4          3.6270   -0.0930    1.5190 c3        1 FHN      0.115600
      6 O4          4.1840    1.0060    0.8190 oh        1 FHN     -0.602800
      7 C5          4.0430   -1.3660    0.7550 c3        1 FHN      0.071500
      8 C7          5.5880   -1.4460    0.6480 c3        1 FHN      0.121400
      9 O7          6.0630   -0.5790   -0.3500 oh        1 FHN     -0.607800
     10 N           3.4330   -1.3960   -0.6160 n4        1 FHN     -0.742000
     11 C1          1.9420   -1.2610   -0.6160 c3        1 FHN      0.071500
     12 C6          1.2510   -2.5430   -0.0990 c3        1 FHN      0.121400
     13 O6          1.7850   -3.6470   -0.7980 oh        1 FHN     -0.607800
     14 H2         -0.3320    0.4040   -0.3760 ho        1 FHN      0.449500
     15 HA          1.7900    0.9150   -0.3690 h1        1 FHN      0.093700
     16 H3          1.6700   -0.8170    2.2190 h1        1 FHN      0.078700
     17 H1          1.6450   -1.1230   -1.7010 hx        1 FHN      0.112700
     18 HB          0.8790    1.3230    2.3420 ho        1 FHN      0.447000
     19 H4          4.0480   -0.1410    2.5630 h1        1 FHN      0.093700
     20 HC          3.9140    1.8120    1.2880 ho        1 FHN      0.449500
     21 H5          3.6640   -2.2660    1.3230 hx        1 FHN      0.112700
     22 H71C        5.9010   -2.4770    0.3230 h1        1 FHN      0.088700
     23 H72C        6.0190   -1.2180    1.6570 h1        1 FHN      0.088700
     24 HN1         3.8570   -0.6220   -1.1510 hn        1 FHN      0.474300
     25 HN2         3.6760   -2.2920   -1.0630 hn        1 FHN      0.474300
     26 H7          6.1320    0.3130    0.0250 ho        1 FHN      0.444000
     27 H61C        1.4710   -2.7040    0.9910 h1        1 FHN      0.088700
     28 H62C        0.1450   -2.4210   -0.2360 h1        1 FHN      0.088700
     29 H6          1.0830   -4.0470   -1.3280 ho        1 FHN      0.444000
@<TRIPOS>BOND
     1    1    2 1   
     2    1   14 1   
     3    2    3 1   
     4    2   11 1   
     5    2   15 1   
     6    3    4 1   
     7    3    5 1   
     8    3   16 1   
     9    4   18 1   
    10    5    6 1   
    11    5    7 1   
    12    5   19 1   
    13    6   20 1   
    14    7    8 1   
    15    7   10 1   
    16    7   21 1   
    17    8    9 1   
    18    8   22 1   
    19    8   23 1   
    20    9   26 1   
    21   10   11 1   
    22   10   24 1   
    23   10   25 1   
    24   11   12 1   
    25   11   17 1   
    26   12   13 1   
    27   12   27 1   
    28   12   28 1   
    29   13   29 1   
@<TRIPOS>SUBSTRUCTURE
     1 FHN         1 TEMP              0 ****  ****    0 ROOT
