@<TRIPOS>MOLECULE
FHN
   29    29     1     0     0
SMALL
bcc


@<TRIPOS>ATOM
      1 O2          2.6280    0.9150    0.3870 oh        1 FHN     -0.603300
      2 C2          1.2360    0.7150    0.5240 c3        1 FHN      0.121600
      3 C3          0.4840    1.3250   -0.6750 c3        1 FHN      0.063100
      4 O3          0.5760    2.7280   -0.4930 oh        1 FHN     -0.592800
      5 C4         -0.9990    0.9220   -0.6490 c3        1 FHN      0.121600
      6 O4         -1.6500    1.4350    0.5010 oh        1 FHN     -0.603300
      7 C5         -1.1510   -0.6110   -0.5990 c3        1 FHN      0.086500
      8 C7         -2.6490   -1.0030   -0.5230 c3        1 FHN      0.121900
      9 O7         -3.1450   -0.8220    0.7790 oh        1 FHN     -0.607300
     10 N          -0.4100   -1.1850    0.5720 n4        1 FHN     -0.745000
     11 C1          1.0400   -0.8140    0.6130 c3        1 FHN      0.086500
     12 C6          1.8550   -1.5510   -0.4730 c3        1 FHN      0.121900
     13 O6          1.5460   -2.9260   -0.4080 oh        1 FHN     -0.607300
     14 H2          2.7790    1.8710    0.4450 ho        1 FHN      0.455000
     15 HA          0.8590    1.2030    1.4690 h1        1 FHN      0.085700
     16 H3          0.9610    1.0030   -1.6400 h1        1 FHN      0.080700
     17 H1          1.4240   -1.1550    1.6240 hx        1 FHN      0.119200
     18 HB          0.5360    3.1440   -1.3640 ho        1 FHN      0.438000
     19 H4         -1.5150    1.3020   -1.5760 h1        1 FHN      0.085700
     20 HC         -1.4330    2.3790    0.5620 ho        1 FHN      0.455000
     21 H5         -0.7020   -1.0470   -1.5400 hx        1 FHN      0.119200
     22 H71C       -3.2070   -0.3980   -1.2830 h1        1 FHN      0.090200
     23 H72C       -2.7740   -2.1000   -0.7410 h1        1 FHN      0.090200
     24 HN1        -0.8850   -0.8480    1.4240 hn        1 FHN      0.475300
     25 HN2        -0.4770   -2.2130    0.5300 hn        1 FHN      0.475300
     26 H7         -3.3860    0.1100    0.8900 ho        1 FHN      0.444000
     27 H61C        1.5640   -1.1990   -1.5000 h1        1 FHN      0.090200
     28 H62C        2.9410   -1.3270   -0.2990 h1        1 FHN      0.090200
     29 H6          2.3250   -3.4030   -0.0920 ho        1 FHN      0.444000
@<TRIPOS>BOND
     1    1    2 1   
     2    1   14 1   
     3    2    3 1   
     4    2   11 1   
     5    2   15 1   
     6    3    4 1   
     7    3    5 1   
     8    3   16 1   
     9    4   18 1   
    10    5    6 1   
    11    5    7 1   
    12    5   19 1   
    13    6   20 1   
    14    7    8 1   
    15    7   10 1   
    16    7   21 1   
    17    8    9 1   
    18    8   22 1   
    19    8   23 1   
    20    9   26 1   
    21   10   11 1   
    22   10   24 1   
    23   10   25 1   
    24   11   12 1   
    25   11   17 1   
    26   12   13 1   
    27   12   27 1   
    28   12   28 1   
    29   13   29 1   
@<TRIPOS>SUBSTRUCTURE
     1 FHN         1 TEMP              0 ****  ****    0 ROOT
