@<TRIPOS>MOLECULE
FHN
   29    29     1     0     0
SMALL
bcc


@<TRIPOS>ATOM
      1 O2         -2.7530    0.8300   -0.3860 oh        1 FHN     -0.599300
      2 C2         -1.3670    0.8450   -0.4080 c3        1 FHN      0.115100
      3 C3         -0.8690    0.7960    1.0100 c3        1 FHN      0.106100
      4 O3         -1.3230    2.0440    1.7160 oh        1 FHN     -0.588800
      5 C4          0.5350    0.7070    1.1110 c3        1 FHN      0.115100
      6 O4          1.1180    2.0020    0.6510 oh        1 FHN     -0.599300
      7 C5          1.1170   -0.3450    0.3360 c3        1 FHN      0.092000
      8 C7          2.6630   -0.2050    0.4040 c3        1 FHN      0.117400
      9 O7          3.2330   -1.4540    0.4590 oh        1 FHN     -0.620800
     10 N           0.6960   -0.3410   -1.1010 n4        1 FHN     -0.742000
     11 C1         -0.8590   -0.3640   -1.3230 c3        1 FHN      0.092000
     12 C6         -1.3940   -1.5460   -0.9050 c3        1 FHN      0.117400
     13 O6         -2.4930   -1.8420   -1.6620 oh        1 FHN     -0.620800
     14 H2         -3.0960    1.6130   -0.8720 ho        1 FHN      0.448500
     15 HA         -1.0690    1.6990   -0.8200 h1        1 FHN      0.093700
     16 H3         -1.2880   -0.0270    1.4830 h1        1 FHN      0.078700
     17 H1         -1.0780   -0.1970   -2.2730 hx        1 FHN      0.112200
     18 HB         -1.7790    1.8100    2.5110 ho        1 FHN      0.446000
     19 H4          0.7840    0.5670    2.0850 h1        1 FHN      0.093700
     20 HC          1.2970    2.5220    1.3660 ho        1 FHN      0.448500
     21 H5          0.8640   -1.2010    0.7310 hx        1 FHN      0.112200
     22 H71C        2.9150    0.3110    1.2230 h1        1 FHN      0.083950
     23 H72C        2.9860    0.2700   -0.3960 h1        1 FHN      0.083950
     24 HN1         1.0390    0.4250   -1.5060 hn        1 FHN      0.476300
     25 HN2         1.0640   -1.0840   -1.5170 hn        1 FHN      0.476300
     26 H7          4.0830   -1.3790    0.6630 ho        1 FHN      0.446500
     27 H61C       -0.7290   -2.2590   -1.0040 h1        1 FHN      0.083950
     28 H62C       -1.6690   -1.4670    0.0850 h1        1 FHN      0.083950
     29 H6         -2.6270   -2.7310   -1.6600 ho        1 FHN      0.446500
@<TRIPOS>BOND
     1    1    2 1   
     2    1   14 1   
     3    2    3 1   
     4    2   11 1   
     5    2   15 1   
     6    3    4 1   
     7    3    5 1   
     8    3   16 1   
     9    4   18 1   
    10    5    6 1   
    11    5    7 1   
    12    5   19 1   
    13    6   20 1   
    14    7    8 1   
    15    7   10 1   
    16    7   21 1   
    17    8    9 1   
    18    8   22 1   
    19    8   23 1   
    20    9   26 1   
    21   10   11 1   
    22   10   24 1   
    23   10   25 1   
    24   11   12 1   
    25   11   17 1   
    26   12   13 1   
    27   12   27 1   
    28   12   28 1   
    29   13   29 1   
@<TRIPOS>SUBSTRUCTURE
     1 FHN         1 TEMP              0 ****  ****    0 ROOT
