@<TRIPOS>MOLECULE
FHN
   29    29     1     0     0
SMALL
bcc


@<TRIPOS>ATOM
      1 O2          0.0810   -0.0770    0.3970 oh        1 FHN     -0.602800
      2 C2          1.4780   -0.0150    0.2070 c3        1 FHN      0.115600
      3 C3          2.1100    0.0100    1.6130 c3        1 FHN      0.106100
      4 O3          1.8570    1.2610    2.2190 oh        1 FHN     -0.589800
      5 C4          3.6410   -0.0980    1.5180 c3        1 FHN      0.115600
      6 O4          4.1890    1.0060    0.8180 oh        1 FHN     -0.602800
      7 C5          4.0480   -1.3650    0.7410 c3        1 FHN      0.071500
      8 C7          5.5910   -1.4450    0.6140 c3        1 FHN      0.121400
      9 O7          6.0530   -0.5710   -0.3840 oh        1 FHN     -0.607800
     10 N           3.4210   -1.3870   -0.6220 ny        1 FHN     -0.742000
     11 C1          1.9300   -1.2530   -0.6040 c3        1 FHN      0.071500
     12 C6          1.2460   -2.5380   -0.0860 c3        1 FHN      0.121400
     13 O6          1.7710   -3.6380   -0.7980 oh        1 FHN     -0.607800
     14 H2         -0.3420    0.4100   -0.3240 ho        1 FHN      0.449500
     15 HA          1.7800    0.9220   -0.3410 h1        1 FHN      0.093700
     16 H3          1.6920   -0.8270    2.2380 h1        1 FHN      0.078700
     17 H1          1.6190   -1.1070   -1.6830 hx        1 FHN      0.112700
     18 HB          0.9030    1.3130    2.3840 ho        1 FHN      0.447000
     19 H4          4.0750   -0.1520    2.5570 h1        1 FHN      0.093700
     20 HC          3.9250    1.8090    1.2950 ho        1 FHN      0.449500
     21 H5          3.6760   -2.2690    1.3080 hx        1 FHN      0.112700
     22 H71C        6.0350   -1.2220    1.6190 h1        1 FHN      0.088700
     23 H72C        5.9000   -2.4730    0.2780 h1        1 FHN      0.088700
     24 HN1         3.6590   -2.2800   -1.0780 hn        1 FHN      0.474300
     25 HN2         3.8380   -0.6100   -1.1580 hn        1 FHN      0.474300
     26 H7          6.1270    0.3180   -0.0040 ho        1 FHN      0.444000
     27 H61C        1.4790   -2.7060    1.0000 h1        1 FHN      0.088700
     28 H62C        0.1380   -2.4150   -0.2090 h1        1 FHN      0.088700
     29 H6          1.0630   -4.0350   -1.3210 ho        1 FHN      0.444000
@<TRIPOS>BOND
     1    1    2 1   
     2    1   14 1   
     3    2    3 1   
     4    2   11 1   
     5    2   15 1   
     6    3    4 1   
     7    3    5 1   
     8    3   16 1   
     9    4   18 1   
    10    5    6 1   
    11    5    7 1   
    12    5   19 1   
    13    6   20 1   
    14    7    8 1   
    15    7   10 1   
    16    7   21 1   
    17    8    9 1   
    18    8   22 1   
    19    8   23 1   
    20    9   26 1   
    21   10   11 1   
    22   10   24 1   
    23   10   25 1   
    24   11   12 1   
    25   11   17 1   
    26   12   13 1   
    27   12   27 1   
    28   12   28 1   
    29   13   29 1   
@<TRIPOS>SUBSTRUCTURE
     1 FHN         1 TEMP              0 ****  ****    0 ROOT
