@<TRIPOS>MOLECULE
FHO
   23    22     1     0     0
SMALL
bcc


@<TRIPOS>ATOM
      1 N           1.9210    1.8160    0.4960 n3        1 FHO     -0.891800
      2 CA          1.9850    0.3600    0.4910 c3        1 FHO      0.016500
      3 CB          0.8950   -0.2870   -0.3630 c3        1 FHO     -0.062400
      4 CG         -0.4920   -0.0490    0.1950 c3        1 FHO     -0.104400
      5 CD         -1.5280   -0.7170   -0.7030 c3        1 FHO      0.060000
      6 NE         -2.9400   -0.4780   -0.3810 n         1 FHO     -0.301300
      7 OZ         -3.3700   -1.3260    0.5630 oh        1 FHO     -0.429100
      8 CZ         -3.3370    0.8700   -0.2090 c         1 FHO      0.614900
      9 OH         -4.3400    1.1850    0.4480 o         1 FHO     -0.592100
     10 C           3.3660   -0.2240    0.0360 c         1 FHO      0.887600
     11 O           4.2970    0.5920   -0.2220 o         1 FHO     -0.841800
     12 OXT         3.4740   -1.4790   -0.0300 o         1 FHO     -0.841800
     13 HN1         2.7520    2.1470    0.9590 hn        1 FHO      0.330800
     14 HN2         1.9890    2.1370   -0.4550 hn        1 FHO      0.330800
     15 HA          1.8370    0.0280    1.5600 h1        1 FHO      0.042700
     16 HB1C        0.9520    0.1000   -1.4140 hc        1 FHO      0.048700
     17 HB2C        1.1140   -1.3890   -0.3960 hc        1 FHO      0.048700
     18 HG1C       -0.5610   -0.4680    1.2320 hc        1 FHO      0.049200
     19 HG2C       -0.6920    1.0520    0.2650 hc        1 FHO      0.049200
     20 HD1C       -1.4030   -0.3520   -1.7610 h1        1 FHO      0.064200
     21 HD2C       -1.3660   -1.8310   -0.6870 h1        1 FHO      0.064200
     22 HZ         -2.7530    1.5940   -0.8220 h5        1 FHO      0.041200
     23 H2         -4.3320   -1.4090    0.4160 ho        1 FHO      0.415000
@<TRIPOS>BOND
     1    1    2 1   
     2    1   13 1   
     3    1   14 1   
     4    2    3 1   
     5    2   10 1   
     6    2   15 1   
     7    3    4 1   
     8    3   16 1   
     9    3   17 1   
    10    4    5 1   
    11    4   18 1   
    12    4   19 1   
    13    5    6 1   
    14    5   20 1   
    15    5   21 1   
    16    6    7 1   
    17    6    8 1   
    18    7   23 1   
    19    8    9 2   
    20    8   22 1   
    21   10   11 1   
    22   10   12 1   
@<TRIPOS>SUBSTRUCTURE
     1 FHO         1 TEMP              0 ****  ****    0 ROOT
