@<TRIPOS>MOLECULE
FHP
   45    44     1     0     0
SMALL
bcc


@<TRIPOS>ATOM
      1 C1          1.0020    0.8010   -3.0260 c3        1 FHP     -0.032900
      2 C2          1.3830    0.0410   -1.8400 c2        1 FHP     -0.000200
      3 C3          1.7970   -1.2400   -1.7460 c2        1 FHP     -0.287400
      4 C4          1.7770   -1.9090   -0.4100 c3        1 FHP      0.012800
      5 C5          0.3390   -2.1070    0.0560 c3        1 FHP     -0.098200
      6 C6          0.2030   -1.9990    1.5250 c2        1 FHP     -0.145200
      7 C7         -0.7960   -1.3560    2.1520 c2        1 FHP     -0.143400
      8 C8         -0.8400   -1.2900    3.6430 c3        1 FHP     -0.027200
      9 C9         -0.3690    0.0630    4.1470 c3        1 FHP     -0.059200
     10 C10        -0.4320    0.1730    5.6210 c2        1 FHP     -0.141200
     11 C11         0.0070    1.2420    6.3060 c2        1 FHP     -0.167400
     12 C12        -0.0770    1.3170    7.7840 c3        1 FHP     -0.047900
     13 C13         0.6070    2.4150    5.6270 c3        1 FHP     -0.047900
     14 C14        -1.9070   -0.6820    1.4380 c3        1 FHP     -0.094900
     15 C15         2.1600   -2.0930   -2.8940 c3        1 FHP      0.000100
     16 O1          1.6960    2.0240   -3.1260 oh        1 FHP     -0.662800
     17 O1A        -0.7760    2.6690   -2.5590 o         1 FHP     -0.928167
     18 O2A        -1.4530    0.6860   -4.0260 o         1 FHP     -0.928167
     19 O3A        -1.1730    0.4010   -1.5040 o         1 FHP     -0.928167
     20 PA         -0.8110    1.1700   -2.7570 p5        1 FHP      1.196700
     21 H1          1.1350    0.2620   -3.9900 h1        1 FHP      0.043700
     22 H2          1.1680    0.5960   -0.9050 ha        1 FHP      0.118000
     23 H41         2.3300   -1.2760    0.3360 hc        1 FHP     -0.005300
     24 H42         2.3060   -2.8980   -0.4510 hc        1 FHP     -0.005300
     25 H51        -0.0250   -3.1180   -0.2690 hc        1 FHP      0.096200
     26 H52        -0.3180   -1.3360   -0.4670 hc        1 FHP      0.096200
     27 H6          1.0050   -2.4760    2.1140 ha        1 FHP      0.073000
     28 H81        -0.1980   -2.0940    4.0940 hc        1 FHP      0.018200
     29 H82        -1.8920   -1.4710    3.9930 hc        1 FHP      0.018200
     30 H91        -1.0000    0.8710    3.6800 hc        1 FHP      0.068200
     31 H92         0.6850    0.2440    3.7970 hc        1 FHP      0.068200
     32 H10        -0.8730   -0.6860    6.1530 ha        1 FHP      0.107000
     33 H121        0.9420    1.4660    8.2220 hc        1 FHP      0.032367
     34 H122       -0.7160    2.1830    8.0900 hc        1 FHP      0.032367
     35 H123       -0.5160    0.3860    8.2200 hc        1 FHP      0.032367
     36 H131       -0.0780    2.7950    4.8270 hc        1 FHP      0.032367
     37 H132        0.8090    3.2450    6.3470 hc        1 FHP      0.032367
     38 H133        1.5710    2.1270    5.1370 hc        1 FHP      0.032367
     39 H141       -2.6560   -1.4400    1.0990 hc        1 FHP      0.067700
     40 H142       -2.4260    0.0490    2.1050 hc        1 FHP      0.067700
     41 H143       -1.5470   -0.1330    0.5100 hc        1 FHP      0.067700
     42 H151        2.2610   -1.4900   -3.8290 hc        1 FHP      0.003033
     43 H152        3.1340   -2.6160   -2.7060 hc        1 FHP      0.003033
     44 H153        1.3820   -2.8790   -3.0680 hc        1 FHP      0.003033
     45 HO1         1.0710    2.7320   -2.8670 ho        1 FHP      0.429000
@<TRIPOS>BOND
     1    1    2 1   
     2    1   16 1   
     3    1   20 1   
     4    1   21 1   
     5    2    3 2   
     6    2   22 1   
     7    3    4 1   
     8    3   15 1   
     9    4    5 1   
    10    4   23 1   
    11    4   24 1   
    12    5    6 1   
    13    5   25 1   
    14    5   26 1   
    15    6    7 2   
    16    6   27 1   
    17    7    8 1   
    18    7   14 1   
    19    8    9 1   
    20    8   28 1   
    21    8   29 1   
    22    9   10 1   
    23    9   30 1   
    24    9   31 1   
    25   10   11 2   
    26   10   32 1   
    27   11   12 1   
    28   11   13 1   
    29   12   33 1   
    30   12   34 1   
    31   12   35 1   
    32   13   36 1   
    33   13   37 1   
    34   13   38 1   
    35   14   39 1   
    36   14   40 1   
    37   14   41 1   
    38   15   42 1   
    39   15   43 1   
    40   15   44 1   
    41   16   45 1   
    42   17   20 1   
    43   18   20 1   
    44   19   20 1   
@<TRIPOS>SUBSTRUCTURE
     1 FHP         1 TEMP              0 ****  ****    0 ROOT
