@<TRIPOS>MOLECULE
FHP
   45    41     1     0     0
SMALL
bcc


@<TRIPOS>ATOM
      1 C1          0.3850    4.9200    1.9030 c3        1 FHP     -0.563000
      2 C2         -0.2030    4.8160    0.5060 c2        1 FHP     -0.044000
      3 C3         -0.7180    3.6080    0.0570 c1        1 FHP     -0.266000
      4 C4         -0.6940    2.3780    0.9690 c2        1 FHP     -0.093000
      5 C5         -0.5760    1.0930    0.1040 c3        1 FHP     -0.137500
      6 C6         -1.5200    0.0090    0.6620 c2        1 FHP     -0.171500
      7 C7         -1.3170   -1.3260    0.3330 c1        1 FHP     -0.110000
      8 C8         -0.1490   -1.7240   -0.5880 c2        1 FHP     -0.093000
      9 C9          0.0530   -3.2510   -0.5300 c3        1 FHP     -0.137500
     10 C10         1.0380   -3.6820   -1.6320 c2        1 FHP     -0.171500
     11 C11         1.4930   -4.9840   -1.6800 c1        1 FHP     -0.110000
     12 C12         1.0210   -5.9940   -0.6440 c2        1 FHP     -0.245000
     13 C13         2.4740   -5.4130   -2.7760 c3        1 FHP     -0.170500
     14 C14        -2.2490   -2.3940    0.8840 c3        1 FHP     -0.170500
     15 C15        -1.3040    3.5070   -1.3370 c3        1 FHP     -0.133000
     16 O1         -0.6500    4.9400    2.8470 oh        1 FHP     -0.388000
     17 O1A         0.4280    7.6430    2.1000 o         1 FHP     -0.932500
     18 O2A         2.2620    6.5850    0.8340 o         1 FHP     -0.932500
     19 O3A         2.2020    6.4080    3.2910 o         1 FHP     -0.932500
     20 PA          1.3620    6.4540    2.0380 p5        1 FHP      1.604500
     21 H1          0.9600    4.1550    2.0700 h1        1 FHP      0.095000
     22 H2         -0.2190    5.5980   -0.0740 ha        1 FHP      0.167000
     23 H41         0.0700    2.4350    1.5710 ha        1 FHP      0.065000
     24 H42        -1.5210    2.3430    1.4930 ha        1 FHP      0.065000
     25 H51        -0.8240    1.2970   -0.8190 hc        1 FHP      0.106000
     26 H52         0.3410    0.7680    0.1290 hc        1 FHP      0.106000
     27 H6         -2.2650    0.2620    1.2480 ha        1 FHP      0.084500
     28 H81         0.6670   -1.2760   -0.2910 ha        1 FHP      0.065000
     29 H82        -0.3520   -1.4560   -1.5060 ha        1 FHP      0.065000
     30 H91         0.4130   -3.4980    0.3420 hc        1 FHP      0.106000
     31 H92        -0.8080   -3.7000   -0.6680 hc        1 FHP      0.106000
     32 H10         1.3370   -3.0420   -2.2890 ha        1 FHP      0.084500
     33 H121        0.0440   -6.0490   -0.6620 ha        1 FHP      0.123667
     34 H122        1.4030   -6.8770   -0.8490 ha        1 FHP      0.123667
     35 H123        1.3160   -5.7110    0.2450 ha        1 FHP      0.123667
     36 H131        2.0950   -5.2050   -3.6510 hc        1 FHP      0.061000
     37 H132        2.6370   -6.3900   -2.7100 hc        1 FHP      0.061000
     38 H133        3.3180   -4.9340   -2.6640 hc        1 FHP      0.061000
     39 H141       -1.7460   -2.9960    1.4670 hc        1 FHP      0.061000
     40 H142       -2.9670   -1.9690    1.3950 hc        1 FHP      0.061000
     41 H143       -2.6370   -2.9070    0.1390 hc        1 FHP      0.061000
     42 H151       -0.6280    3.1480   -1.9510 hc        1 FHP      0.039000
     43 H152       -2.0770    2.9140   -1.3210 hc        1 FHP      0.039000
     44 H153       -1.5820    4.4010   -1.6410 hc        1 FHP      0.039000
     45 HO1        -0.3110    5.0950    3.6580 ho        1 FHP      0.231000
@<TRIPOS>BOND
     1    1    2 1   
     2    1   16 1   
     3    1   20 1   
     4    1   21 1   
     5    2    3 1   
     6    2   22 1   
     7    3   15 1   
     8    4    5 1   
     9    4   23 1   
    10    4   24 1   
    11    5    6 1   
    12    5   25 1   
    13    5   26 1   
    14    6    7 1   
    15    6   27 1   
    16    7   14 1   
    17    8    9 1   
    18    8   28 1   
    19    8   29 1   
    20    9   10 1   
    21    9   30 1   
    22    9   31 1   
    23   10   11 1   
    24   10   32 1   
    25   11   13 1   
    26   12   33 1   
    27   12   34 1   
    28   12   35 1   
    29   13   36 1   
    30   13   37 1   
    31   13   38 1   
    32   14   39 1   
    33   14   40 1   
    34   14   41 1   
    35   15   42 1   
    36   15   43 1   
    37   15   44 1   
    38   16   45 1   
    39   17   20 1   
    40   18   20 1   
    41   19   20 1   
@<TRIPOS>SUBSTRUCTURE
     1 FHP         1 TEMP              0 ****  ****    0 ROOT
