@<TRIPOS>MOLECULE
FHU
   35    36     1     0     0
SMALL
bcc


@<TRIPOS>ATOM
      1 N1          1.9390   -0.6420    2.5290 n         1 FHU     -0.502900
      2 C2          1.6680   -0.6420    3.8970 c         1 FHU      0.807500
      3 N3          0.4890   -0.0210    4.3580 n         1 FHU     -0.595500
      4 C4         -0.4040    0.6630    3.5390 c         1 FHU      0.688500
      5 C5         -0.1740    0.6410    2.0070 c3        1 FHU      0.094300
      6 C6          1.3290    0.3280    1.6540 c3        1 FHU      0.255500
      7 O2          2.4030   -1.2360    4.7240 o         1 FHU     -0.694500
      8 O4         -1.3570    1.2570    4.0670 o         1 FHU     -0.610500
      9 C1'        -1.1320   -0.4500    1.4110 c3        1 FHU      0.109100
     10 C2'        -2.3100    0.1450    0.6010 c3        1 FHU      0.109100
     11 O2'        -3.4910   -0.5620    0.9230 oh        1 FHU     -0.619800
     12 C3'        -1.8520   -0.0040   -0.8710 c3        1 FHU      0.128100
     13 C4'        -0.7670   -1.0970   -0.8370 c3        1 FHU      0.050100
     14 O3'        -2.9470   -0.3980   -1.6600 oh        1 FHU     -0.676800
     15 O4'        -0.4130   -1.3200    0.5550 os        1 FHU     -0.439600
     16 C5'         0.5140   -0.7380   -1.6250 c3        1 FHU      0.226400
     17 O5'         0.3920   -1.0640   -2.9450 os        1 FHU     -0.551200
     18 P           0.1510    0.3180   -3.9880 p5        1 FHU      1.331900
     19 OP1         1.2160    1.2500   -3.4800 o         1 FHU     -0.927833
     20 OP2         0.2970   -0.2440   -5.3660 o         1 FHU     -0.927833
     21 OP3        -1.2480    0.6710   -3.5250 o         1 FHU     -0.927833
     22 F5         -0.4430    1.9110    1.5200 f         1 FHU     -0.202300
     23 O6          2.0650    1.5510    1.7460 oh        1 FHU     -0.648800
     24 HN1         2.8620   -0.9250    2.2800 hn        1 FHU      0.331500
     25 HN3         0.3170   -0.0640    5.3380 hn        1 FHU      0.331500
     26 H6          1.3750   -0.0800    0.5920 h2        1 FHU      0.154700
     27 H1'        -1.5100   -1.0840    2.2590 h1        1 FHU      0.066700
     28 H2'        -2.5130    1.2130    0.8750 h1        1 FHU      0.077700
     29 HO2'       -3.6660   -1.1800    0.2000 ho        1 FHU      0.427000
     30 H3'        -1.4330    0.9700   -1.2500 h1        1 FHU      0.121700
     31 H4'        -1.1790   -2.0740   -1.2050 h1        1 FHU      0.068700
     32 HO3'       -2.6890   -0.1700   -2.5870 ho        1 FHU      0.511000
     33 H5'         0.7420    0.3600   -1.4920 h1        1 FHU     -0.006300
     34 H5''        1.3530   -1.3430   -1.1610 h1        1 FHU     -0.006300
     35 HO6         1.9150    2.0180    0.9110 ho        1 FHU      0.448000
@<TRIPOS>BOND
     1    1    2 1   
     2    1    6 1   
     3    1   24 1   
     4    2    3 1   
     5    2    7 2   
     6    3    4 1   
     7    3   25 1   
     8    4    5 1   
     9    4    8 2   
    10    5    6 1   
    11    5    9 1   
    12    5   22 1   
    13    6   23 1   
    14    6   26 1   
    15    9   10 1   
    16    9   15 1   
    17    9   27 1   
    18   10   11 1   
    19   10   12 1   
    20   10   28 1   
    21   11   29 1   
    22   12   13 1   
    23   12   14 1   
    24   12   30 1   
    25   13   15 1   
    26   13   16 1   
    27   13   31 1   
    28   14   32 1   
    29   16   17 1   
    30   16   33 1   
    31   16   34 1   
    32   17   18 1   
    33   18   19 1   
    34   18   20 1   
    35   18   21 1   
    36   23   35 1   
@<TRIPOS>SUBSTRUCTURE
     1 FHU         1 TEMP              0 ****  ****    0 ROOT
