@<TRIPOS>MOLECULE
FHV
   31    32     1     0     0
SMALL
bcc


@<TRIPOS>ATOM
      1 C01         0.0050    0.1700   -0.0820 c3        1 FHV     -0.053800
      2 C02         1.4800    0.0620    0.0090 ca        1 FHV     -0.054300
      3 C03         2.1040   -0.0490    1.2560 ca        1 FHV     -0.153000
      4 C04         3.4890   -0.1680    1.3290 ca        1 FHV     -0.106000
      5 C05         4.2720   -0.1720    0.1780 ca        1 FHV     -0.142000
      6 C06         3.6590   -0.0610   -1.0870 ca        1 FHV      0.066600
      7 N07         4.3970    0.0110   -2.2850 n         1 FHV     -0.456100
      8 C08         5.6270   -0.6510   -2.4820 c         1 FHV      0.752100
      9 O09         6.2740   -1.1550   -1.5350 o         1 FHV     -0.619100
     10 N10         6.1100   -0.7770   -3.8090 n         1 FHV     -0.442800
     11 C11         7.4770   -1.2630   -3.9770 c3        1 FHV      0.069000
     12 C12         8.0840   -0.5700   -5.2060 c3        1 FHV     -0.091400
     13 C13         6.9870    0.3130   -5.7890 c3        1 FHV     -0.091400
     14 C14         5.7990    0.2280   -4.8150 c3        1 FHV      0.069000
     15 C15         2.2500    0.0520   -1.1550 ca        1 FHV     -0.183000
     16 H011       -0.2990    0.7810   -0.9670 hc        1 FHV      0.044033
     17 H012       -0.4180    0.6440    0.8370 hc        1 FHV      0.044033
     18 H013       -0.4450   -0.8490   -0.1890 hc        1 FHV      0.044033
     19 H03         1.4990   -0.0430    2.1740 ha        1 FHV      0.132000
     20 H15         1.7420    0.1390   -2.1280 ha        1 FHV      0.127000
     21 H04         3.9790   -0.2580    2.3110 ha        1 FHV      0.134000
     22 H05         5.3660   -0.2750    0.2630 ha        1 FHV      0.170000
     23 H07         3.8460    0.1900   -3.0980 hn        1 FHV      0.308500
     24 H111        7.4220   -2.3760   -4.1290 h1        1 FHV      0.054950
     25 H112        8.0960   -1.0710   -3.0560 h1        1 FHV      0.054950
     26 H141        5.6100    1.2400   -4.3610 h1        1 FHV      0.054950
     27 H142        4.8660   -0.0920   -5.3550 h1        1 FHV      0.054950
     28 H121        8.4250   -1.3310   -5.9500 hc        1 FHV      0.053700
     29 H122        8.9710    0.0400   -4.9080 hc        1 FHV      0.053700
     30 H131        7.3300    1.3710   -5.8890 hc        1 FHV      0.053700
     31 H132        6.6810   -0.0470   -6.8010 hc        1 FHV      0.053700
@<TRIPOS>BOND
     1    1    2 1   
     2    1   16 1   
     3    1   17 1   
     4    1   18 1   
     5    2    3 ar  
     6    2   15 ar  
     7    3    4 ar  
     8    3   19 1   
     9    4    5 ar  
    10    4   21 1   
    11    5    6 ar  
    12    5   22 1   
    13    6    7 1   
    14    6   15 ar  
    15    7    8 1   
    16    7   23 1   
    17    8    9 2   
    18    8   10 1   
    19   10   11 1   
    20   10   14 1   
    21   11   12 1   
    22   11   24 1   
    23   11   25 1   
    24   12   13 1   
    25   12   28 1   
    26   12   29 1   
    27   13   14 1   
    28   13   30 1   
    29   13   31 1   
    30   14   26 1   
    31   14   27 1   
    32   15   20 1   
@<TRIPOS>SUBSTRUCTURE
     1 FHV         1 TEMP              0 ****  ****    0 ROOT
