@<TRIPOS>MOLECULE
FHV
   31    32     1     0     0
SMALL
bcc


@<TRIPOS>ATOM
      1 C01         0.0060    0.1640   -0.0770 c3        1 FHV     -0.053800
      2 C02         1.4810    0.0470    0.0110 ca        1 FHV     -0.054300
      3 C03         2.1090   -0.0390    1.2580 ca        1 FHV     -0.153000
      4 C04         3.4950   -0.1360    1.3310 ca        1 FHV     -0.106000
      5 C05         4.2760   -0.1440    0.1780 ca        1 FHV     -0.142000
      6 C06         3.6590   -0.0600   -1.0870 ca        1 FHV      0.066600
      7 N07         4.3950    0.0040   -2.2880 ns        1 FHV     -0.456100
      8 C08         5.6330   -0.6430   -2.4770 c         1 FHV      0.752100
      9 O09         6.2890   -1.1230   -1.5240 o         1 FHV     -0.619100
     10 N10         6.1150   -0.7820   -3.8040 n         1 FHV     -0.442800
     11 C11         7.4890   -1.2500   -3.9670 c3        1 FHV      0.069000
     12 C12         8.0830   -0.5690   -5.2080 c3        1 FHV     -0.091400
     13 C13         6.9720    0.2900   -5.8020 c3        1 FHV     -0.091400
     14 C14         5.7870    0.2030   -4.8240 c3        1 FHV      0.069000
     15 C15         2.2490    0.0310   -1.1540 ca        1 FHV     -0.183000
     16 H011       -0.3800   -0.3170   -1.0100 hc        1 FHV      0.044367
     17 H012       -0.2890    1.2440   -0.0920 hc        1 FHV      0.044367
     18 H013       -0.4860   -0.3220    0.8010 hc        1 FHV      0.044367
     19 H03         1.5050   -0.0330    2.1770 ha        1 FHV      0.132000
     20 H15         1.7380    0.0940   -2.1270 ha        1 FHV      0.127000
     21 H04         3.9880   -0.2070    2.3120 ha        1 FHV      0.134000
     22 H05         5.3720   -0.2300    0.2630 ha        1 FHV      0.170000
     23 H07         3.8390    0.1630   -3.1020 hn        1 FHV      0.308500
     24 H111        7.4500   -2.3660   -4.1010 h1        1 FHV      0.054950
     25 H112        8.1070   -1.0350   -3.0510 h1        1 FHV      0.054950
     26 H141        4.8580   -0.1390   -5.3570 h1        1 FHV      0.054950
     27 H142        5.5850    1.2190   -4.3850 h1        1 FHV      0.054950
     28 H121        8.9620    0.0590   -4.9220 hc        1 FHV      0.053700
     29 H122        8.4330   -1.3350   -5.9410 hc        1 FHV      0.053700
     30 H131        7.3000    1.3510   -5.9200 hc        1 FHV      0.053700
     31 H132        6.6690   -0.0900   -6.8080 hc        1 FHV      0.053700
@<TRIPOS>BOND
     1    1    2 1   
     2    1   16 1   
     3    1   17 1   
     4    1   18 1   
     5    2    3 ar  
     6    2   15 ar  
     7    3    4 ar  
     8    3   19 1   
     9    4    5 ar  
    10    4   21 1   
    11    5    6 ar  
    12    5   22 1   
    13    6    7 1   
    14    6   15 ar  
    15    7    8 1   
    16    7   23 1   
    17    8    9 2   
    18    8   10 1   
    19   10   11 1   
    20   10   14 1   
    21   11   12 1   
    22   11   24 1   
    23   11   25 1   
    24   12   13 1   
    25   12   28 1   
    26   12   29 1   
    27   13   14 1   
    28   13   30 1   
    29   13   31 1   
    30   14   26 1   
    31   14   27 1   
    32   15   20 1   
@<TRIPOS>SUBSTRUCTURE
     1 FHV         1 TEMP              0 ****  ****    0 ROOT
