@<TRIPOS>MOLECULE
FI0
   46    46     1     0     0
SMALL
bcc


@<TRIPOS>ATOM
      1 N11         0.0190   -0.3840    0.1050 n4        1 FI0     -0.757000
      2 C12         1.4890   -0.0860    0.1520 c3        1 FI0      0.103800
      3 C13         2.0180    0.0090    1.5900 c3        1 FI0     -0.088700
      4 C14         1.7780   -1.2750    2.3520 c3        1 FI0     -0.125100
      5 C15         3.5090    0.3340    1.5070 c3        1 FI0     -0.075400
      6 C16        -0.4920   -0.4770   -1.2900 c3        1 FI0      0.094800
      7 C17        -2.0270   -0.6770   -1.3610 c3        1 FI0      0.117100
      8 C18         4.0180    0.9390    2.7910 c3        1 FI0     -0.103100
      9 O18        -2.5660    0.2770   -0.4700 oh        1 FI0     -0.591800
     10 C19        -2.5470   -0.3970   -2.7970 c3        1 FI0      0.080500
     11 N20        -2.2930   -1.5390   -3.7370 n4        1 FI0     -0.844600
     12 C32        -4.0530   -0.0620   -2.7670 c3        1 FI0     -0.049100
     13 C33        -5.2220   -1.0790   -4.7320 ca        1 FI0     -0.133500
     14 C34        -5.8080   -0.9710   -5.9910 ca        1 FI0     -0.105000
     15 C35        -5.7980    0.2540   -6.6650 ca        1 FI0     -0.078000
     16 C36        -5.2040    1.3700   -6.0740 ca        1 FI0     -0.105000
     17 C37        -4.6180    1.2660   -4.8130 ca        1 FI0     -0.133500
     18 C38        -4.6190    0.0400   -4.1370 ca        1 FI0     -0.192300
     19 H12         1.6590    0.8920   -0.3830 hx        1 FI0      0.107200
     20 H12A        2.0270   -0.9100   -0.3980 hx        1 FI0      0.107200
     21 H13         1.4990    0.8590    2.1190 hc        1 FI0      0.081700
     22 H14         2.1160   -2.1640    1.7660 hc        1 FI0      0.059367
     23 H14A        2.3610   -1.2570    3.3090 hc        1 FI0      0.059367
     24 H14B        0.7020   -1.3990    2.6230 hc        1 FI0      0.059367
     25 H15         3.6920    1.0560    0.6670 hc        1 FI0      0.057200
     26 H15A        4.0800   -0.6050    1.2770 hc        1 FI0      0.057200
     27 H16         0.0250   -1.3370   -1.8000 hx        1 FI0      0.111200
     28 H16A       -0.2190    0.4870   -1.8120 hx        1 FI0      0.111200
     29 H17        -2.3040   -1.7210   -1.0360 h1        1 FI0      0.075700
     30 H18         5.1090    1.1650    2.6910 hc        1 FI0      0.058033
     31 H18A        3.8850    0.2370    3.6500 hc        1 FI0      0.058033
     32 H18B        3.4830    1.8910    3.0250 hc        1 FI0      0.058033
     33 HO18       -3.4950    0.0570   -0.2930 ho        1 FI0      0.468000
     34 H19        -2.0020    0.5010   -3.2250 hx        1 FI0      0.129700
     35 HN20       -2.6900   -2.4080   -3.3650 hn        1 FI0      0.471467
     36 H32        -4.1620    0.9260   -2.2360 hc        1 FI0      0.095700
     37 H32A       -4.6030   -0.8390   -2.1710 hc        1 FI0      0.095700
     38 H35        -6.2760    0.3410   -7.6570 ha        1 FI0      0.175000
     39 H36        -5.2130    2.3410   -6.5970 ha        1 FI0      0.169500
     40 H37        -4.1770    2.1590   -4.3420 ha        1 FI0      0.135500
     41 H2         -0.1580   -1.2630    0.6070 hn        1 FI0      0.468800
     42 H1         -2.7760   -1.3290   -4.6340 hn        1 FI0      0.471467
     43 H33        -5.2890   -2.0310   -4.1840 ha        1 FI0      0.135500
     44 H112       -0.4960    0.3640    0.5980 hn        1 FI0      0.468800
     45 H203       -1.2950   -1.6640   -3.9100 hn        1 FI0      0.471467
     46 H34        -6.2980   -1.8460   -6.4490 ha        1 FI0      0.169500
@<TRIPOS>BOND
     1    1    2 1   
     2    1    6 1   
     3    1   41 1   
     4    1   44 1   
     5    2    3 1   
     6    2   19 1   
     7    2   20 1   
     8    3    4 1   
     9    3    5 1   
    10    3   21 1   
    11    4   22 1   
    12    4   23 1   
    13    4   24 1   
    14    5    8 1   
    15    5   25 1   
    16    5   26 1   
    17    6    7 1   
    18    6   27 1   
    19    6   28 1   
    20    7    9 1   
    21    7   10 1   
    22    7   29 1   
    23    8   30 1   
    24    8   31 1   
    25    8   32 1   
    26    9   33 1   
    27   10   11 1   
    28   10   12 1   
    29   10   34 1   
    30   11   35 1   
    31   11   42 1   
    32   11   45 1   
    33   12   18 1   
    34   12   36 1   
    35   12   37 1   
    36   13   14 ar  
    37   13   18 ar  
    38   13   43 1   
    39   14   15 ar  
    40   14   46 1   
    41   15   16 ar  
    42   15   38 1   
    43   16   17 ar  
    44   16   39 1   
    45   17   18 ar  
    46   17   40 1   
@<TRIPOS>SUBSTRUCTURE
     1 FI0         1 TEMP              0 ****  ****    0 ROOT
