@<TRIPOS>MOLECULE
FI0
   46    46     1     0     0
SMALL
bcc


@<TRIPOS>ATOM
      1 N11         0.0160   -0.3820    0.1080 ny        1 FI0     -0.757000
      2 C12         1.4870   -0.0910    0.1560 c3        1 FI0      0.103800
      3 C13         2.0130    0.0070    1.5950 c3        1 FI0     -0.088700
      4 C14         1.7670   -1.2730    2.3610 c3        1 FI0     -0.125100
      5 C15         3.5060    0.3260    1.5130 c3        1 FI0     -0.075400
      6 C16        -0.4930   -0.4790   -1.2870 c3        1 FI0      0.094800
      7 C17        -2.0290   -0.6730   -1.3600 c3        1 FI0      0.117100
      8 C18         4.0150    0.9330    2.7960 c3        1 FI0     -0.103100
      9 O18        -2.5650    0.2880   -0.4750 oh        1 FI0     -0.591800
     10 C19        -2.5450   -0.3970   -2.7990 c3        1 FI0      0.080500
     11 N20        -2.2960   -1.5450   -3.7330 nz        1 FI0     -0.844600
     12 C32        -4.0490   -0.0540   -2.7730 c3        1 FI0     -0.049100
     13 C33        -5.2210   -1.0730   -4.7350 ca        1 FI0     -0.133500
     14 C34        -5.8040   -0.9680   -5.9960 ca        1 FI0     -0.105000
     15 C35        -5.7860    0.2530   -6.6760 ca        1 FI0     -0.078000
     16 C36        -5.1860    1.3690   -6.0900 ca        1 FI0     -0.105000
     17 C37        -4.6030    1.2670   -4.8260 ca        1 FI0     -0.133500
     18 C38        -4.6130    0.0450   -4.1440 ca        1 FI0     -0.192300
     19 H12         1.6620    0.8840   -0.3830 hx        1 FI0      0.107200
     20 H12A        2.0220   -0.9200   -0.3890 hx        1 FI0      0.107200
     21 H13         1.4980    0.8620    2.1200 hc        1 FI0      0.081700
     22 H14         2.3490   -1.2530    3.3200 hc        1 FI0      0.059367
     23 H14A        0.6900   -1.3920    2.6310 hc        1 FI0      0.059367
     24 H14B        2.1030   -2.1650    1.7800 hc        1 FI0      0.059367
     25 H15         4.0730   -0.6160    1.2870 hc        1 FI0      0.057200
     26 H15A        3.6940    1.0440    0.6710 hc        1 FI0      0.057200
     27 H16        -0.2140    0.4820   -1.8130 hx        1 FI0      0.111200
     28 H16A        0.0200   -1.3430   -1.7930 hx        1 FI0      0.111200
     29 H17        -2.3120   -1.7130   -1.0310 h1        1 FI0      0.075700
     30 H18         3.8780    0.2350    3.6570 hc        1 FI0      0.058033
     31 H18A        5.1070    1.1540    2.6970 hc        1 FI0      0.058033
     32 H18B        3.4840    1.8880    3.0260 hc        1 FI0      0.058033
     33 HO18       -3.4960    0.0730   -0.2990 ho        1 FI0      0.468000
     34 H19        -1.9940    0.4960   -3.2300 hx        1 FI0      0.129700
     35 HN20       -1.2980   -1.6750   -3.9040 hn        1 FI0      0.471467
     36 H32        -4.1540    0.9380   -2.2470 hc        1 FI0      0.095700
     37 H32A       -4.6040   -0.8250   -2.1750 hc        1 FI0      0.095700
     38 H35        -6.2610    0.3380   -7.6680 ha        1 FI0      0.175000
     39 H36        -5.1880    2.3370   -6.6170 ha        1 FI0      0.169500
     40 H37        -4.1580    2.1600   -4.3590 ha        1 FI0      0.135500
     41 H2         -0.4970    0.3700    0.5970 hn        1 FI0      0.468800
     42 H1         -2.6980   -2.4090   -3.3570 hn        1 FI0      0.471467
     43 H33        -5.2950   -2.0220   -4.1820 ha        1 FI0      0.135500
     44 H112       -0.1660   -1.2590    0.6140 hn        1 FI0      0.468800
     45 H203       -2.7770   -1.3370   -4.6310 hn        1 FI0      0.471467
     46 H34        -6.2980   -1.8430   -6.4500 ha        1 FI0      0.169500
@<TRIPOS>BOND
     1    1    2 1   
     2    1    6 1   
     3    1   41 1   
     4    1   44 1   
     5    2    3 1   
     6    2   19 1   
     7    2   20 1   
     8    3    4 1   
     9    3    5 1   
    10    3   21 1   
    11    4   22 1   
    12    4   23 1   
    13    4   24 1   
    14    5    8 1   
    15    5   25 1   
    16    5   26 1   
    17    6    7 1   
    18    6   27 1   
    19    6   28 1   
    20    7    9 1   
    21    7   10 1   
    22    7   29 1   
    23    8   30 1   
    24    8   31 1   
    25    8   32 1   
    26    9   33 1   
    27   10   11 1   
    28   10   12 1   
    29   10   34 1   
    30   11   35 1   
    31   11   42 1   
    32   11   45 1   
    33   12   18 1   
    34   12   36 1   
    35   12   37 1   
    36   13   14 ar  
    37   13   18 ar  
    38   13   43 1   
    39   14   15 ar  
    40   14   46 1   
    41   15   16 ar  
    42   15   38 1   
    43   16   17 ar  
    44   16   39 1   
    45   17   18 ar  
    46   17   40 1   
@<TRIPOS>SUBSTRUCTURE
     1 FI0         1 TEMP              0 ****  ****    0 ROOT
