@<TRIPOS>MOLECULE
FI0
   46    46     1     0     0
SMALL
bcc


@<TRIPOS>ATOM
      1 N11         0.0180   -0.3870    0.1050 n4        1 FI0     -0.757000
      2 C12         1.4890   -0.0910    0.1520 c3        1 FI0      0.103800
      3 C13         2.0170    0.0030    1.5900 c3        1 FI0     -0.088700
      4 C14         1.7780   -1.2820    2.3510 c3        1 FI0     -0.125100
      5 C15         3.5090    0.3270    1.5080 c3        1 FI0     -0.075400
      6 C16        -0.4930   -0.4790   -1.2890 c3        1 FI0      0.094800
      7 C17        -2.0280   -0.6770   -1.3610 c3        1 FI0      0.117100
      8 C18         4.0180    0.9300    2.7930 c3        1 FI0     -0.103100
      9 O18        -2.5650    0.2790   -0.4710 oh        1 FI0     -0.591800
     10 C19        -2.5470   -0.3970   -2.7970 c3        1 FI0      0.080500
     11 N20        -2.2990   -1.5420   -3.7350 n4        1 FI0     -0.844600
     12 C32        -4.0510   -0.0550   -2.7680 c3        1 FI0     -0.049100
     13 C33        -5.2260   -1.0680   -4.7320 ca        1 FI0     -0.133500
     14 C34        -5.8100   -0.9580   -5.9920 ca        1 FI0     -0.105000
     15 C35        -5.7940    0.2660   -6.6670 ca        1 FI0     -0.078000
     16 C36        -5.1930    1.3790   -6.0780 ca        1 FI0     -0.105000
     17 C37        -4.6070    1.2730   -4.8160 ca        1 FI0     -0.133500
     18 C38        -4.6170    0.0490   -4.1380 ca        1 FI0     -0.192300
     19 H12         2.0260   -0.9150   -0.3980 hx        1 FI0      0.107200
     20 H12A        1.6590    0.8870   -0.3820 hx        1 FI0      0.107200
     21 H13         1.4990    0.8520    2.1200 hc        1 FI0      0.081700
     22 H14         2.3610   -1.2650    3.3080 hc        1 FI0      0.059367
     23 H14A        0.7010   -1.4070    2.6220 hc        1 FI0      0.059367
     24 H14B        2.1160   -2.1710    1.7640 hc        1 FI0      0.059367
     25 H15         4.0790   -0.6110    1.2760 hc        1 FI0      0.057200
     26 H15A        3.6920    1.0510    0.6690 hc        1 FI0      0.057200
     27 H16         0.0220   -1.3410   -1.8000 hx        1 FI0      0.111200
     28 H16A       -0.2170    0.4840   -1.8120 hx        1 FI0      0.111200
     29 H17        -2.3080   -1.7190   -1.0340 h1        1 FI0      0.075700
     30 H18         3.8850    0.2270    3.6510 hc        1 FI0      0.058033
     31 H18A        5.1090    1.1560    2.6930 hc        1 FI0      0.058033
     32 H18B        3.4830    1.8820    3.0280 hc        1 FI0      0.058033
     33 HO18       -3.4950    0.0620   -0.2940 ho        1 FI0      0.468000
     34 H19        -1.9980    0.4970   -3.2270 hx        1 FI0      0.129700
     35 HN20       -2.7000   -2.4080   -3.3610 hn        1 FI0      0.471467
     36 H32        -4.6050   -0.8290   -2.1720 hc        1 FI0      0.095700
     37 H32A       -4.1550    0.9340   -2.2390 hc        1 FI0      0.095700
     38 H35        -6.2700    0.3540   -7.6590 ha        1 FI0      0.175000
     39 H36        -5.1960    2.3490   -6.6020 ha        1 FI0      0.169500
     40 H37        -4.1620    2.1640   -4.3460 ha        1 FI0      0.136000
     41 H2         -0.1590   -1.2670    0.6070 hn        1 FI0      0.468800
     42 H1         -1.3010   -1.6720   -3.9080 hn        1 FI0      0.471467
     43 H33        -5.2980   -2.0180   -4.1820 ha        1 FI0      0.136000
     44 H112       -0.4960    0.3610    0.5980 hn        1 FI0      0.468800
     45 H203       -2.7810   -1.3320   -4.6320 hn        1 FI0      0.471467
     46 H34        -6.3060   -1.8310   -6.4480 ha        1 FI0      0.169500
@<TRIPOS>BOND
     1    1    2 1   
     2    1    6 1   
     3    1   41 1   
     4    1   44 1   
     5    2    3 1   
     6    2   19 1   
     7    2   20 1   
     8    3    4 1   
     9    3    5 1   
    10    3   21 1   
    11    4   22 1   
    12    4   23 1   
    13    4   24 1   
    14    5    8 1   
    15    5   25 1   
    16    5   26 1   
    17    6    7 1   
    18    6   27 1   
    19    6   28 1   
    20    7    9 1   
    21    7   10 1   
    22    7   29 1   
    23    8   30 1   
    24    8   31 1   
    25    8   32 1   
    26    9   33 1   
    27   10   11 1   
    28   10   12 1   
    29   10   34 1   
    30   11   35 1   
    31   11   42 1   
    32   11   45 1   
    33   12   18 1   
    34   12   36 1   
    35   12   37 1   
    36   13   14 ar  
    37   13   18 ar  
    38   13   43 1   
    39   14   15 ar  
    40   14   46 1   
    41   15   16 ar  
    42   15   38 1   
    43   16   17 ar  
    44   16   39 1   
    45   17   18 ar  
    46   17   40 1   
@<TRIPOS>SUBSTRUCTURE
     1 FI0         1 TEMP              0 ****  ****    0 ROOT
