@<TRIPOS>MOLECULE
FI0
   44    44     1     0     0
SMALL
bcc


@<TRIPOS>ATOM
      1 N11        -2.5940    0.6800    1.0720 n3        1 FI0     -0.810200
      2 C12        -3.5090   -0.3450    0.6060 c3        1 FI0      0.161800
      3 C13        -4.8780    0.2010    0.1720 c3        1 FI0     -0.068700
      4 C14        -4.7480    1.0880   -1.0470 c3        1 FI0     -0.094100
      5 C15        -5.8040   -0.9770   -0.1050 c3        1 FI0     -0.077400
      6 C16        -1.2550    0.2030    1.3300 c3        1 FI0      0.127800
      7 C17        -0.3480    0.0090    0.0980 c3        1 FI0      0.052100
      8 C18        -7.2580   -0.5810   -0.0800 c3        1 FI0     -0.092100
      9 O18        -0.4270    1.1400   -0.7540 oh        1 FI0     -0.592800
     10 C19         1.1270   -0.2540    0.5140 c3        1 FI0      0.147500
     11 N20         1.3130   -1.3120    1.4820 n3        1 FI0     -0.902800
     12 C32         1.9420   -0.4960   -0.7720 c3        1 FI0     -0.034100
     13 C33         4.1910   -1.2740    0.0200 ca        1 FI0     -0.118500
     14 C34         5.5590   -1.0690    0.1990 ca        1 FI0     -0.133000
     15 C35         6.1460    0.1290   -0.2060 ca        1 FI0     -0.131000
     16 C36         5.3620    1.1240   -0.7890 ca        1 FI0     -0.133000
     17 C37         3.9950    0.9210   -0.9680 ca        1 FI0     -0.118500
     18 C38         3.3980   -0.2790   -0.5630 ca        1 FI0     -0.076300
     19 H12        -3.0810   -0.9410   -0.2540 h1        1 FI0      0.028200
     20 H12A       -3.6640   -1.0610    1.4650 h1        1 FI0      0.028200
     21 H13        -5.3110    0.8060    1.0180 hc        1 FI0      0.062700
     22 H14        -4.1490    0.5820   -1.8430 hc        1 FI0      0.036367
     23 H14A       -5.7570    1.3250   -1.4640 hc        1 FI0      0.036367
     24 H14B       -4.2500    2.0530   -0.7880 hc        1 FI0      0.036367
     25 H15        -5.5490   -1.4210   -1.1030 hc        1 FI0      0.039200
     26 H15A       -5.6330   -1.7740    0.6660 hc        1 FI0      0.039200
     27 H16        -0.7690    0.9610    2.0080 h1        1 FI0      0.052700
     28 H16A       -1.3250   -0.7730    1.8870 h1        1 FI0      0.052700
     29 H17        -0.7270   -0.8370   -0.5410 h1        1 FI0      0.076700
     30 H18        -7.9020   -1.4740   -0.2680 hc        1 FI0      0.034033
     31 H18A       -7.5330   -0.1510    0.9140 hc        1 FI0      0.034033
     32 H18B       -7.4800    0.1820   -0.8640 hc        1 FI0      0.034033
     33 HO18       -0.0650    1.8910   -0.2670 ho        1 FI0      0.400000
     34 H19         1.5120    0.6980    0.9940 h1        1 FI0      0.062700
     35 HN20        0.8270   -1.1040    2.3320 hn        1 FI0      0.351300
     36 H32         1.7630   -1.5390   -1.1470 hc        1 FI0      0.058700
     37 H32A        1.5590    0.2120   -1.5570 hc        1 FI0      0.058700
     38 H34         6.1740   -1.8550    0.6610 ha        1 FI0      0.129000
     39 H35         7.2250    0.2890   -0.0650 ha        1 FI0      0.129000
     40 H36         5.8220    2.0700   -1.1110 ha        1 FI0      0.129000
     41 H37         3.3810    1.7080   -1.4320 ha        1 FI0      0.133000
     42 H2         -2.5630    1.4440    0.4190 hn        1 FI0      0.367800
     43 H1          0.9960   -2.1900    1.1220 hn        1 FI0      0.351300
     44 H33         3.7280   -2.2160    0.3490 ha        1 FI0      0.133000
@<TRIPOS>BOND
     1    1    2 1   
     2    1    6 1   
     3    1   42 1   
     4    2    3 1   
     5    2   19 1   
     6    2   20 1   
     7    3    4 1   
     8    3    5 1   
     9    3   21 1   
    10    4   22 1   
    11    4   23 1   
    12    4   24 1   
    13    5    8 1   
    14    5   25 1   
    15    5   26 1   
    16    6    7 1   
    17    6   27 1   
    18    6   28 1   
    19    7    9 1   
    20    7   10 1   
    21    7   29 1   
    22    8   30 1   
    23    8   31 1   
    24    8   32 1   
    25    9   33 1   
    26   10   11 1   
    27   10   12 1   
    28   10   34 1   
    29   11   35 1   
    30   11   43 1   
    31   12   18 1   
    32   12   36 1   
    33   12   37 1   
    34   13   14 ar  
    35   13   18 ar  
    36   13   44 1   
    37   14   15 ar  
    38   14   38 1   
    39   15   16 ar  
    40   15   39 1   
    41   16   17 ar  
    42   16   40 1   
    43   17   18 ar  
    44   17   41 1   
@<TRIPOS>SUBSTRUCTURE
     1 FI0         1 TEMP              0 ****  ****    0 ROOT
