@<TRIPOS>MOLECULE
FI0
   44    41     1     0     0
SMALL
bcc


@<TRIPOS>ATOM
      1 N11         1.0970   -0.3500    1.4780 n3        1 FI0     -0.825200
      2 C12         2.5310   -0.4070    1.5300 c3        1 FI0      0.164800
      3 C13         2.9870   -0.3710    2.9700 c3        1 FI0     -0.067700
      4 C14         3.2770   -1.7770    3.4410 c3        1 FI0     -0.085100
      5 C15         4.2560    0.4760    3.0750 c3        1 FI0     -0.078400
      6 C16         0.6830   -0.2820    0.1430 c3        1 FI0      0.131800
      7 C17        -0.8180   -0.5220    0.0630 c3        1 FI0      0.098100
      8 C18         4.3780    1.0630    4.5090 c3        1 FI0     -0.093100
      9 O18        -1.4780    0.3770    0.8980 oh        1 FI0     -0.598800
     10 C19        -1.2860   -0.3250   -1.3680 c3        1 FI0      0.171500
     11 N20        -1.1940   -1.5530   -2.0660 n3        1 FI0     -0.902800
     12 C32        -2.7220    0.1470   -1.3710 c3        1 FI0     -0.064300
     13 C33        -4.0820   -0.4100   -3.4750 c1        1 FI0     -0.050500
     14 C34        -4.7750    0.0640   -4.5780 c1        1 FI0     -0.074000
     15 C35        -4.5610    1.3570   -5.0280 c1        1 FI0     -0.074000
     16 C36        -3.6540    2.1770   -4.3750 c1        1 FI0     -0.074000
     17 C37        -2.9610    1.7040   -3.2700 c1        1 FI0     -0.074000
     18 C38        -3.1740    0.4110   -2.8200 c1        1 FI0     -0.036100
     19 H12         2.8440   -1.2490    1.1040 h1        1 FI0      0.030700
     20 H12A        2.9120    0.3710    1.0440 h1        1 FI0      0.030700
     21 H13         2.2820    0.0220    3.5280 hc        1 FI0      0.046700
     22 H14         2.5910   -2.4000    3.0720 hc        1 FI0      0.037033
     23 H14A        3.2500   -1.8060    4.4200 hc        1 FI0      0.037033
     24 H14B        4.1710   -2.0510    3.1290 hc        1 FI0      0.037033
     25 H15         4.2140    1.2060    2.4290 hc        1 FI0      0.040700
     26 H15A        5.0420   -0.0870    2.8830 hc        1 FI0      0.040700
     27 H16         1.1530   -0.9720   -0.3830 h1        1 FI0      0.034700
     28 H16A        0.8940    0.6090   -0.2220 h1        1 FI0      0.034700
     29 H17        -1.0220   -1.4610    0.3560 h1        1 FI0      0.043700
     30 H18         3.5100    1.4390    4.7860 hc        1 FI0      0.034367
     31 H18A        5.0650    1.7800    4.5150 hc        1 FI0      0.034367
     32 H18B        4.6390    0.3570    5.1290 hc        1 FI0      0.034367
     33 HO18       -1.8380   -0.0730    1.6060 ho        1 FI0      0.406000
     34 H19        -0.7260    0.3380   -1.8030 h1        1 FI0      0.080700
     35 HN20       -1.2990   -2.2380   -1.4840 hn        1 FI0      0.349300
     36 H32        -3.2910   -0.5370   -0.9740 hc        1 FI0      0.054700
     37 H32A       -2.7930    0.9740   -0.8510 hc        1 FI0      0.054700
     38 H33        -4.2310   -1.3090   -3.1620 ha        1 FI0      0.075500
     39 H34        -5.4140   -0.5150   -5.0390 ha        1 FI0      0.071500
     40 H35        -5.0410    1.6840   -5.7920 ha        1 FI0      0.071500
     41 H36        -3.5040    3.0900   -4.6930 ha        1 FI0      0.071500
     42 H37        -2.3340    2.2710   -2.8190 ha        1 FI0      0.071500
     43 H2          0.8030    0.3940    1.9280 hn        1 FI0      0.358800
     44 H1         -0.3790   -1.6150   -2.4630 hn        1 FI0      0.349300
@<TRIPOS>BOND
     1    1    2 1   
     2    1    6 1   
     3    1   43 1   
     4    2    3 1   
     5    2   19 1   
     6    2   20 1   
     7    3    4 1   
     8    3    5 1   
     9    3   21 1   
    10    4   22 1   
    11    4   23 1   
    12    4   24 1   
    13    5    8 1   
    14    5   25 1   
    15    5   26 1   
    16    6    7 1   
    17    6   27 1   
    18    6   28 1   
    19    7    9 1   
    20    7   10 1   
    21    7   29 1   
    22    8   30 1   
    23    8   31 1   
    24    8   32 1   
    25    9   33 1   
    26   10   11 1   
    27   10   12 1   
    28   10   34 1   
    29   11   35 1   
    30   11   44 1   
    31   12   18 1   
    32   12   36 1   
    33   12   37 1   
    34   13   18 3   
    35   13   38 1   
    36   14   15 3   
    37   14   39 1   
    38   15   40 1   
    39   16   17 3   
    40   16   41 1   
    41   17   42 1   
@<TRIPOS>SUBSTRUCTURE
     1 FI0         1 TEMP              0 ****  ****    0 ROOT
