@<TRIPOS>MOLECULE
FI1
   68    63     1     0     0
SMALL
bcc


@<TRIPOS>ATOM
      1 C1          5.2880   -3.8190   -3.4460 c1        1 FI1     -0.053500
      2 C2          4.5360   -7.4430   -3.4460 c1        1 FI1     -0.123750
      3 C3          4.4900   -3.3750   -2.3910 c1        1 FI1     -0.039000
      4 C4          5.3560   -7.8840   -4.4700 c1        1 FI1     -0.123750
      5 C5          3.7030   -5.6330   -2.0500 c1        1 FI1     -0.053500
      6 C6          6.1260   -5.6310   -4.8460 c1        1 FI1     -0.131000
      7 C7          4.5040   -6.0800   -3.1100 c1        1 FI1     -0.029000
      8 C8          5.2920   -5.1800   -3.8040 c1        1 FI1     -0.029000
      9 C9          3.7000   -4.2740   -1.6940 c1        1 FI1     -0.821000
     10 C10         6.1570   -6.9660   -5.1750 c1        1 FI1     -0.036000
     11 C11        -1.7900    6.8040    1.4870 c1        1 FI1     -0.123750
     12 C12        -1.4750    6.3350    2.8030 c1        1 FI1     -0.123750
     13 C13        -2.9830    6.3140    0.8170 c1        1 FI1     -0.255000
     14 C14        -3.8860    5.2380    1.5180 c1        1 FI1      0.081000
     15 C15        -2.3960    5.3690    3.4880 c1        1 FI1      0.322000
     16 C16        -0.2080   -1.0160    0.0900 c1        1 FI1      0.296000
     17 C17        -2.2000    1.7610    0.4890 c1        1 FI1      0.288000
     18 C18         1.7550    0.5600    1.4500 c3        1 FI1     -0.164000
     19 C19         2.2010   -0.5150    0.5260 c3        1 FI1     -0.190000
     20 C20        -5.8710    3.3510    1.9680 c3        1 FI1     -0.158000
     21 C21         0.4330    1.0780    1.1200 c3        1 FI1     -0.042000
     22 C22        -3.8070    3.6460   -0.1020 c3        1 FI1     -0.021000
     23 C23        -3.9090    3.2230    3.1310 c3        1 FI1     -0.028000
     24 C24        -4.5720    1.7280    1.0580 c3        1 FI1     -0.017000
     25 C25        -4.6500    4.5310    0.8400 c2        1 FI1     -0.092000
     26 C26         1.2340   -1.6110    0.4170 c2        1 FI1      0.052000
     27 C27        -5.1580    2.6380    2.3640 c3        1 FI1     -0.130000
     28 C28        -1.9610    0.3760    1.0990 c2        1 FI1     -0.045000
     29 N29        -3.5390    4.7500    2.7230 n3        1 FI1     -0.225000
     30 N30        -0.5980    0.0360    0.9700 n3        1 FI1     -0.295000
     31 N31        -3.5840    2.3670    0.5010 n3        1 FI1     -0.334000
     32 N32         1.6510   -2.6310   -0.5610 n3        1 FI1     -0.892000
     33 O33        -2.1630    5.0120    4.6120 o         1 FI1     -0.376000
     34 O34        -1.0540   -1.7230   -0.4190 o         1 FI1     -0.365000
     35 O35        -1.3000    2.3470   -0.0190 o         1 FI1     -0.371000
     36 O36         2.4780   -4.8110    0.6410 o         1 FI1     -0.935500
     37 O37         3.9010   -3.0640    0.6810 o         1 FI1     -0.935500
     38 S38         2.9330   -3.6910   -0.1940 s6        1 FI1      2.864000
     39 CL39        6.7790   -7.8060   -6.5830 cl        1 FI1     -0.004000
     40 H1          5.8190   -3.2130   -3.9170 ha        1 FI1      0.152500
     41 H2          3.9690   -8.0920   -2.9480 ha        1 FI1      0.150250
     42 H3          4.4890   -2.4150   -2.1410 ha        1 FI1      0.146000
     43 H4          5.3780   -8.8330   -4.7040 ha        1 FI1      0.150250
     44 H5          3.1460   -6.2690   -1.5570 ha        1 FI1      0.152500
     45 H6          6.6800   -4.9960   -5.3350 ha        1 FI1      0.153000
     46 H11        -1.1930    7.4350    1.0320 ha        1 FI1      0.150250
     47 H12        -0.6730    6.6610    3.2610 ha        1 FI1      0.150250
     48 H13        -3.2060    6.6310   -0.0860 ha        1 FI1      0.148000
     49 H18         2.3830    1.2790    1.4130 hc        1 FI1      0.099500
     50 H18A        1.7360    0.2140    2.3360 hc        1 FI1      0.099500
     51 H19         2.3460   -0.1190   -0.3820 hc        1 FI1      0.109500
     52 H19A        3.0540   -0.8780    0.8530 hc        1 FI1      0.109500
     53 H20        -6.5300    2.9140    1.4210 hc        1 FI1      0.099000
     54 H20A       -6.2940    3.8700    2.6920 hc        1 FI1      0.099000
     55 H21         0.1510    1.6920    1.8340 h1        1 FI1      0.100500
     56 H21A        0.4940    1.5710    0.2950 h1        1 FI1      0.100500
     57 H22        -4.2900    3.5260   -0.9660 h1        1 FI1      0.108500
     58 H22A       -2.9440    4.0810   -0.2690 h1        1 FI1      0.108500
     59 H23        -4.0880    3.1940    4.0740 h1        1 FI1      0.108500
     60 H23A       -3.1270    2.6480    2.9400 h1        1 FI1      0.108500
     61 H24        -5.3160    1.5920    0.3780 h1        1 FI1      0.089000
     62 H24A       -4.2610    0.8650    1.3760 h1        1 FI1      0.089000
     63 H25        -5.1850    5.0930    0.3160 ha        1 FI1      0.122000
     64 H26         1.2120   -2.1430    1.2490 h4        1 FI1      0.117000
     65 H27        -5.6390    2.0280    2.9780 hc        1 FI1      0.115000
     66 H28        -2.2060    0.3890    2.0460 h4        1 FI1      0.128500
     67 H28A       -2.5120   -0.2920    0.6270 h4        1 FI1      0.128500
     68 HN32        1.1890   -2.7440   -1.2980 hn        1 FI1      0.264000
@<TRIPOS>BOND
     1    1    8 1   
     2    1   40 1   
     3    2    4 1   
     4    2   41 1   
     5    3    9 1   
     6    3   42 1   
     7    4   43 1   
     8    5    7 1   
     9    5   44 1   
    10    6   10 1   
    11    6   45 1   
    12    7    8 1   
    13    9   38 1   
    14   10   39 1   
    15   11   12 1   
    16   11   46 1   
    17   12   47 1   
    18   13   14 1   
    19   13   48 1   
    20   14   29 1   
    21   15   29 1   
    22   15   33 1   
    23   16   30 1   
    24   16   34 1   
    25   17   31 1   
    26   17   35 1   
    27   18   19 1   
    28   18   21 1   
    29   18   49 1   
    30   18   50 1   
    31   19   26 1   
    32   19   51 1   
    33   19   52 1   
    34   20   25 1   
    35   20   27 1   
    36   20   53 1   
    37   20   54 1   
    38   21   30 1   
    39   21   55 1   
    40   21   56 1   
    41   22   25 1   
    42   22   31 1   
    43   22   57 1   
    44   22   58 1   
    45   23   27 1   
    46   23   29 1   
    47   23   59 1   
    48   23   60 1   
    49   24   27 1   
    50   24   31 1   
    51   24   61 1   
    52   24   62 1   
    53   25   63 1   
    54   26   32 1   
    55   26   64 1   
    56   27   65 1   
    57   28   30 1   
    58   28   66 1   
    59   28   67 1   
    60   32   38 1   
    61   32   68 1   
    62   36   38 1   
    63   37   38 1   
@<TRIPOS>SUBSTRUCTURE
     1 FI1         1 TEMP              0 ****  ****    0 ROOT
