@<TRIPOS>MOLECULE
FI1
   69    71     1     0     0
SMALL
bcc


@<TRIPOS>ATOM
      1 C1          1.0020   -1.0280   -0.6720 ca        1 FI1     -0.133000
      2 C2         -0.0260   -1.3610    2.9720 c3        1 FI1     -0.217000
      3 C3          2.1450   -0.2710   -0.5580 ca        1 FI1     -0.001000
      4 C4         -1.2550   -2.1030    2.8060 c1        1 FI1      0.009000
      5 C5          1.8760   -0.2060    1.8500 ca        1 FI1      0.057000
      6 C6         -0.9710   -2.1300    0.3620 c2        1 FI1     -0.116000
      7 C7          0.7290   -0.9850    1.7490 ca        1 FI1     -0.100000
      8 C8          0.2660   -1.3930    0.4780 ca        1 FI1      0.083000
      9 C9          2.6250    0.1670    0.7100 ca        1 FI1     -1.039000
     10 C10        -1.7230   -2.3880    1.4710 c2        1 FI1     -0.082000
     11 C11         2.6280   10.7980    3.9380 c2        1 FI1     -0.012000
     12 C12         2.8540    9.4570    4.0090 c2        1 FI1     -0.254000
     13 C13         1.3870   11.2800    3.4420 c2        1 FI1     -0.239000
     14 C14         0.4090   10.3960    3.0290 c2        1 FI1      0.077000
     15 C15         1.8370    8.5080    3.5830 c2        1 FI1      0.349000
     16 C16         1.5140    4.3710    2.6080 c2        1 FI1      0.251000
     17 C17        -0.3450    2.5170    4.2010 c2        1 FI1      0.308000
     18 C18         3.5090    4.5800    4.4900 c3        1 FI1     -0.194000
     19 C19         3.8920    3.8950    3.1930 c3        1 FI1     -0.168000
     20 C20        -2.0750    8.0100    4.7740 cu        1 FI1     -0.151000
     21 C21         2.1270    4.1780    4.9790 c3        1 FI1     -0.122000
     22 C22        -2.7990    2.5290    4.6200 c1        1 FI1     -0.122000
     23 C23        -0.4160    8.1010    2.6410 c3        1 FI1      0.043000
     24 C24        -2.7410    7.0940    3.8080 cx        1 FI1     -0.130000
     25 C25        -0.8890   10.9240    2.5110 c3        1 FI1     -0.202000
     26 C26         2.6560    3.3650    2.4470 c3        1 FI1     -0.097000
     27 C27        -1.4720    7.8520    3.6110 cu        1 FI1     -0.222000
     28 N29         0.6250    9.0200    3.0780 n         1 FI1     -0.215000
     29 N30         1.0490    4.5850    4.0140 n4        1 FI1      0.101000
     30 N31        -1.6350    1.9510    4.5080 n         1 FI1     -0.200000
     31 N32         2.9190    3.0180    1.0480 n3        1 FI1     -0.426000
     32 O35         0.5730    1.6880    3.8890 o         1 FI1     -0.558000
     33 O36         4.5580    1.0350    2.0490 o         1 FI1     -0.445400
     34 O37         4.5930    1.3290   -0.3140 o         1 FI1     -0.445400
     35 S38         3.9400    0.9970    0.8350 s4        1 FI1      2.097800
     36 CL39       -3.2300   -3.1230    1.3390 cl        1 FI1      0.084000
     37 H1          0.6480   -1.3540   -1.6660 ha        1 FI1      0.175000
     38 H2          0.6300   -1.9810    3.6610 hc        1 FI1      0.201500
     39 H3          2.7160    0.0040   -1.4660 ha        1 FI1      0.169000
     40 H4         -0.2570   -0.4190    3.5750 hc        1 FI1      0.201500
     41 H5          2.1890    0.1410    2.8570 ha        1 FI1      0.187000
     42 H6         -1.2840   -2.4440   -0.6490 ha        1 FI1      0.171000
     43 H12         3.7890    9.0240    4.3880 ha        1 FI1      0.163000
     44 H13         1.2060   12.3620    3.3890 ha        1 FI1      0.163000
     45 H18         4.2480    4.3100    5.2910 hc        1 FI1      0.136500
     46 H18A        3.5520    5.6980    4.3570 hc        1 FI1      0.136500
     47 H19         4.4590    4.6230    2.5520 hc        1 FI1      0.120000
     48 H19A        4.5730    3.0240    3.4000 hc        1 FI1      0.120000
     49 H20        -0.9590   10.7650    1.4050 hc        1 FI1      0.109000
     50 H20A       -2.1380    8.4460    5.7500 ha        1 FI1      0.200000
     51 H21         1.8960    4.6820    5.9590 hx        1 FI1      0.148500
     52 H21A        2.0580    3.0620    5.1270 hx        1 FI1      0.148500
     53 H22        -0.9600   12.0220    2.7140 hc        1 FI1      0.109000
     54 H22A       -2.8540    3.6270    4.4670 ha        1 FI1      0.047000
     55 H23         0.0790    7.1130    2.3780 h1        1 FI1      0.128500
     56 H23A       -0.8800    8.5080    1.6920 h1        1 FI1      0.128500
     57 H24        -1.5990    0.9580    4.6440 hn        1 FI1      0.242000
     58 H24A       -2.7160    5.9980    3.9680 hc        1 FI1      0.101000
     59 H25        -1.7580   10.4160    3.0030 hc        1 FI1      0.109000
     60 H26         2.3040    2.4040    2.9600 h1        1 FI1      0.195000
     61 H27        -3.6650    7.4050    3.2850 hc        1 FI1      0.101000
     62 HN32        2.0460    2.9940    0.5380 hn        1 FI1      0.213000
     63 C28        -0.1960    3.9140    4.2550 c2        1 FI1     -0.591000
     64 O33         2.0030    7.2590    3.6350 o         1 FI1     -0.496000
     65 H28         0.8830    5.6060    4.1170 hn        1 FI1      0.284000
     66 H28A       -1.0200    4.5950    4.4940 hx        1 FI1      0.179000
     67 H322        3.5100    3.7140    0.6160 hn        1 FI1      0.213000
     68 O34         0.9760    4.9680    1.6790 o         1 FI1     -0.231000
     69 H11         3.3900   11.5240    4.2620 ha        1 FI1      0.154000
@<TRIPOS>BOND
     1    1    3 1   
     2    1    8 1   
     3    1   37 1   
     4    2    4 1   
     5    2    7 1   
     6    2   38 1   
     7    2   40 1   
     8    3    9 1   
     9    3   39 1   
    10    4   10 1   
    11    5    7 1   
    12    5    9 1   
    13    5   41 1   
    14    6    8 1   
    15    6   10 1   
    16    6   42 1   
    17    7    8 1   
    18    9   35 1   
    19   10   36 1   
    20   11   12 1   
    21   11   13 1   
    22   11   69 1   
    23   12   15 1   
    24   12   43 1   
    25   13   14 1   
    26   13   44 1   
    27   14   25 1   
    28   14   28 1   
    29   15   28 1   
    30   15   64 1   
    31   16   26 1   
    32   16   29 1   
    33   16   68 1   
    34   17   30 1   
    35   17   32 1   
    36   17   63 1   
    37   18   19 1   
    38   18   21 1   
    39   18   45 1   
    40   18   46 1   
    41   19   26 1   
    42   19   47 1   
    43   19   48 1   
    44   20   24 1   
    45   20   27 1   
    46   20   50 1   
    47   21   29 1   
    48   21   51 1   
    49   21   52 1   
    50   22   30 1   
    51   22   54 1   
    52   23   27 1   
    53   23   28 1   
    54   23   55 1   
    55   23   56 1   
    56   24   27 1   
    57   24   58 1   
    58   24   61 1   
    59   25   49 1   
    60   25   53 1   
    61   25   59 1   
    62   26   31 1   
    63   26   60 1   
    64   29   63 1   
    65   29   65 1   
    66   30   57 1   
    67   31   62 1   
    68   31   67 1   
    69   33   35 1   
    70   34   35 1   
    71   63   66 1   
@<TRIPOS>SUBSTRUCTURE
     1 FI1         1 TEMP              0 ****  ****    0 ROOT
