@<TRIPOS>MOLECULE
FI1
   69    70     1     0     0
SMALL
bcc


@<TRIPOS>ATOM
      1 C1          3.0620    0.0270   -0.4280 ca        1 FI1     -0.128000
      2 C2         -0.1530   -1.2920    1.1030 c3        1 FI1     -0.210000
      3 C3          3.6040    0.7200    0.6380 ca        1 FI1     -0.022000
      4 C4         -0.7000   -1.9870   -0.0450 c1        1 FI1      0.006000
      5 C5          1.7050    0.1210    2.0080 ca        1 FI1      0.000000
      6 C6          1.2560   -1.3660   -1.4050 c2        1 FI1     -0.092000
      7 C7          1.1450   -0.5840    0.9430 ca        1 FI1     -0.100000
      8 C8          1.8260   -0.6350   -0.2920 ca        1 FI1      0.040000
      9 C9          2.9350    0.7900    1.8820 ca        1 FI1     -0.964000
     10 C10         0.0590   -2.0010   -1.2710 c2        1 FI1     -0.105000
     11 C11         0.5270    8.5820    0.0300 c2        1 FI1      0.005000
     12 C12         0.8000    7.4040    0.6600 c2        1 FI1     -0.276000
     13 C13         0.3600    9.7660    0.7930 c2        1 FI1     -0.238000
     14 C14         0.4740    9.7310    2.1710 c2        1 FI1      0.089000
     15 C15         0.9220    7.3460    2.1050 c2        1 FI1      0.345000
     16 C16         0.4450    1.9680    5.0340 c2        1 FI1      0.248000
     17 C17        -1.7030    4.5570    5.1140 c2        1 FI1      0.262000
     18 C18         2.8010    3.9420    5.4010 c3        1 FI1     -0.175000
     19 C19         3.3300    4.2190    4.0060 c3        1 FI1     -0.190000
     20 C20         3.1720    9.4370    5.2180 c1        1 FI1     -0.140000
     21 C21         1.3050    4.2100    5.5530 c3        1 FI1     -0.050000
     22 C22        -3.2090    5.0300    3.2980 c2        1 FI1     -0.427500
     23 C23         0.8800    8.5210    4.2850 c3        1 FI1      0.074000
     24 C24        -4.0660    4.6410    5.4740 c2        1 FI1     -0.427500
     25 C25         0.2900   10.9880    2.9570 c3        1 FI1     -0.207000
     26 C26         2.8430    3.2220    3.0000 c2        1 FI1     -0.370000
     27 C27         2.1400    9.0270    4.7750 c1        1 FI1     -0.230000
     28 N29         0.7400    8.5350    2.8330 n         1 FI1     -0.202000
     29 N30         0.4560    3.3390    4.7600 n         1 FI1     -0.353000
     30 N31        -3.0610    4.7610    4.6050 n         1 FI1      0.106000
     31 N32         1.9740    3.5390    2.0920 n8        1 FI1     -0.094000
     32 O35        -1.4220    4.8890    6.2660 o         1 FI1     -0.249000
     33 O36         3.1410    1.0700    4.3750 o         1 FI1     -0.875500
     34 O37         4.9740    1.7910    2.9830 o         1 FI1     -0.875500
     35 S38         3.6350    1.5020    3.1560 s6        1 FI1      2.864000
     36 Cl39       -0.6110   -2.8540   -2.5630 cl        1 FI1      0.069000
     37 H1          3.6030   -0.0230   -1.3890 ha        1 FI1      0.170000
     38 H2         -0.0690   -2.0700    1.9270 hc        1 FI1      0.189000
     39 H3          4.5900    1.2110    0.5290 ha        1 FI1      0.169000
     40 H4         -0.9510   -0.5730    1.4680 hc        1 FI1      0.189000
     41 H5          1.1660    0.1400    2.9800 ha        1 FI1      0.188000
     42 H6          1.8320   -1.3830   -2.3470 ha        1 FI1      0.167000
     43 H12         0.9410    6.4600    0.1200 ha        1 FI1      0.147000
     44 H13         0.1370   10.7150    0.2850 ha        1 FI1      0.169000
     45 H18         3.0510    2.8950    5.7220 hc        1 FI1      0.124500
     46 H18A        3.3320    4.6400    6.1060 hc        1 FI1      0.124500
     47 H19         3.0480    5.2740    3.7170 hc        1 FI1      0.153000
     48 H19A        4.4580    4.1570    4.0130 hc        1 FI1      0.153000
     49 H20        -0.6730   10.9500    3.5280 hc        1 FI1      0.114333
     50 H20A        4.0830    9.8080    5.6210 ha        1 FI1      0.237000
     51 H21         1.0980    5.2760    5.2410 h1        1 FI1      0.118500
     52 H21A        1.0370    4.1170    6.6470 h1        1 FI1      0.118500
     53 H22         0.2560   11.8670    2.2660 hc        1 FI1      0.114333
     54 H22A       -2.3420    5.1570    2.6500 h4        1 FI1      0.155000
     55 H23         0.7560    7.4500    4.6340 h1        1 FI1      0.132000
     56 H23A        0.0370    9.1330    4.7280 h1        1 FI1      0.132000
     57 H24        -4.2160    5.1570    2.8940 h4        1 FI1      0.155000
     58 H24A       -3.8580    4.4290    6.5290 h4        1 FI1      0.155000
     59 H25         1.1310   11.1390    3.6810 hc        1 FI1      0.114333
     60 H26         1.1990    1.6230    5.7830 h5        1 FI1      0.174000
     61 H27        -5.0960    4.7770    5.1280 h4        1 FI1      0.155000
     62 HN32        1.5610    4.4670    2.0370 hn        1 FI1      0.280500
     63 C28        -0.6930    3.9460    4.1370 c3        1 FI1     -0.069000
     64 O33         1.1650    6.2730    2.7320 o         1 FI1     -0.515000
     65 H28        -1.2170    3.1680    3.5070 h1        1 FI1      0.151000
     66 H28A       -0.3410    4.7950    3.4740 h1        1 FI1      0.151000
     67 H322        1.6550    2.8590    1.4230 hn        1 FI1      0.280500
     68 O34        -0.2840    1.1930    4.3950 o         1 FI1     -0.361000
     69 H11         0.4350    8.6360   -1.0670 ha        1 FI1      0.157000
@<TRIPOS>BOND
     1    1    3 1   
     2    1    8 1   
     3    1   37 1   
     4    2    4 1   
     5    2    7 1   
     6    2   38 1   
     7    2   40 1   
     8    3    9 1   
     9    3   39 1   
    10    4   10 1   
    11    5    7 1   
    12    5    9 1   
    13    5   41 1   
    14    6    8 1   
    15    6   10 1   
    16    6   42 1   
    17    7    8 1   
    18    9   35 1   
    19   10   36 1   
    20   11   12 1   
    21   11   13 1   
    22   11   69 1   
    23   12   15 1   
    24   12   43 1   
    25   13   14 1   
    26   13   44 1   
    27   14   25 1   
    28   14   28 1   
    29   15   28 1   
    30   15   64 1   
    31   16   29 1   
    32   16   60 1   
    33   16   68 1   
    34   17   30 1   
    35   17   32 1   
    36   17   63 1   
    37   18   19 1   
    38   18   21 1   
    39   18   45 1   
    40   18   46 1   
    41   19   26 1   
    42   19   47 1   
    43   19   48 1   
    44   20   27 1   
    45   20   50 1   
    46   21   29 1   
    47   21   51 1   
    48   21   52 1   
    49   22   30 1   
    50   22   54 1   
    51   22   57 1   
    52   23   27 1   
    53   23   28 1   
    54   23   55 1   
    55   23   56 1   
    56   24   30 1   
    57   24   58 1   
    58   24   61 1   
    59   25   49 1   
    60   25   53 1   
    61   25   59 1   
    62   26   31 1   
    63   26   35 1   
    64   29   63 1   
    65   31   62 1   
    66   31   67 1   
    67   33   35 1   
    68   34   35 1   
    69   63   65 1   
    70   63   66 1   
@<TRIPOS>SUBSTRUCTURE
     1 FI1         1 TEMP              0 ****  ****    0 ROOT
