@<TRIPOS>MOLECULE
FI1
   68    73     1     0     0
SMALL
bcc


@<TRIPOS>ATOM
      1 C1          5.4810    1.5300    1.3080 ca        1 FI1     -0.133000
      2 C2          5.2250    1.7210   -2.4240 ca        1 FI1     -0.089000
      3 C3          5.1610    0.2140    1.5240 ca        1 FI1     -0.036000
      4 C4          5.5410    3.0360   -2.6540 ca        1 FI1     -0.132000
      5 C5          4.8680   -0.1540   -0.8400 ca        1 FI1      0.024000
      6 C6          5.8280    3.4180   -0.2650 ca        1 FI1     -0.130000
      7 C7          5.1960    1.2010   -1.1000 ca        1 FI1     -0.075000
      8 C8          5.5030    2.0580   -0.0120 ca        1 FI1      0.018000
      9 C9          4.8420   -0.6530    0.4460 ca        1 FI1     -0.381500
     10 C10         5.8450    3.8890   -1.5590 ca        1 FI1      0.041400
     11 C11        -7.0780   -2.4470    1.2430 cc        1 FI1     -0.037000
     12 C12        -7.3430   -2.3920   -0.0880 cd        1 FI1     -0.260200
     13 C13        -6.4510   -1.3450    1.8910 cc        1 FI1     -0.266000
     14 C14        -6.1150   -0.2190    1.1660 cd        1 FI1      0.076400
     15 C15        -7.0060   -1.2070   -0.8730 c         1 FI1      0.682700
     16 C16         0.5500   -1.5500    0.9140 c         1 FI1      0.695500
     17 C17        -2.3710   -0.0200   -0.0280 c         1 FI1      0.645100
     18 C18         0.3940   -3.1390   -1.4960 c3        1 FI1     -0.090400
     19 C19         1.5050   -3.4110   -0.5120 c3        1 FI1     -0.108400
     20 C20        -5.7660    2.2490    1.2160 c3        1 FI1     -0.079400
     21 C21        -0.8800   -2.6930   -0.7900 c3        1 FI1      0.089000
     22 C22        -3.8900    0.7010    1.8120 c3        1 FI1      0.103000
     23 C23        -6.1030    1.0690   -0.9620 c3        1 FI1      0.086000
     24 C24        -3.8090    1.9480   -0.3060 c3        1 FI1      0.090000
     25 C25        -5.4180    0.9210    1.8670 c3        1 FI1     -0.050500
     26 C26         1.8230   -2.1080    0.2380 c3        1 FI1      0.197500
     27 C27        -5.3270    2.1690   -0.2360 c3        1 FI1     -0.091700
     28 N29        -6.3750   -0.1320   -0.1900 n         1 FI1     -0.329000
     29 N30        -0.6870   -1.8380    0.3610 n         1 FI1     -0.452800
     30 N31        -3.3400    0.8310    0.4870 n         1 FI1     -0.477800
     31 N32         2.9120   -2.2330    1.1680 n3        1 FI1     -0.907100
     32 O34         0.6320   -0.8480    1.9430 o         1 FI1     -0.651500
     33 O35        -1.9460    0.1570   -1.1870 o         1 FI1     -0.606100
     34 O36         4.6520   -2.9970   -0.4370 o         1 FI1     -0.652800
     35 O37         5.2120   -2.6980    1.8880 o         1 FI1     -0.652800
     36 S38         4.4780   -2.2720    0.7620 sy        1 FI1      1.519200
     37 CL39        6.2310    5.5130   -1.8750 cl        1 FI1     -0.083400
     38 H1          5.7280    2.1960    2.1490 ha        1 FI1      0.144000
     39 H2          4.9890    1.0470   -3.2630 ha        1 FI1      0.144000
     40 H3          5.1630   -0.2010    2.5480 ha        1 FI1      0.153000
     41 H4          5.5640    3.4420   -3.6770 ha        1 FI1      0.153000
     42 H5          4.6440   -0.8180   -1.6950 ha        1 FI1      0.155000
     43 H6          6.0640    4.0750    0.5870 ha        1 FI1      0.154000
     44 H11        -7.3390   -3.3340    1.8420 ha        1 FI1      0.139000
     45 H12        -7.8230   -3.2070   -0.6450 ha        1 FI1      0.164000
     46 H13        -6.2390   -1.3940    2.9660 ha        1 FI1      0.146000
     47 H18         0.7160   -2.3530   -2.2280 hc        1 FI1      0.061700
     48 H18A        0.1640   -4.0690   -2.0800 hc        1 FI1      0.061700
     49 H19         1.2000   -4.2120    0.2100 hc        1 FI1      0.074200
     50 H19A        2.4230   -3.7680   -1.0520 hc        1 FI1      0.074200
     51 H20        -6.8660    2.4430    1.2840 hc        1 FI1      0.059700
     52 H20A       -5.2330    3.0830    1.7400 hc        1 FI1      0.059700
     53 H21        -1.5350   -2.1500   -1.5340 h1        1 FI1      0.056700
     54 H21A       -1.4410   -3.6080   -0.4340 h1        1 FI1      0.056700
     55 H22        -3.4080    1.4700    2.4840 h1        1 FI1      0.053700
     56 H22A       -3.6770   -0.3200    2.2340 h1        1 FI1      0.053700
     57 H23        -7.1000    1.4840   -1.2940 h1        1 FI1      0.073700
     58 H23A       -5.5410    0.7570   -1.8910 h1        1 FI1      0.073700
     59 H24        -3.5060    1.7910   -1.3810 h1        1 FI1      0.067200
     60 H24A       -3.3030    2.8850    0.0690 h1        1 FI1      0.067200
     61 H25        -5.7260    0.9250    2.9470 hc        1 FI1      0.081700
     62 H26         2.1070   -1.3230   -0.5350 h1        1 FI1      0.070700
     63 H27        -5.5460    3.1380   -0.7620 hc        1 FI1      0.076700
     64 HN32        2.6270   -2.2010    2.1230 hn        1 FI1      0.466800
     65 C28        -1.8610   -1.1690    0.8600 c3        1 FI1      0.029000
     66 O33        -7.2380   -1.0820   -2.0920 o         1 FI1     -0.641500
     67 H28        -1.6270   -0.7620    1.8880 h1        1 FI1      0.088200
     68 H28A       -2.6960   -1.9250    0.9370 h1        1 FI1      0.088200
@<TRIPOS>BOND
     1    1    3 ar  
     2    1    8 ar  
     3    1   38 1   
     4    2    4 ar  
     5    2    7 ar  
     6    2   39 1   
     7    3    9 ar  
     8    3   40 1   
     9    4   10 ar  
    10    4   41 1   
    11    5    7 ar  
    12    5    9 ar  
    13    5   42 1   
    14    6    8 ar  
    15    6   10 ar  
    16    6   43 1   
    17    7    8 ar  
    18    9   36 1   
    19   10   37 1   
    20   11   12 2   
    21   11   13 1   
    22   11   44 1   
    23   12   15 1   
    24   12   45 1   
    25   13   14 2   
    26   13   46 1   
    27   14   25 1   
    28   14   28 1   
    29   15   28 1   
    30   15   66 2   
    31   16   26 1   
    32   16   29 1   
    33   16   32 2   
    34   17   30 1   
    35   17   33 2   
    36   17   65 1   
    37   18   19 1   
    38   18   21 1   
    39   18   47 1   
    40   18   48 1   
    41   19   26 1   
    42   19   49 1   
    43   19   50 1   
    44   20   25 1   
    45   20   27 1   
    46   20   51 1   
    47   20   52 1   
    48   21   29 1   
    49   21   53 1   
    50   21   54 1   
    51   22   25 1   
    52   22   30 1   
    53   22   55 1   
    54   22   56 1   
    55   23   27 1   
    56   23   28 1   
    57   23   57 1   
    58   23   58 1   
    59   24   27 1   
    60   24   30 1   
    61   24   59 1   
    62   24   60 1   
    63   25   61 1   
    64   26   31 1   
    65   26   62 1   
    66   27   63 1   
    67   29   65 1   
    68   31   36 1   
    69   31   64 1   
    70   34   36 2   
    71   35   36 2   
    72   65   67 1   
    73   65   68 1   
@<TRIPOS>SUBSTRUCTURE
     1 FI1         1 TEMP              0 ****  ****    0 ROOT
