@<TRIPOS>MOLECULE
FI1
   69    70     1     0     0
SMALL
bcc


@<TRIPOS>ATOM
      1 C1          0.0810   -1.2140    1.6880 ca        1 FI1     -0.120000
      2 C2         -1.2160    1.9070    3.4170 c3        1 FI1     -0.220000
      3 C3          1.4340   -1.1220    1.9500 ca        1 FI1     -0.011000
      4 C4         -2.6250    1.7830    3.1190 c1        1 FI1     -0.036000
      5 C5          1.0710    0.9370    3.1650 ca        1 FI1      0.041000
      6 C6         -2.2220   -0.2990    1.8740 c2        1 FI1     -0.074000
      7 C7         -0.2990    0.8530    2.9160 ca        1 FI1     -0.080000
      8 C8         -0.8060   -0.2260    2.1630 ca        1 FI1      0.046000
      9 C9          1.9670   -0.0420    2.6980 ca        1 FI1     -0.966000
     10 C10        -3.0670    0.6750    2.3160 c2        1 FI1     -0.106000
     11 C11         0.5180   10.2970    4.6780 c2        1 FI1     -0.010000
     12 C12         1.5000    9.4150    4.3450 c2        1 FI1     -0.256000
     13 C13        -0.7540    9.8300    5.1020 c2        1 FI1     -0.260000
     14 C14        -1.0040    8.4620    5.1460 c2        1 FI1      0.014000
     15 C15         1.2800    7.9770    4.4290 c2        1 FI1      0.340000
     16 C16         3.0710    3.3650    0.9500 c2        1 FI1      0.310000
     17 C17         0.6450    5.0330    1.6230 c2        1 FI1      0.281000
     18 C18         4.9580    4.7730    2.6480 c3        1 FI1     -0.172000
     19 C19         5.2870    3.3910    2.1240 c3        1 FI1     -0.167000
     20 C20        -2.7820    5.5640    5.5260 c1        1 FI1     -0.145000
     21 C21         3.9630    5.5340    1.7760 c3        1 FI1     -0.054000
     22 C22        -0.7460    6.7650    0.6030 c3        1 FI1     -0.086000
     23 C23        -0.2290    6.1230    5.0620 c3        1 FI1      0.055000
     24 C24        -2.6740    5.1870    3.2420 c1        1 FI1     -0.173000
     25 C25        -2.3770    8.0410    5.2740 c1        1 FI1     -0.014000
     26 C26         3.9660    2.6360    1.9800 c3        1 FI1     -0.109000
     27 C27        -1.6250    5.8030    5.2600 c1        1 FI1     -0.115000
     28 N29         0.0060    7.5460    4.8700 n         1 FI1     -0.228000
     29 N30         3.0420    4.7450    0.9780 n         1 FI1     -0.268000
     30 N31        -0.5290    5.7100    1.5400 n         1 FI1     -0.383000
     31 N32         4.1070    1.1920    1.6590 n4        1 FI1     -0.466000
     32 O35         0.7940    4.1160    2.4790 o         1 FI1     -0.480000
     33 O36         3.8450    0.7350    4.1870 o         1 FI1     -0.857000
     34 O37         4.2520   -1.1110    2.7100 o         1 FI1     -0.857000
     35 S38         3.5310    0.0210    3.0460 s6        1 FI1      2.818000
     36 CL39       -4.7160    0.6110    1.9530 cl        1 FI1      0.054000
     37 H1         -0.3130   -2.0620    1.1030 ha        1 FI1      0.169000
     38 H2         -1.1130    2.0170    4.5390 hc        1 FI1      0.203000
     39 H3          2.1180   -1.9100    1.5840 ha        1 FI1      0.168000
     40 H4         -0.8910    2.9260    3.0010 hc        1 FI1      0.203000
     41 H5          1.4490    1.8080    3.7360 ha        1 FI1      0.173000
     42 H6         -2.5760   -1.1640    1.2850 ha        1 FI1      0.168000
     43 H12         2.4990    9.7250    4.0100 ha        1 FI1      0.166000
     44 H13        -1.5430   10.5460    5.3650 ha        1 FI1      0.159000
     45 H18         4.5470    4.6890    3.6900 hc        1 FI1      0.120000
     46 H18A        5.9010    5.3770    2.7110 hc        1 FI1      0.120000
     47 H19         5.8100    3.4570    1.1350 hc        1 FI1      0.112500
     48 H19A        5.9670    2.8680    2.8470 hc        1 FI1      0.112500
     49 H20        -2.9040    8.2370    6.2160 ha        1 FI1      0.097000
     50 H20A       -3.7860    5.3430    5.8080 ha        1 FI1      0.254000
     51 H21         4.5360    6.1690    1.0370 h1        1 FI1      0.124000
     52 H21A        3.3750    6.2290    2.4520 h1        1 FI1      0.124000
     53 H22        -1.8220    7.0790    0.6530 h1        1 FI1      0.082333
     54 H22A       -0.5160    6.4270   -0.4440 h1        1 FI1      0.082333
     55 H23         0.3570    5.7870    5.9730 h1        1 FI1      0.148500
     56 H23A        0.1870    5.5590    4.1670 h1        1 FI1      0.148500
     57 H24        -1.2650    5.5230    2.2610 hn        1 FI1      0.308000
     58 H24A       -2.9840    4.1640    3.4950 ha        1 FI1      0.076500
     59 H25        -0.1030    7.6590    0.8340 h1        1 FI1      0.082333
     60 H26         3.4050    2.7040    2.9690 hx        1 FI1      0.170000
     61 H27        -3.4770    5.9290    3.1760 ha        1 FI1      0.076500
     62 HN32        5.0800    0.9940    1.4260 hn        1 FI1      0.255000
     63 C28         1.7800    5.3660    0.6350 c3        1 FI1     -0.052000
     64 O33         2.1350    7.1080    4.1480 o         1 FI1     -0.411000
     65 H28         1.4660    4.9920   -0.3840 h1        1 FI1      0.137000
     66 H28A        1.9300    6.4810    0.5880 h1        1 FI1      0.137000
     67 H322        3.5540    1.0060    0.8100 hn        1 FI1      0.255000
     68 O34         2.4190    2.6860    0.1290 o         1 FI1     -0.365000
     69 H11         0.6920   11.3850    4.6320 ha        1 FI1      0.152000
@<TRIPOS>BOND
     1    1    3 1   
     2    1    8 1   
     3    1   37 1   
     4    2    4 1   
     5    2    7 1   
     6    2   38 1   
     7    2   40 1   
     8    3    9 1   
     9    3   39 1   
    10    4   10 1   
    11    5    7 1   
    12    5    9 1   
    13    5   41 1   
    14    6    8 1   
    15    6   10 1   
    16    6   42 1   
    17    7    8 1   
    18    9   35 1   
    19   10   36 1   
    20   11   12 1   
    21   11   13 1   
    22   11   69 1   
    23   12   15 1   
    24   12   43 1   
    25   13   14 1   
    26   13   44 1   
    27   14   25 1   
    28   14   28 1   
    29   15   28 1   
    30   15   64 1   
    31   16   26 1   
    32   16   29 1   
    33   16   68 1   
    34   17   30 1   
    35   17   32 1   
    36   17   63 1   
    37   18   19 1   
    38   18   21 1   
    39   18   45 1   
    40   18   46 1   
    41   19   26 1   
    42   19   47 1   
    43   19   48 1   
    44   20   27 1   
    45   20   50 1   
    46   21   29 1   
    47   21   51 1   
    48   21   52 1   
    49   22   30 1   
    50   22   53 1   
    51   22   54 1   
    52   22   59 1   
    53   23   27 1   
    54   23   28 1   
    55   23   55 1   
    56   23   56 1   
    57   24   58 1   
    58   24   61 1   
    59   25   49 1   
    60   26   31 1   
    61   26   60 1   
    62   29   63 1   
    63   30   57 1   
    64   31   35 1   
    65   31   62 1   
    66   31   67 1   
    67   33   35 1   
    68   34   35 1   
    69   63   65 1   
    70   63   66 1   
@<TRIPOS>SUBSTRUCTURE
     1 FI1         1 TEMP              0 ****  ****    0 ROOT
