@<TRIPOS>MOLECULE
FI3
   86    90     1     0     0
SMALL
bcc


@<TRIPOS>ATOM
      1 CAV         1.5950    1.1730   -1.7700 c3        1 FI3     -0.088100
      2 CAW         2.9430    1.1870   -1.0980 c3        1 FI3     -0.152400
      3 CBL         2.8110    0.9420    0.3980 c         1 FI3      0.664100
      4 OAF         1.7060    0.7670    0.9400 o         1 FI3     -0.579100
      5 NBF         4.0090    0.9300    1.1070 ns        1 FI3     -0.477100
      6 CBO         4.1910    0.7340    2.4820 ca        1 FI3      0.085600
      7 CAO         5.5170    0.6390    2.9780 ca        1 FI3     -0.173000
      8 CAM         5.7510    0.4550    4.3340 ca        1 FI3     -0.088000
      9 CAN         3.1240    0.6350    3.4010 ca        1 FI3     -0.173000
     10 CAL         3.3810    0.4460    4.7550 ca        1 FI3     -0.088000
     11 CBN         4.6880    0.3560    5.2380 ca        1 FI3     -0.172300
     12 CBC         4.9610    0.0980    6.6910 c3        1 FI3      0.137300
     13 NCB         4.5290    1.1030    7.6390 n         1 FI3     -0.453300
     14 CBM         5.2060    2.3630    7.7390 c         1 FI3      0.780100
     15 OAG         5.0560    3.0600    8.7570 o         1 FI3     -0.553100
     16 NBG         6.1200    2.7100    6.7120 ns        1 FI3     -0.473100
     17 CBX         6.9000    3.8820    6.8210 ca        1 FI3      0.120600
     18 CBU         7.9690    3.9370    7.7450 ca        1 FI3     -0.050100
     19 ClI         8.2970    2.6060    8.7460 cl        1 FI3     -0.055900
     20 CBT         6.6660    4.9810    5.9580 ca        1 FI3     -0.050100
     21 ClH         5.3900    4.9060    4.8360 cl        1 FI3     -0.055900
     22 CBV         7.4870    6.1210    6.0390 ca        1 FI3      0.178600
     23 OBI         7.2140    7.1370    5.1460 os        1 FI3     -0.309400
     24 CAA         7.9100    8.3630    5.3430 c3        1 FI3      0.112700
     25 CAU         8.5260    6.1890    6.9730 ca        1 FI3     -0.278000
     26 CBW         8.7600    5.1030    7.8210 ca        1 FI3      0.178600
     27 OBJ         9.7790    5.0850    8.7510 os        1 FI3     -0.309400
     28 CAB        10.4960    6.3010    8.9370 c3        1 FI3      0.112700
     29 C4          3.1600    1.0790    8.0440 ca        1 FI3      0.580200
     30 C5          2.6700   -0.0640    8.7200 ca        1 FI3     -0.427600
     31 N3          2.3570    2.1670    7.8020 nb        1 FI3     -0.740000
     32 C2          1.0920    2.0730    8.2700 ca        1 FI3      0.680900
     33 N1          0.5060    1.0440    8.9260 nb        1 FI3     -0.747000
     34 C6          1.3040   -0.0520    9.1500 ca        1 FI3      0.680200
     35 NBH         0.7960   -1.2140    9.7500 nu        1 FI3     -0.713300
     36 CBP        -0.4510   -1.2450   10.4190 ca        1 FI3      0.097600
     37 CAQ        -1.6490   -0.9040    9.7590 ca        1 FI3     -0.112500
     38 CAS        -2.8700   -1.0130   10.4090 ca        1 FI3     -0.156000
     39 CAP        -0.5290   -1.7040   11.7490 ca        1 FI3     -0.112500
     40 CAR        -1.7540   -1.8300   12.3910 ca        1 FI3     -0.156000
     41 CBR        -2.9570   -1.4790   11.7420 ca        1 FI3      0.128600
     42 NCA        -4.2150   -1.5000   12.3950 nh        1 FI3     -0.634000
     43 CAZ        -5.2570   -2.2540   11.7130 c3        1 FI3      0.185300
     44 CAX        -6.6410   -2.0660   12.3650 c3        1 FI3      0.165300
     45 NBZ        -6.6300   -2.3040   13.8010 n3        1 FI3     -0.732600
     46 CAC        -7.9280   -2.1030   14.4040 c3        1 FI3      0.157100
     47 CAY        -5.5810   -1.5520   14.4740 c3        1 FI3      0.165300
     48 CBA        -4.1940   -1.7440   13.8270 c3        1 FI3      0.185300
     49 H1          0.9350    1.9640   -1.3390 hc        1 FI3      0.049033
     50 H2          1.7150    1.3550   -2.8650 hc        1 FI3      0.049033
     51 H3          1.0920    0.1870   -1.6180 hc        1 FI3      0.049033
     52 H4          3.5990    0.3920   -1.5430 hc        1 FI3      0.063700
     53 H5          3.4420    2.1790   -1.2630 hc        1 FI3      0.063700
     54 H6          4.8450    1.0560    0.5790 hn        1 FI3      0.315500
     55 H7          6.3760    0.7110    2.2940 ha        1 FI3      0.155000
     56 H8          6.7890    0.3830    4.6970 ha        1 FI3      0.140500
     57 H9          2.0780    0.7040    3.0580 ha        1 FI3      0.155000
     58 H10         2.5340    0.3720    5.4550 ha        1 FI3      0.140500
     59 H11         4.4520   -0.8710    6.9740 h1        1 FI3      0.071700
     60 H12         6.0720   -0.0390    6.8450 h1        1 FI3      0.071700
     61 H13         5.8540    2.4690    5.7770 hn        1 FI3      0.330500
     62 H14         7.7380    8.7600    6.3730 h1        1 FI3      0.047867
     63 H15         7.4520    9.0400    4.5770 h1        1 FI3      0.047867
     64 H16         9.0010    8.2300    5.1470 h1        1 FI3      0.047867
     65 H17         9.1550    7.0860    7.0360 ha        1 FI3      0.151000
     66 H18        11.0720    6.5620    8.0160 h1        1 FI3      0.047867
     67 H19        11.1920    6.0580    9.7800 h1        1 FI3      0.047867
     68 H20         9.8060    7.1320    9.2220 h1        1 FI3      0.047867
     69 H21         3.3190   -0.9240    8.9240 ha        1 FI3      0.156000
     70 H22         0.4440    2.9590    8.0920 h5        1 FI3      0.058100
     71 H23         1.5010   -1.7770   10.1800 hn        1 FI3      0.423800
     72 H24        -1.6290   -0.5390    8.7200 ha        1 FI3      0.141000
     73 H25        -3.7800   -0.7130    9.8660 ha        1 FI3      0.137000
     74 H26         0.3860   -1.9800   12.2990 ha        1 FI3      0.141000
     75 H27        -1.7600   -2.2070   13.4250 ha        1 FI3      0.137000
     76 H28        -5.3290   -1.8940   10.6490 h1        1 FI3      0.043950
     77 H29        -5.0130   -3.3560   11.6930 h1        1 FI3      0.043950
     78 H30        -7.3420   -2.8140   11.8980 h1        1 FI3      0.038950
     79 H31        -7.0210   -1.0320   12.1150 h1        1 FI3      0.038950
     80 H33        -7.8690   -2.3860   15.4880 h1        1 FI3      0.033367
     81 H34        -8.2960   -1.0430   14.3310 h1        1 FI3      0.033367
     82 H35        -8.6690   -2.7730   13.8950 h1        1 FI3      0.033367
     83 H36        -5.8150   -0.4480   14.5090 h1        1 FI3      0.038950
     84 H37        -5.5160   -1.9270   15.5340 h1        1 FI3      0.038950
     85 H38        -3.4910   -1.0030   14.3000 h1        1 FI3      0.043950
     86 H39        -3.8280   -2.7850   14.0660 h1        1 FI3      0.043950
@<TRIPOS>BOND
     1    1    2 1   
     2    1   49 1   
     3    1   50 1   
     4    1   51 1   
     5    2    3 1   
     6    2   52 1   
     7    2   53 1   
     8    3    4 2   
     9    3    5 1   
    10    5    6 1   
    11    5   54 1   
    12    6    7 ar  
    13    6    9 ar  
    14    7    8 ar  
    15    7   55 1   
    16    8   11 ar  
    17    8   56 1   
    18    9   10 ar  
    19    9   57 1   
    20   10   11 ar  
    21   10   58 1   
    22   11   12 1   
    23   12   13 1   
    24   12   59 1   
    25   12   60 1   
    26   13   14 1   
    27   13   29 1   
    28   14   15 2   
    29   14   16 1   
    30   16   17 1   
    31   16   61 1   
    32   17   18 ar  
    33   17   20 ar  
    34   18   19 1   
    35   18   26 ar  
    36   20   21 1   
    37   20   22 ar  
    38   22   23 1   
    39   22   25 ar  
    40   23   24 1   
    41   24   62 1   
    42   24   63 1   
    43   24   64 1   
    44   25   26 ar  
    45   25   65 1   
    46   26   27 1   
    47   27   28 1   
    48   28   66 1   
    49   28   67 1   
    50   28   68 1   
    51   29   30 ar  
    52   29   31 ar  
    53   30   34 ar  
    54   30   69 1   
    55   31   32 ar  
    56   32   33 ar  
    57   32   70 1   
    58   33   34 ar  
    59   34   35 1   
    60   35   36 1   
    61   35   71 1   
    62   36   37 ar  
    63   36   39 ar  
    64   37   38 ar  
    65   37   72 1   
    66   38   41 ar  
    67   38   73 1   
    68   39   40 ar  
    69   39   74 1   
    70   40   41 ar  
    71   40   75 1   
    72   41   42 1   
    73   42   43 1   
    74   42   48 1   
    75   43   44 1   
    76   43   76 1   
    77   43   77 1   
    78   44   45 1   
    79   44   78 1   
    80   44   79 1   
    81   45   46 1   
    82   45   47 1   
    83   46   80 1   
    84   46   81 1   
    85   46   82 1   
    86   47   48 1   
    87   47   83 1   
    88   47   84 1   
    89   48   85 1   
    90   48   86 1   
@<TRIPOS>SUBSTRUCTURE
     1 FI3         1 TEMP              0 ****  ****    0 ROOT
