@<TRIPOS>MOLECULE
FI3
   86    90     1     0     0
SMALL
bcc


@<TRIPOS>ATOM
      1 CAV         1.6030    1.1480   -1.7640 c3        1 FI3     -0.088100
      2 CAW         2.9500    1.1680   -1.0910 c3        1 FI3     -0.152400
      3 CBL         2.8180    0.9260    0.4060 c         1 FI3      0.664100
      4 OAF         1.7140    0.7490    0.9470 o         1 FI3     -0.579100
      5 NBF         4.0160    0.9180    1.1150 n         1 FI3     -0.477100
      6 CBO         4.1980    0.7250    2.4910 ca        1 FI3      0.085600
      7 CAO         5.5230    0.6340    2.9880 ca        1 FI3     -0.173000
      8 CAM         5.7580    0.4530    4.3440 ca        1 FI3     -0.088000
      9 CAN         3.1300    0.6250    3.4090 ca        1 FI3     -0.173000
     10 CAL         3.3870    0.4390    4.7630 ca        1 FI3     -0.088000
     11 CBN         4.6950    0.3530    5.2470 ca        1 FI3     -0.172300
     12 CBC         4.9670    0.0980    6.7010 c3        1 FI3      0.137300
     13 NCB         4.5330    1.1030    7.6470 n         1 FI3     -0.453300
     14 CBM         5.2100    2.3640    7.7450 c         1 FI3      0.780100
     15 OAG         5.0590    3.0620    8.7630 o         1 FI3     -0.553100
     16 NBG         6.1230    2.7120    6.7180 n         1 FI3     -0.473100
     17 CBX         6.9020    3.8840    6.8250 ca        1 FI3      0.120600
     18 CBU         7.9710    3.9410    7.7490 ca        1 FI3     -0.050100
     19 CLI         8.3020    2.6110    8.7510 cl        1 FI3     -0.055900
     20 CBT         6.6660    4.9830    5.9620 ca        1 FI3     -0.050100
     21 CLH         5.3900    4.9050    4.8400 cl        1 FI3     -0.055900
     22 CBV         7.4860    6.1230    6.0410 ca        1 FI3      0.178600
     23 OBI         7.2110    7.1380    5.1470 os        1 FI3     -0.309400
     24 CAA         7.9050    8.3650    5.3440 c3        1 FI3      0.112700
     25 CAU         8.5260    6.1920    6.9740 ca        1 FI3     -0.278000
     26 CBW         8.7620    5.1070    7.8230 ca        1 FI3      0.178600
     27 OBJ         9.7820    5.0920    8.7520 os        1 FI3     -0.309400
     28 CAB        10.4970    6.3080    8.9360 c3        1 FI3      0.112700
     29 C4          3.1640    1.0810    8.0490 ca        1 FI3      0.580200
     30 C5          2.6710   -0.0620    8.7250 ca        1 FI3     -0.427600
     31 N3          2.3620    2.1680    7.8050 nb        1 FI3     -0.741000
     32 C2          1.0960    2.0750    8.2710 ca        1 FI3      0.680900
     33 N1          0.5080    1.0460    8.9260 nb        1 FI3     -0.747000
     34 C6          1.3050   -0.0500    9.1520 ca        1 FI3      0.680200
     35 NBH         0.7950   -1.2110    9.7510 nh        1 FI3     -0.713300
     36 CBP        -0.4530   -1.2420   10.4180 ca        1 FI3      0.097600
     37 CAQ        -1.6500   -0.9010    9.7550 ca        1 FI3     -0.112500
     38 CAS        -2.8720   -1.0090   10.4020 ca        1 FI3     -0.156000
     39 CAP        -0.5340   -1.7000   11.7480 ca        1 FI3     -0.112500
     40 CAR        -1.7600   -1.8260   12.3870 ca        1 FI3     -0.156000
     41 CBR        -2.9620   -1.4750   11.7350 ca        1 FI3      0.128600
     42 NCA        -4.2220   -1.4940   12.3850 nh        1 FI3     -0.634000
     43 CAZ        -5.2620   -2.2490   11.7010 c3        1 FI3      0.185300
     44 CAX        -6.6480   -2.0590   12.3500 c3        1 FI3      0.165300
     45 NBZ        -6.6400   -2.2970   13.7860 n3        1 FI3     -0.732600
     46 CAC        -7.9390   -2.0950   14.3860 c3        1 FI3      0.157100
     47 CAY        -5.5920   -1.5450   14.4610 c3        1 FI3      0.165300
     48 CBA        -4.2040   -1.7370   13.8170 c3        1 FI3      0.185300
     49 H1          1.1030    0.1610   -1.6100 hc        1 FI3      0.049033
     50 H2          0.9390    1.9380   -1.3340 hc        1 FI3      0.049033
     51 H3          1.7220    1.3300   -2.8580 hc        1 FI3      0.049033
     52 H4          3.4460    2.1620   -1.2570 hc        1 FI3      0.063700
     53 H5          3.6100    0.3760   -1.5340 hc        1 FI3      0.063700
     54 H6          4.8510    1.0460    0.5880 hn        1 FI3      0.315500
     55 H7          6.3830    0.7070    2.3040 ha        1 FI3      0.155000
     56 H8          6.7960    0.3840    4.7070 ha        1 FI3      0.140500
     57 H9          2.0840    0.6910    3.0660 ha        1 FI3      0.155000
     58 H10         2.5400    0.3640    5.4640 ha        1 FI3      0.140500
     59 H11         4.4590   -0.8710    6.9850 h1        1 FI3      0.071700
     60 H12         6.0780   -0.0380    6.8560 h1        1 FI3      0.071700
     61 H13         5.8570    2.4680    5.7830 hn        1 FI3      0.330500
     62 H14         7.7330    8.7620    6.3730 h1        1 FI3      0.047867
     63 H15         7.4450    9.0410    4.5780 h1        1 FI3      0.047867
     64 H16         8.9960    8.2340    5.1470 h1        1 FI3      0.047867
     65 H17         9.1540    7.0910    7.0350 ha        1 FI3      0.151000
     66 H18         9.8070    7.1380    9.2210 h1        1 FI3      0.047867
     67 H19        11.0720    6.5690    8.0140 h1        1 FI3      0.047867
     68 H20        11.1940    6.0660    9.7790 h1        1 FI3      0.047867
     69 H21         3.3200   -0.9220    8.9300 ha        1 FI3      0.156000
     70 H22         0.4490    2.9620    8.0920 h5        1 FI3      0.058100
     71 H23         1.5000   -1.7750   10.1830 hn        1 FI3      0.423800
     72 H24        -1.6270   -0.5360    8.7160 ha        1 FI3      0.141000
     73 H25        -3.7810   -0.7090    9.8570 ha        1 FI3      0.137000
     74 H26         0.3790   -1.9760   12.2990 ha        1 FI3      0.141000
     75 H27        -1.7690   -2.2010   13.4210 ha        1 FI3      0.137000
     76 H28        -5.3320   -1.8890   10.6380 h1        1 FI3      0.043950
     77 H29        -5.0190   -3.3510   11.6830 h1        1 FI3      0.043950
     78 H30        -7.0270   -1.0250   12.0990 h1        1 FI3      0.038950
     79 H31        -7.3480   -2.8070   11.8820 h1        1 FI3      0.038950
     80 H33        -8.6800   -2.7640   13.8760 h1        1 FI3      0.033367
     81 H34        -7.8830   -2.3770   15.4700 h1        1 FI3      0.033367
     82 H35        -8.3060   -1.0340   14.3120 h1        1 FI3      0.033367
     83 H36        -5.5300   -1.9190   15.5210 h1        1 FI3      0.038950
     84 H37        -5.8250   -0.4410   14.4950 h1        1 FI3      0.038950
     85 H38        -3.8390   -2.7780   14.0580 h1        1 FI3      0.043950
     86 H39        -3.5020   -0.9960   14.2920 h1        1 FI3      0.043950
@<TRIPOS>BOND
     1    1    2 1   
     2    1   49 1   
     3    1   50 1   
     4    1   51 1   
     5    2    3 1   
     6    2   52 1   
     7    2   53 1   
     8    3    4 2   
     9    3    5 1   
    10    5    6 1   
    11    5   54 1   
    12    6    7 ar  
    13    6    9 ar  
    14    7    8 ar  
    15    7   55 1   
    16    8   11 ar  
    17    8   56 1   
    18    9   10 ar  
    19    9   57 1   
    20   10   11 ar  
    21   10   58 1   
    22   11   12 1   
    23   12   13 1   
    24   12   59 1   
    25   12   60 1   
    26   13   14 1   
    27   13   29 1   
    28   14   15 2   
    29   14   16 1   
    30   16   17 1   
    31   16   61 1   
    32   17   18 ar  
    33   17   20 ar  
    34   18   19 1   
    35   18   26 ar  
    36   20   21 1   
    37   20   22 ar  
    38   22   23 1   
    39   22   25 ar  
    40   23   24 1   
    41   24   62 1   
    42   24   63 1   
    43   24   64 1   
    44   25   26 ar  
    45   25   65 1   
    46   26   27 1   
    47   27   28 1   
    48   28   66 1   
    49   28   67 1   
    50   28   68 1   
    51   29   30 ar  
    52   29   31 ar  
    53   30   34 ar  
    54   30   69 1   
    55   31   32 ar  
    56   32   33 ar  
    57   32   70 1   
    58   33   34 ar  
    59   34   35 1   
    60   35   36 1   
    61   35   71 1   
    62   36   37 ar  
    63   36   39 ar  
    64   37   38 ar  
    65   37   72 1   
    66   38   41 ar  
    67   38   73 1   
    68   39   40 ar  
    69   39   74 1   
    70   40   41 ar  
    71   40   75 1   
    72   41   42 1   
    73   42   43 1   
    74   42   48 1   
    75   43   44 1   
    76   43   76 1   
    77   43   77 1   
    78   44   45 1   
    79   44   78 1   
    80   44   79 1   
    81   45   46 1   
    82   45   47 1   
    83   46   80 1   
    84   46   81 1   
    85   46   82 1   
    86   47   48 1   
    87   47   83 1   
    88   47   84 1   
    89   48   85 1   
    90   48   86 1   
@<TRIPOS>SUBSTRUCTURE
     1 FI3         1 TEMP              0 ****  ****    0 ROOT
