@<TRIPOS>MOLECULE
FI3
   86    90     1     0     0
SMALL
bcc


@<TRIPOS>ATOM
      1 CAV         1.6190    1.1510   -1.7740 c3        1 FI3     -0.088100
      2 CAW         2.9660    1.1670   -1.0980 c3        1 FI3     -0.152400
      3 CBL         2.8300    0.9270    0.3980 c         1 FI3      0.664100
      4 OAF         1.7240    0.7520    0.9370 o         1 FI3     -0.579100
      5 NBF         4.0260    0.9190    1.1100 n         1 FI3     -0.477100
      6 CBO         4.2050    0.7260    2.4870 ca        1 FI3      0.085600
      7 CAO         5.5290    0.6350    2.9860 ca        1 FI3     -0.173000
      8 CAM         5.7600    0.4560    4.3430 ca        1 FI3     -0.088000
      9 CAN         3.1350    0.6280    3.4020 ca        1 FI3     -0.173000
     10 CAL         3.3890    0.4430    4.7570 ca        1 FI3     -0.088000
     11 CBN         4.6950    0.3570    5.2450 ca        1 FI3     -0.172300
     12 CBC         4.9650    0.1040    6.6990 c3        1 FI3      0.137300
     13 NCB         4.5270    1.1100    7.6430 n         1 FI3     -0.454300
     14 CBM         5.2000    2.3720    7.7410 c         1 FI3      0.780100
     15 OAG         5.0450    3.0720    8.7560 o         1 FI3     -0.553100
     16 NBG         6.1170    2.7190    6.7160 n         1 FI3     -0.473100
     17 CBX         6.8940    3.8930    6.8240 ca        1 FI3      0.120600
     18 CBU         7.9590    3.9540    7.7520 ca        1 FI3     -0.050100
     19 CLI         8.2880    2.6270    8.7580 cl        1 FI3     -0.055900
     20 CBT         6.6590    4.9890    5.9570 ca        1 FI3     -0.050100
     21 CLH         5.3870    4.9070    4.8310 cl        1 FI3     -0.055900
     22 CBV         7.4770    6.1310    6.0370 ca        1 FI3      0.178600
     23 OBI         7.2030    7.1440    5.1400 os        1 FI3     -0.309400
     24 CAA         7.8950    8.3730    5.3350 c3        1 FI3      0.112700
     25 CAU         8.5130    6.2050    6.9740 ca        1 FI3     -0.278000
     26 CBW         8.7470    5.1220    7.8260 ca        1 FI3      0.178600
     27 OBJ         9.7630    5.1110    8.7590 os        1 FI3     -0.309400
     28 CAB        10.4750    6.3290    8.9440 c3        1 FI3      0.112700
     29 C4          3.1580    1.0840    8.0450 ca        1 FI3      0.580200
     30 C5          2.6700   -0.0590    8.7240 ca        1 FI3     -0.427600
     31 N3          2.3520    2.1670    7.7980 nb        1 FI3     -0.740000
     32 C2          1.0860    2.0710    8.2640 ca        1 FI3      0.680900
     33 N1          0.5020    1.0420    8.9220 nb        1 FI3     -0.747000
     34 C6          1.3030   -0.0510    9.1520 ca        1 FI3      0.680200
     35 NBH         0.7980   -1.2120    9.7540 nh        1 FI3     -0.713300
     36 CBP        -0.4510   -1.2450   10.4210 ca        1 FI3      0.097600
     37 CAQ        -1.6480   -0.9100    9.7580 ca        1 FI3     -0.112500
     38 CAS        -2.8700   -1.0210   10.4060 ca        1 FI3     -0.156000
     39 CAP        -0.5290   -1.6990   11.7530 ca        1 FI3     -0.112500
     40 CAR        -1.7550   -1.8270   12.3930 ca        1 FI3     -0.156000
     41 CBR        -2.9580   -1.4830   11.7400 ca        1 FI3      0.128600
     42 NCA        -4.2170   -1.5050   12.3910 nh        1 FI3     -0.634000
     43 CAZ        -5.2550   -2.2660   11.7100 c3        1 FI3      0.185300
     44 CAX        -6.6410   -2.0800   12.3580 c3        1 FI3      0.165300
     45 NBZ        -6.6320   -2.3130   13.7950 n3        1 FI3     -0.732600
     46 CAC        -7.9320   -2.1140   14.3950 c3        1 FI3      0.157100
     47 CAY        -5.5870   -1.5550   14.4670 c3        1 FI3      0.165300
     48 CBA        -4.1980   -1.7440   13.8240 c3        1 FI3      0.185300
     49 H1          0.9570    1.9420   -1.3470 hc        1 FI3      0.049033
     50 H2          1.7420    1.3300   -2.8690 hc        1 FI3      0.049033
     51 H3          1.1170    0.1650   -1.6210 hc        1 FI3      0.049033
     52 H4          3.4640    2.1590   -1.2650 hc        1 FI3      0.063700
     53 H5          3.6240    0.3720   -1.5400 hc        1 FI3      0.063700
     54 H6          4.8630    1.0450    0.5840 hn        1 FI3      0.315500
     55 H7          6.3900    0.7080    2.3040 ha        1 FI3      0.155000
     56 H8          6.7980    0.3870    4.7090 ha        1 FI3      0.140500
     57 H9          2.0900    0.6940    3.0570 ha        1 FI3      0.155000
     58 H10         2.5400    0.3690    5.4560 ha        1 FI3      0.140500
     59 H11         4.4570   -0.8660    6.9830 h1        1 FI3      0.071700
     60 H12         6.0750   -0.0300    6.8560 h1        1 FI3      0.071700
     61 H13         5.8550    2.4740    5.7810 hn        1 FI3      0.330500
     62 H14         7.4380    9.0460    4.5660 h1        1 FI3      0.047867
     63 H15         8.9880    8.2420    5.1430 h1        1 FI3      0.047867
     64 H16         7.7190    8.7720    6.3630 h1        1 FI3      0.047867
     65 H17         9.1380    7.1050    7.0360 ha        1 FI3      0.151000
     66 H18        11.1690    6.0900    9.7910 h1        1 FI3      0.047867
     67 H19         9.7820    7.1590    9.2250 h1        1 FI3      0.047867
     68 H20        11.0530    6.5890    8.0240 h1        1 FI3      0.047867
     69 H21         3.3220   -0.9160    8.9320 ha        1 FI3      0.156000
     70 H22         0.4360    2.9540    8.0820 h5        1 FI3      0.058100
     71 H23         1.5040   -1.7710   10.1880 hn        1 FI3      0.423800
     72 H24        -1.6280   -0.5480    8.7180 ha        1 FI3      0.141000
     73 H25        -3.7800   -0.7260    9.8600 ha        1 FI3      0.137000
     74 H26         0.3850   -1.9700   12.3050 ha        1 FI3      0.141000
     75 H27        -1.7620   -2.2000   13.4280 ha        1 FI3      0.137000
     76 H28        -5.0070   -3.3670   11.6940 h1        1 FI3      0.043950
     77 H29        -5.3270   -1.9090   10.6450 h1        1 FI3      0.043950
     78 H30        -7.3380   -2.8320   11.8930 h1        1 FI3      0.038950
     79 H31        -7.0240   -1.0480   12.1050 h1        1 FI3      0.038950
     80 H33        -8.3030   -1.0550   14.3180 h1        1 FI3      0.033367
     81 H34        -8.6700   -2.7890   13.8880 h1        1 FI3      0.033367
     82 H35        -7.8740   -2.3930   15.4800 h1        1 FI3      0.033367
     83 H36        -5.8240   -0.4520   14.4980 h1        1 FI3      0.038950
     84 H37        -5.5230   -1.9250   15.5290 h1        1 FI3      0.038950
     85 H38        -3.8290   -2.7830   14.0680 h1        1 FI3      0.043950
     86 H39        -3.4980   -0.9990   14.2960 h1        1 FI3      0.043950
@<TRIPOS>BOND
     1    1    2 1   
     2    1   49 1   
     3    1   50 1   
     4    1   51 1   
     5    2    3 1   
     6    2   52 1   
     7    2   53 1   
     8    3    4 2   
     9    3    5 1   
    10    5    6 1   
    11    5   54 1   
    12    6    7 ar  
    13    6    9 ar  
    14    7    8 ar  
    15    7   55 1   
    16    8   11 ar  
    17    8   56 1   
    18    9   10 ar  
    19    9   57 1   
    20   10   11 ar  
    21   10   58 1   
    22   11   12 1   
    23   12   13 1   
    24   12   59 1   
    25   12   60 1   
    26   13   14 1   
    27   13   29 1   
    28   14   15 2   
    29   14   16 1   
    30   16   17 1   
    31   16   61 1   
    32   17   18 ar  
    33   17   20 ar  
    34   18   19 1   
    35   18   26 ar  
    36   20   21 1   
    37   20   22 ar  
    38   22   23 1   
    39   22   25 ar  
    40   23   24 1   
    41   24   62 1   
    42   24   63 1   
    43   24   64 1   
    44   25   26 ar  
    45   25   65 1   
    46   26   27 1   
    47   27   28 1   
    48   28   66 1   
    49   28   67 1   
    50   28   68 1   
    51   29   30 ar  
    52   29   31 ar  
    53   30   34 ar  
    54   30   69 1   
    55   31   32 ar  
    56   32   33 ar  
    57   32   70 1   
    58   33   34 ar  
    59   34   35 1   
    60   35   36 1   
    61   35   71 1   
    62   36   37 ar  
    63   36   39 ar  
    64   37   38 ar  
    65   37   72 1   
    66   38   41 ar  
    67   38   73 1   
    68   39   40 ar  
    69   39   74 1   
    70   40   41 ar  
    71   40   75 1   
    72   41   42 1   
    73   42   43 1   
    74   42   48 1   
    75   43   44 1   
    76   43   76 1   
    77   43   77 1   
    78   44   45 1   
    79   44   78 1   
    80   44   79 1   
    81   45   46 1   
    82   45   47 1   
    83   46   80 1   
    84   46   81 1   
    85   46   82 1   
    86   47   48 1   
    87   47   83 1   
    88   47   84 1   
    89   48   85 1   
    90   48   86 1   
@<TRIPOS>SUBSTRUCTURE
     1 FI3         1 TEMP              0 ****  ****    0 ROOT
