@<TRIPOS>MOLECULE
FI4
   46    39     1     0     0
SMALL
bcc


@<TRIPOS>ATOM
      1 FAD         0.1780   -2.7320    4.1000 f         1 FI4     -0.082000
      2 CAU         1.5190   -2.5930    4.1380 c2        1 FI4      0.131000
      3 CAL         2.1780   -2.6230    5.3450 c2        1 FI4     -0.206000
      4 CAT         3.5650   -2.6180    5.3790 c1        1 FI4      0.119000
      5 FAC         4.2140   -2.6270    6.5720 f         1 FI4     -0.099000
      6 CAH         4.2840   -2.5820    4.2010 c2        1 FI4     -0.175000
      7 CAK         3.6230   -2.5510    2.9880 c1        1 FI4     -0.069000
      8 CAX         2.2420   -2.5570    2.9540 c1        1 FI4      0.006000
      9 OAS         1.5600   -2.6110    1.6990 os        1 FI4     -0.112000
     10 CAW         1.1740   -1.3030    1.3130 c2        1 FI4      0.210000
     11 NAP         1.5340   -0.0670    1.7970 n2        1 FI4     -0.261000
     12 NAO         0.4050   -1.3990    0.1920 n1        1 FI4     -0.263000
     13 CAZ        -0.0040   -0.2850   -0.4430 c1        1 FI4      0.269000
     14 NAQ        -0.7820   -0.5160   -1.6370 n3        1 FI4     -0.300000
     15 CAM        -1.3940   -1.8080   -1.8630 c3        1 FI4     -0.050000
     16 CBD        -2.5910   -1.6450   -2.7440 c3        1 FI4      0.010000
     17 OAB        -2.2030   -1.7940   -4.1020 oh        1 FI4     -0.326000
     18 CAA        -3.6370   -2.7060   -2.3910 c3        1 FI4     -0.248000
     19 CBC         0.3600    0.9710    0.0450 c1        1 FI4     -0.297000
     20 CBB         1.1190    1.0690    1.1520 c1        1 FI4      0.107000
     21 NAR         1.3240    2.4040    1.4060 n1        1 FI4     -0.176000
     22 NAN         0.6770    3.1220    0.4370 n2        1 FI4     -0.040000
     23 CBA         0.0850    2.2520   -0.4010 c1        1 FI4     -0.022000
     24 CAY        -0.4000    3.1660   -1.2700 c1        1 FI4     -0.021000
     25 CAV        -1.6490    3.7080   -1.0690 c1        1 FI4     -0.053000
     26 CLAE       -2.6100    3.2000    0.2990 cl        1 FI4      0.000000
     27 CAJ         0.3270    3.5050   -2.3910 c1        1 FI4     -0.094000
     28 CAG        -0.1980    4.3880   -3.3130 c1        1 FI4     -0.119500
     29 CAF        -1.4600    4.9370   -3.1110 c1        1 FI4     -0.119500
     30 CAI        -2.1800    4.6010   -2.0000 c1        1 FI4     -0.126000
     31 HAL         1.6540   -2.6730    6.2020 ha        1 FI4      0.168000
     32 HAH         5.2650   -2.5790    4.2250 ha        1 FI4      0.157000
     33 HAK         4.1480   -2.5250    2.1270 ha        1 FI4      0.160000
     34 HNAQ       -0.9460    0.1770   -2.2180 hn        1 FI4      0.259000
     35 HAM        -1.6690   -2.1930   -1.0040 h1        1 FI4      0.102000
     36 HAMA       -0.7410   -2.4120   -2.3010 h1        1 FI4      0.102000
     37 HBD        -2.9720   -0.7580   -2.6110 h1        1 FI4      0.126000
     38 HOAB       -2.8720   -1.5810   -4.6210 ho        1 FI4      0.201000
     39 HAA        -4.4190   -2.6030   -2.9770 hc        1 FI4      0.089333
     40 HAAA       -3.2490   -3.6060   -2.5160 hc        1 FI4      0.089333
     41 HAAB       -3.9130   -2.5950   -1.4540 hc        1 FI4      0.089333
     42 HAJ         1.2210    3.1160   -2.5340 ha        1 FI4      0.148000
     43 HAG         0.3170    4.6280   -4.1070 ha        1 FI4      0.140500
     44 HAF        -1.8250    5.5510   -3.7510 ha        1 FI4      0.140500
     45 HAI        -3.0750    4.9890   -1.8570 ha        1 FI4      0.150000
     46 H16         1.8170    2.7590    2.1160 DU        1 FI4      0.288000
@<TRIPOS>BOND
     1    1    2 1   
     2    2    3 1   
     3    2    8 1   
     4    3    4 1   
     5    3   31 1   
     6    4    6 1   
     7    6    7 1   
     8    6   32 1   
     9    7   33 1   
    10    8    9 1   
    11    9   10 1   
    12   10   11 1   
    13   10   12 1   
    14   11   20 1   
    15   13   14 1   
    16   13   19 1   
    17   14   15 1   
    18   14   34 1   
    19   15   16 1   
    20   15   35 1   
    21   15   36 1   
    22   16   17 1   
    23   16   18 1   
    24   16   37 1   
    25   17   38 1   
    26   18   39 1   
    27   18   40 1   
    28   18   41 1   
    29   21   22 1   
    30   22   23 1   
    31   23   24 1   
    32   24   27 1   
    33   25   26 1   
    34   25   30 1   
    35   27   42 1   
    36   28   29 1   
    37   28   43 1   
    38   29   44 1   
    39   30   45 1   
@<TRIPOS>SUBSTRUCTURE
     1 FI4         1 TEMP              0 ****  ****    0 ROOT
