@<TRIPOS>MOLECULE
FI4
   46    49     1     0     0
SMALL
bcc


@<TRIPOS>ATOM
      1 FAD         3.8190    0.3220    2.0600 f         1 FI4     -0.116900
      2 CAU         4.5490    0.0420    0.9600 ca        1 FI4      0.170900
      3 CAL         5.8360    0.5870    0.8190 ca        1 FI4     -0.206000
      4 CAT         6.5860    0.2870   -0.3310 ca        1 FI4      0.153900
      5 FAC         7.8270    0.8100   -0.4690 f         1 FI4     -0.133900
      6 CAH         6.0650   -0.5470   -1.3390 ca        1 FI4     -0.177000
      7 CAK         4.7890   -1.0790   -1.1990 ca        1 FI4     -0.073000
      8 CAX         4.0370   -0.7980   -0.0540 ca        1 FI4      0.049100
      9 OAS         2.8270   -1.4700    0.1180 os        1 FI4     -0.328400
     10 CAW         1.6600   -0.7200   -0.0560 ca        1 FI4      0.904300
     11 NAP         1.7590    0.6170   -0.3210 nb        1 FI4     -0.781000
     12 NAO         0.5520   -1.5250    0.0820 nb        1 FI4     -0.786000
     13 CAZ        -0.6700   -0.9090   -0.0410 ca        1 FI4      0.778200
     14 NAQ        -1.8340   -1.6170    0.1690 nh        1 FI4     -0.842900
     15 CAM        -1.8370   -3.0510    0.3100 c3        1 FI4      0.214800
     16 CBD        -3.2290   -3.6050    0.6750 c3        1 FI4      0.124100
     17 OAB        -4.0840   -3.3110   -0.4240 oh        1 FI4     -0.610800
     18 CAA        -3.1340   -5.0990    0.9190 c3        1 FI4     -0.132100
     19 CBC        -0.7340    0.4890   -0.3390 ca        1 FI4     -0.508500
     20 CBB         0.5290    1.1970   -0.4570 ca        1 FI4      0.497800
     21 NAR         0.1910    2.5280   -0.7400 na        1 FI4     -0.109800
     22 NAN        -1.1360    2.7070   -0.7800 nc        1 FI4     -0.498100
     23 CBA        -1.7420    1.5120   -0.5540 cd        1 FI4      0.429500
     24 CAY        -3.1860    1.3190   -0.5450 ca        1 FI4     -0.099900
     25 CAV        -3.9980    1.9070    0.4380 ca        1 FI4      0.042400
     26 CLAE       -3.3250    2.8540    1.6760 cl        1 FI4     -0.072400
     27 CAJ        -3.7830    0.5430   -1.5490 ca        1 FI4     -0.113000
     28 CAG        -5.1620    0.3540   -1.5690 ca        1 FI4     -0.127000
     29 CAF        -5.9620    0.9390   -0.5870 ca        1 FI4     -0.115000
     30 CAI        -5.3850    1.7140    0.4160 ca        1 FI4     -0.130000
     31 HAL         6.2490    1.2410    1.6000 ha        1 FI4      0.168000
     32 HAH         6.6700   -0.7660   -2.2300 ha        1 FI4      0.157000
     33 HAK         4.3640   -1.7320   -1.9780 ha        1 FI4      0.160000
     34 HNAQ       -2.6800   -1.1920   -0.1480 hn        1 FI4      0.454800
     35 HAM        -1.4970   -3.5410   -0.6480 h1        1 FI4      0.067700
     36 HAMA       -1.1220   -3.3430    1.1310 h1        1 FI4      0.067700
     37 HBD        -3.6280   -3.0910    1.5950 h1        1 FI4      0.047700
     38 HOAB       -4.9230   -3.7550   -0.2540 ho        1 FI4      0.407000
     39 HAA        -2.7720   -5.6210    0.0010 hc        1 FI4      0.049367
     40 HAAA       -2.4270   -5.3080    1.7570 hc        1 FI4      0.049367
     41 HAAB       -4.1380   -5.5080    1.1870 hc        1 FI4      0.049367
     42 HAJ        -3.1520    0.0910   -2.3300 ha        1 FI4      0.147000
     43 HAG        -5.6190   -0.2570   -2.3610 ha        1 FI4      0.141000
     44 HAF        -7.0530    0.7930   -0.6040 ha        1 FI4      0.139000
     45 HAI        -6.0170    2.1770    1.1890 ha        1 FI4      0.150000
     46 H16         0.8120    3.2990   -0.8230 hn        1 FI4      0.339700
@<TRIPOS>BOND
     1    1    2 1   
     2    2    3 ar  
     3    2    8 ar  
     4    3    4 ar  
     5    3   31 1   
     6    4    5 1   
     7    4    6 ar  
     8    6    7 ar  
     9    6   32 1   
    10    7    8 ar  
    11    7   33 1   
    12    8    9 1   
    13    9   10 1   
    14   10   11 ar  
    15   10   12 ar  
    16   11   20 ar  
    17   12   13 ar  
    18   13   14 1   
    19   13   19 ar  
    20   14   15 1   
    21   14   34 1   
    22   15   16 1   
    23   15   35 1   
    24   15   36 1   
    25   16   17 1   
    26   16   18 1   
    27   16   37 1   
    28   17   38 1   
    29   18   39 1   
    30   18   40 1   
    31   18   41 1   
    32   19   20 ar  
    33   19   23 1   
    34   20   21 1   
    35   21   22 1   
    36   21   46 1   
    37   22   23 2   
    38   23   24 1   
    39   24   25 ar  
    40   24   27 ar  
    41   25   26 1   
    42   25   30 ar  
    43   27   28 ar  
    44   27   42 1   
    45   28   29 ar  
    46   28   43 1   
    47   29   30 ar  
    48   29   44 1   
    49   30   45 1   
@<TRIPOS>SUBSTRUCTURE
     1 FI4         1 TEMP              0 ****  ****    0 ROOT
