@<TRIPOS>MOLECULE
FI4
   46    49     1     0     0
SMALL
bcc


@<TRIPOS>ATOM
      1 FAD         0.0970    0.4950    0.0910 f         1 FI4     -0.116900
      2 CAU         1.4140    0.2040    0.0750 ca        1 FI4      0.170900
      3 CAL         2.1070    0.0350    1.2860 ca        1 FI4     -0.206000
      4 CAT         3.4780   -0.2680    1.2540 ca        1 FI4      0.153900
      5 FAC         4.1490   -0.4330    2.4190 f         1 FI4     -0.133900
      6 CAH         4.1640   -0.4000    0.0310 ca        1 FI4     -0.177000
      7 CAK         3.4780   -0.2250   -1.1640 ca        1 FI4     -0.073000
      8 CAX         2.1100    0.0650   -1.1470 ca        1 FI4      0.049100
      9 OAS         1.4270    0.0820   -2.3630 os        1 FI4     -0.328400
     10 CAW         1.0360    1.3350   -2.8470 ca        1 FI4      0.904300
     11 NAP         1.2840    2.4480   -2.0940 nb        1 FI4     -0.781000
     12 NAO         0.4320    1.2020   -4.0760 nb        1 FI4     -0.786000
     13 CAZ        -0.0260    2.3590   -4.6600 ca        1 FI4      0.778200
     14 NAQ        -0.7220    2.3140   -5.8490 nh        1 FI4     -0.842900
     15 CAM        -0.8130    1.1080   -6.6320 c3        1 FI4      0.214800
     16 CBD        -1.7540    1.2600   -7.8440 c3        1 FI4      0.124100
     17 OAB        -1.1680    2.2420   -8.6920 oh        1 FI4     -0.610800
     18 CAA        -1.8910   -0.0730   -8.5530 c3        1 FI4     -0.132100
     19 CBC         0.1760    3.6140   -4.0040 ca        1 FI4     -0.508500
     20 CBB         0.8340    3.5830   -2.7090 ca        1 FI4      0.497800
     21 NAR         0.9010    4.9180   -2.2870 na        1 FI4     -0.109800
     22 NAN         0.3330    5.7490   -3.1710 nc        1 FI4     -0.498100
     23 CBA        -0.1120    5.0190   -4.2270 cd        1 FI4      0.429500
     24 CAY        -0.7690    5.5930   -5.3950 ca        1 FI4     -0.099900
     25 CAV        -2.0270    6.2090   -5.3010 ca        1 FI4      0.042400
     26 CLAE       -2.8500    6.2920   -3.8180 cl        1 FI4     -0.072400
     27 CAJ        -0.1240    5.5440   -6.6390 ca        1 FI4     -0.113000
     28 CAG        -0.7260    6.0960   -7.7680 ca        1 FI4     -0.127000
     29 CAF        -1.9770    6.7040   -7.6660 ca        1 FI4     -0.115000
     30 CAI        -2.6300    6.7610   -6.4380 ca        1 FI4     -0.130000
     31 HAL         1.5800    0.1400    2.2440 ha        1 FI4      0.168000
     32 HAH         5.2380   -0.6360    0.0330 ha        1 FI4      0.157000
     33 HAK         3.9970   -0.3230   -2.1300 ha        1 FI4      0.160000
     34 HNAQ       -0.8320    3.1790   -6.3370 hn        1 FI4      0.454800
     35 HAM        -1.2150    0.2770   -5.9840 h1        1 FI4      0.067700
     36 HAMA        0.2070    0.8040   -7.0070 h1        1 FI4      0.067700
     37 HBD        -2.7680    1.6250   -7.5110 h1        1 FI4      0.047700
     38 HOAB       -1.6880    2.2590   -9.5040 ho        1 FI4      0.407000
     39 HAA        -0.8960   -0.4260   -8.9160 hc        1 FI4      0.049367
     40 HAAA       -2.3140   -0.8370   -7.8570 hc        1 FI4      0.049367
     41 HAAB       -2.5740    0.0280   -9.4310 hc        1 FI4      0.049367
     42 HAJ         0.8690    5.0740   -6.7170 ha        1 FI4      0.147000
     43 HAG        -0.2100    6.0520   -8.7390 ha        1 FI4      0.141000
     44 HAF        -2.4510    7.1430   -8.5570 ha        1 FI4      0.139000
     45 HAI        -3.6160    7.2430   -6.3580 ha        1 FI4      0.150000
     46 H16         1.2370    5.2550   -1.4150 hn        1 FI4      0.339700
@<TRIPOS>BOND
     1    1    2 1   
     2    2    3 ar  
     3    2    8 ar  
     4    3    4 ar  
     5    3   31 1   
     6    4    5 1   
     7    4    6 ar  
     8    6    7 ar  
     9    6   32 1   
    10    7    8 ar  
    11    7   33 1   
    12    8    9 1   
    13    9   10 1   
    14   10   11 ar  
    15   10   12 ar  
    16   11   20 ar  
    17   12   13 ar  
    18   13   14 1   
    19   13   19 ar  
    20   14   15 1   
    21   14   34 1   
    22   15   16 1   
    23   15   35 1   
    24   15   36 1   
    25   16   17 1   
    26   16   18 1   
    27   16   37 1   
    28   17   38 1   
    29   18   39 1   
    30   18   40 1   
    31   18   41 1   
    32   19   20 ar  
    33   19   23 1   
    34   20   21 1   
    35   21   22 1   
    36   21   46 1   
    37   22   23 2   
    38   23   24 1   
    39   24   25 ar  
    40   24   27 ar  
    41   25   26 1   
    42   25   30 ar  
    43   27   28 ar  
    44   27   42 1   
    45   28   29 ar  
    46   28   43 1   
    47   29   30 ar  
    48   29   44 1   
    49   30   45 1   
@<TRIPOS>SUBSTRUCTURE
     1 FI4         1 TEMP              0 ****  ****    0 ROOT
