@<TRIPOS>MOLECULE
FI4
   46    49     1     0     0
SMALL
bcc


@<TRIPOS>ATOM
      1 FAD         0.0970    0.4890    0.0900 f         1 FI4     -0.116900
      2 CAU         1.4160    0.2010    0.0740 ca        1 FI4      0.170900
      3 CAL         2.1090    0.0320    1.2840 ca        1 FI4     -0.206000
      4 CAT         3.4800   -0.2670    1.2530 ca        1 FI4      0.153900
      5 FAC         4.1510   -0.4330    2.4180 f         1 FI4     -0.133900
      6 CAH         4.1670   -0.3970    0.0300 ca        1 FI4     -0.177000
      7 CAK         3.4810   -0.2220   -1.1650 ca        1 FI4     -0.073000
      8 CAX         2.1120    0.0650   -1.1480 ca        1 FI4      0.049100
      9 OAS         1.4300    0.0820   -2.3650 os        1 FI4     -0.328400
     10 CAW         1.0360    1.3350   -2.8470 ca        1 FI4      0.904300
     11 NAP         1.2800    2.4480   -2.0930 nb        1 FI4     -0.781000
     12 NAO         0.4340    1.2030   -4.0770 nb        1 FI4     -0.786000
     13 CAZ        -0.0260    2.3590   -4.6600 ca        1 FI4      0.778200
     14 NAQ        -0.7200    2.3140   -5.8500 nu        1 FI4     -0.842900
     15 CAM        -0.8080    1.1080   -6.6350 c3        1 FI4      0.214800
     16 CBD        -1.7480    1.2610   -7.8480 c3        1 FI4      0.124100
     17 OAB        -1.1630    2.2440   -8.6940 oh        1 FI4     -0.610800
     18 CAA        -1.8810   -0.0720   -8.5580 c3        1 FI4     -0.132100
     19 CBC         0.1720    3.6140   -4.0020 ca        1 FI4     -0.508500
     20 CBB         0.8290    3.5820   -2.7070 ca        1 FI4      0.497800
     21 NAR         0.8920    4.9170   -2.2820 na        1 FI4     -0.109800
     22 NAN         0.3230    5.7480   -3.1660 nc        1 FI4     -0.498100
     23 CBA        -0.1190    5.0180   -4.2240 cd        1 FI4      0.429500
     24 CAY        -0.7750    5.5930   -5.3920 ca        1 FI4     -0.099900
     25 CAV        -2.0350    6.2060   -5.2980 ca        1 FI4      0.042400
     26 ClAE       -2.8590    6.2860   -3.8160 cl        1 FI4     -0.072400
     27 CAJ        -0.1290    5.5460   -6.6350 ca        1 FI4     -0.113000
     28 CAG        -0.7300    6.0980   -7.7640 ca        1 FI4     -0.127000
     29 CAF        -1.9830    6.7040   -7.6630 ca        1 FI4     -0.115000
     30 CAI        -2.6370    6.7580   -6.4350 ca        1 FI4     -0.130000
     31 HAL         1.5800    0.1340    2.2430 ha        1 FI4      0.168000
     32 HAH         5.2420   -0.6300    0.0320 ha        1 FI4      0.157000
     33 HAK         4.0010   -0.3170   -2.1310 ha        1 FI4      0.160000
     34 HNAQ       -0.8320    3.1790   -6.3370 hn        1 FI4      0.454800
     35 HAM         0.2130    0.8080   -7.0090 h1        1 FI4      0.067700
     36 HAMA       -1.2080    0.2760   -5.9890 h1        1 FI4      0.067700
     37 HBD        -2.7630    1.6220   -7.5160 h1        1 FI4      0.047700
     38 HOAB       -1.6820    2.2610   -9.5060 ho        1 FI4      0.407000
     39 HAA        -2.5630    0.0290   -9.4370 hc        1 FI4      0.049367
     40 HAAA       -0.8850   -0.4230   -8.9210 hc        1 FI4      0.049367
     41 HAAB       -2.3030   -0.8380   -7.8640 hc        1 FI4      0.049367
     42 HAJ         0.8650    5.0780   -6.7120 ha        1 FI4      0.147000
     43 HAG        -0.2140    6.0560   -8.7340 ha        1 FI4      0.141000
     44 HAF        -2.4570    7.1430   -8.5540 ha        1 FI4      0.139000
     45 HAI        -3.6250    7.2380   -6.3550 ha        1 FI4      0.150000
     46 H16         1.2260    5.2530   -1.4090 hn        1 FI4      0.339700
@<TRIPOS>BOND
     1    1    2 1   
     2    2    3 ar  
     3    2    8 ar  
     4    3    4 ar  
     5    3   31 1   
     6    4    5 1   
     7    4    6 ar  
     8    6    7 ar  
     9    6   32 1   
    10    7    8 ar  
    11    7   33 1   
    12    8    9 1   
    13    9   10 1   
    14   10   11 ar  
    15   10   12 ar  
    16   11   20 ar  
    17   12   13 ar  
    18   13   14 1   
    19   13   19 ar  
    20   14   15 1   
    21   14   34 1   
    22   15   16 1   
    23   15   35 1   
    24   15   36 1   
    25   16   17 1   
    26   16   18 1   
    27   16   37 1   
    28   17   38 1   
    29   18   39 1   
    30   18   40 1   
    31   18   41 1   
    32   19   20 ar  
    33   19   23 1   
    34   20   21 1   
    35   21   22 1   
    36   21   46 1   
    37   22   23 2   
    38   23   24 1   
    39   24   25 ar  
    40   24   27 ar  
    41   25   26 1   
    42   25   30 ar  
    43   27   28 ar  
    44   27   42 1   
    45   28   29 ar  
    46   28   43 1   
    47   29   30 ar  
    48   29   44 1   
    49   30   45 1   
@<TRIPOS>SUBSTRUCTURE
     1 FI4         1 TEMP              0 ****  ****    0 ROOT
