@<TRIPOS>MOLECULE
FI4
   47    50     1     0     0
SMALL
bcc


@<TRIPOS>ATOM
      1 FAD         0.2320    1.0840    0.2620 f         1 FI4     -0.119900
      2 CAU         1.4470    0.4990    0.1970 ca        1 FI4      0.173900
      3 CAL         2.2050    0.3110    1.3630 ca        1 FI4     -0.199000
      4 CAT         3.4710   -0.2950    1.2680 ca        1 FI4      0.182900
      5 FAC         4.2030   -0.4790    2.3870 f         1 FI4     -0.111900
      6 CAH         3.9860   -0.7100    0.0220 ca        1 FI4     -0.171000
      7 CAK         3.2370   -0.5180   -1.1320 ca        1 FI4     -0.059000
      8 CAX         1.9730    0.0730   -1.0430 ca        1 FI4      0.004100
      9 OAS         1.1810    0.0990   -2.1980 os        1 FI4     -0.299400
     10 CAW         0.9350    1.3370   -2.7650 ca        1 FI4      0.903300
     11 NAP         1.5080    2.4710   -2.2590 nb        1 FI4     -0.685000
     12 NAO         0.0690    1.2120   -3.8480 nb        1 FI4     -0.701000
     13 CAZ        -0.2540    2.3590   -4.4800 ca        1 FI4      0.606200
     14 NAQ        -1.2020    2.2980   -5.6150 n4        1 FI4     -0.748700
     15 CAM        -1.0430    1.0890   -6.4780 c3        1 FI4      0.080800
     16 CBD        -1.9090    1.1970   -7.7540 c3        1 FI4      0.124100
     17 OAB        -1.6280    2.4370   -8.3780 oh        1 FI4     -0.618800
     18 CAA        -1.6440   -0.0040   -8.6360 c3        1 FI4     -0.138100
     19 CBC         0.2460    3.6120   -4.0920 ca        1 FI4     -0.458500
     20 CBB         1.1530    3.5970   -2.9340 ca        1 FI4      0.501800
     21 NAR         1.5260    4.9320   -2.7400 na        1 FI4     -0.086800
     22 NAN         0.9440    5.7450   -3.6270 nc        1 FI4     -0.430100
     23 CBA         0.1660    5.0160   -4.4670 cd        1 FI4      0.422500
     24 CAY        -0.5920    5.5820   -5.5740 ca        1 FI4     -0.143900
     25 CAV        -1.9930    5.4900   -5.6420 ca        1 FI4     -0.005600
     26 CLAE       -2.8830    4.6960   -4.4220 cl        1 FI4     -0.097400
     27 CAJ         0.0920    6.2830   -6.5770 ca        1 FI4     -0.084000
     28 CAG        -0.6060    6.8670   -7.6330 ca        1 FI4     -0.115000
     29 CAF        -1.9960    6.7670   -7.6930 ca        1 FI4     -0.090000
     30 CAI        -2.6930    6.0830   -6.6970 ca        1 FI4     -0.111000
     31 HAL         1.8100    0.6310    2.3400 ha        1 FI4      0.182000
     32 HAH         4.9790   -1.1830   -0.0250 ha        1 FI4      0.173000
     33 HAK         3.6220   -0.8410   -2.1120 ha        1 FI4      0.164000
     34 HNAQ       -2.1590    2.3290   -5.2330 hn        1 FI4      0.478300
     35 HAM        -1.3460    0.1740   -5.8930 hx        1 FI4      0.119700
     36 HAMA        0.0440    1.0010   -6.7560 hx        1 FI4      0.119700
     37 HBD        -3.0020    1.2460   -7.4730 h1        1 FI4      0.088700
     38 HOAB       -1.0790    2.2800   -9.1580 ho        1 FI4      0.437000
     39 HAA        -2.2640    0.0720   -9.5640 hc        1 FI4      0.072367
     40 HAAA       -1.9180   -0.9460   -8.1020 hc        1 FI4      0.072367
     41 HAAB       -0.5680   -0.0560   -8.9290 hc        1 FI4      0.072367
     42 HAJ         1.1880    6.3850   -6.5180 ha        1 FI4      0.159000
     43 HAG        -0.0570    7.4210   -8.4120 ha        1 FI4      0.161000
     44 HAF        -2.5500    7.2400   -8.5200 ha        1 FI4      0.162000
     45 HAI        -3.7930    6.0250   -6.7350 ha        1 FI4      0.166000
     46 H16         2.1070    5.2960   -2.0120 hn        1 FI4      0.368700
     47 HAQ2       -1.0650    3.1460   -6.1980 hn        1 FI4      0.478300
@<TRIPOS>BOND
     1    1    2 1   
     2    2    3 ar  
     3    2    8 ar  
     4    3    4 ar  
     5    3   31 1   
     6    4    5 1   
     7    4    6 ar  
     8    6    7 ar  
     9    6   32 1   
    10    7    8 ar  
    11    7   33 1   
    12    8    9 1   
    13    9   10 1   
    14   10   11 ar  
    15   10   12 ar  
    16   11   20 ar  
    17   12   13 ar  
    18   13   14 1   
    19   13   19 ar  
    20   14   15 1   
    21   14   34 1   
    22   14   47 1   
    23   15   16 1   
    24   15   35 1   
    25   15   36 1   
    26   16   17 1   
    27   16   18 1   
    28   16   37 1   
    29   17   38 1   
    30   18   39 1   
    31   18   40 1   
    32   18   41 1   
    33   19   20 ar  
    34   19   23 1   
    35   20   21 1   
    36   21   22 1   
    37   21   46 1   
    38   22   23 2   
    39   23   24 1   
    40   24   25 ar  
    41   24   27 ar  
    42   25   26 1   
    43   25   30 ar  
    44   27   28 ar  
    45   27   42 1   
    46   28   29 ar  
    47   28   43 1   
    48   29   30 ar  
    49   29   44 1   
    50   30   45 1   
@<TRIPOS>SUBSTRUCTURE
     1 FI4         1 TEMP              0 ****  ****    0 ROOT
