@<TRIPOS>MOLECULE
FIC
   18    14     1     0     0
SMALL
bcc


@<TRIPOS>ATOM
      1 O12        -1.9540   -1.1190    3.5280 o         1 FIC     -0.548500
      2 C10        -1.7180   -0.0080    2.9900 c2        1 FIC      0.377000
      3 O11        -2.0940    1.0560    3.5510 o         1 FIC     -0.548500
      4 C2         -0.9850    0.0520    1.6680 c2        1 FIC     -0.019000
      5 N1         -1.5380    0.0550    0.4180 n2        1 FIC     -0.189000
      6 C3          0.3880    0.0180    1.5280 c1        1 FIC     -0.234000
      7 C9          0.6770    0.0010    0.1810 c1        1 FIC     -0.056000
      8 C4          1.8950   -0.0400   -0.5210 c1        1 FIC     -0.133000
      9 C5          1.8960   -0.0580   -1.9080 c1        1 FIC      0.029000
     10 F14         2.9640    0.0240   -2.7120 f         1 FIC     -0.139000
     11 C6          0.6960   -0.0360   -2.6040 c1        1 FIC     -0.179000
     12 C7         -0.5070    0.0050   -1.9120 c1        1 FIC     -0.126000
     13 C8         -0.5080    0.0230   -0.5060 c1        1 FIC     -0.034000
     14 H3          1.1020   -0.0490    2.1870 DU        1 FIC      0.210000
     15 H4          2.7410   -0.0560   -0.0310 ha        1 FIC      0.134000
     16 H6          0.6980   -0.0350   -3.5810 ha        1 FIC      0.123000
     17 H7         -1.3510    0.0210   -2.4020 ha        1 FIC      0.121000
     18 HN1        -2.4030    0.1460    0.1240 DU        1 FIC      0.210000
@<TRIPOS>BOND
     1    1    2 1   
     2    2    3 1   
     3    2    4 1   
     4    4    5 1   
     5    4    6 1   
     6    5   13 1   
     7    6    7 1   
     8    7    8 1   
     9    8   15 1   
    10    9   10 1   
    11    9   11 1   
    12   11   16 1   
    13   12   13 1   
    14   12   17 1   
@<TRIPOS>SUBSTRUCTURE
     1 FIC         1 TEMP              0 ****  ****    0 ROOT
