@<TRIPOS>MOLECULE
FIC
   18    19     1     0     0
SMALL
bcc


@<TRIPOS>ATOM
      1 O12        -0.0040    0.0080   -0.1440 o         1 FIC     -0.813800
      2 C10         1.2480    0.0010    0.0180 c         1 FIC      0.926800
      3 O11         1.8450   -0.0040    1.1240 o         1 FIC     -0.813800
      4 C2          2.1090   -0.0010   -1.2410 cc        1 FIC     -0.065300
      5 N1          1.5260    0.0050   -2.5140 na        1 FIC     -0.166400
      6 C3          3.5030   -0.0090   -1.3700 cd        1 FIC     -0.222200
      7 C9          3.8090   -0.0080   -2.7760 ca        1 FIC     -0.067800
      8 C4          4.9910   -0.0130   -3.5110 ca        1 FIC     -0.133000
      9 C5          4.9100   -0.0100   -4.9080 ca        1 FIC      0.063900
     10 F14         6.0530   -0.0150   -5.6480 f         1 FIC     -0.173900
     11 C6          3.6650   -0.0010   -5.5840 ca        1 FIC     -0.179000
     12 C7          2.4750    0.0040   -4.8750 ca        1 FIC     -0.126000
     13 C8          2.5300    0.0010   -3.4750 ca        1 FIC     -0.079200
     14 H3          4.2110   -0.0150   -0.5480 ha        1 FIC      0.160000
     15 H4          5.9670   -0.0200   -3.0090 ha        1 FIC      0.134000
     16 H6          3.6580    0.0010   -6.6820 ha        1 FIC      0.123000
     17 H7          1.5120    0.0110   -5.4010 ha        1 FIC      0.121000
     18 HN1         0.5520    0.0110   -2.6680 hn        1 FIC      0.309700
@<TRIPOS>BOND
     1    1    2 1   
     2    2    3 1   
     3    2    4 1   
     4    4    5 1   
     5    4    6 2   
     6    5   13 1   
     7    5   18 1   
     8    6    7 1   
     9    6   14 1   
    10    7    8 ar  
    11    7   13 ar  
    12    8    9 ar  
    13    8   15 1   
    14    9   10 1   
    15    9   11 ar  
    16   11   12 ar  
    17   11   16 1   
    18   12   13 ar  
    19   12   17 1   
@<TRIPOS>SUBSTRUCTURE
     1 FIC         1 TEMP              0 ****  ****    0 ROOT
