@<TRIPOS>MOLECULE
FIC
   18    19     1     0     0
SMALL
bcc


@<TRIPOS>ATOM
      1 O12        -3.7810   -0.9600   -0.0010 o         1 FIC     -0.813800
      2 C10        -3.1830    0.1530   -0.0010 c         1 FIC      0.926800
      3 O11        -3.7340    1.2820   -0.0020 o         1 FIC     -0.813800
      4 C2         -1.6580    0.1180   -0.0010 cc        1 FIC     -0.065300
      5 N1         -0.9640   -1.0970   -0.0000 na        1 FIC     -0.166400
      6 C3         -0.7410    1.1760   -0.0010 cd        1 FIC     -0.222200
      7 C9          0.5800    0.6050   -0.0000 ca        1 FIC     -0.067800
      8 C4          1.8670    1.1370   -0.0000 ca        1 FIC     -0.133000
      9 C5          2.9550    0.2570    0.0000 ca        1 FIC      0.063900
     10 F14         4.2220    0.7550    0.0010 f         1 FIC     -0.173900
     11 C6          2.7780   -1.1480    0.0010 ca        1 FIC     -0.179000
     12 C7          1.5080   -1.7020    0.0000 ca        1 FIC     -0.126000
     13 C8          0.4030   -0.8410   -0.0000 ca        1 FIC     -0.079200
     14 H3         -0.9970    2.2300   -0.0010 ha        1 FIC      0.160000
     15 H4          2.0270    2.2230   -0.0000 ha        1 FIC      0.134000
     16 H6          3.6660   -1.7930    0.0010 ha        1 FIC      0.123000
     17 H7          1.3750   -2.7920    0.0010 ha        1 FIC      0.121000
     18 HN1        -1.4060   -1.9790   -0.0000 hn        1 FIC      0.309700
@<TRIPOS>BOND
     1    1    2 1   
     2    2    3 1   
     3    2    4 1   
     4    4    5 1   
     5    4    6 2   
     6    5   13 1   
     7    5   18 1   
     8    6    7 1   
     9    6   14 1   
    10    7    8 ar  
    11    7   13 ar  
    12    8    9 ar  
    13    8   15 1   
    14    9   10 1   
    15    9   11 ar  
    16   11   12 ar  
    17   11   16 1   
    18   12   13 ar  
    19   12   17 1   
@<TRIPOS>SUBSTRUCTURE
     1 FIC         1 TEMP              0 ****  ****    0 ROOT
