@<TRIPOS>MOLECULE
FID
   30    32     1     0     0
SMALL
bcc


@<TRIPOS>ATOM
      1 C2I         2.8070    0.8080   -1.6230 c         1 FID      0.781500
      2 N4          2.9160   -0.5610   -1.2500 n         1 FID     -0.607500
      3 C5          1.9100   -0.9050   -0.3400 c         1 FID      0.699500
      4 C7I         1.0180    0.3780   -0.1350 c3        1 FID      0.071700
      5 C12        -0.3690    0.1070   -0.6580 ca        1 FID     -0.155300
      6 C13        -0.6210    0.0850   -2.0340 ca        1 FID     -0.130000
      7 C14        -1.9210   -0.1470   -2.5090 ca        1 FID      0.102900
      8 F17        -2.1560   -0.1620   -3.8430 f         1 FID     -0.132900
      9 C15        -2.9830   -0.3670   -1.6080 ca        1 FID     -0.120000
     10 C16        -2.7370   -0.3630   -0.2460 ca        1 FID     -0.129000
     11 C11        -1.4320   -0.1290    0.2280 ca        1 FID      0.146100
     12 O10        -1.3100   -0.1240    1.6040 os        1 FID     -0.331900
     13 C9          0.0420   -0.2400    2.0840 c3        1 FID      0.061100
     14 C19         0.0400    0.0530    3.5900 c         1 FID      0.663100
     15 N21        -1.0460   -0.3130    4.3370 n         1 FID     -0.651000
     16 O20         1.0520    0.5490    4.1240 o         1 FID     -0.606100
     17 C8I         0.9640    0.7260    1.3610 c3        1 FID     -0.088400
     18 N1I         1.7540    1.4200   -0.8830 n         1 FID     -0.512900
     19 O6I         1.7690   -2.0040    0.1960 o         1 FID     -0.571500
     20 O3I         3.5500    1.3760   -2.4370 o         1 FID     -0.593500
     21 H4          3.6680   -1.1400   -1.5290 hn        1 FID      0.362500
     22 H13         0.1900    0.2390   -2.7620 ha        1 FID      0.153000
     23 H15        -3.9970   -0.5460   -1.9970 ha        1 FID      0.159000
     24 H16        -3.5480   -0.5380    0.4770 ha        1 FID      0.159000
     25 H9          0.3800   -1.3080    1.9300 h1        1 FID      0.108700
     26 H211       -1.0600   -0.1040    5.3050 hn        1 FID      0.320500
     27 H212       -1.8810   -0.6030    3.8940 hn        1 FID      0.320500
     28 H8I1        0.5880    1.7750    1.4920 hc        1 FID      0.096200
     29 H8I2        1.9870    0.6720    1.8180 hc        1 FID      0.096200
     30 H1I         1.2180    2.1180   -1.3450 hn        1 FID      0.327500
@<TRIPOS>BOND
     1    1    2 1   
     2    1   18 1   
     3    1   20 2   
     4    2    3 1   
     5    2   21 1   
     6    3    4 1   
     7    3   19 2   
     8    4    5 1   
     9    4   17 1   
    10    4   18 1   
    11    5    6 ar  
    12    5   11 ar  
    13    6    7 ar  
    14    6   22 1   
    15    7    8 1   
    16    7    9 ar  
    17    9   10 ar  
    18    9   23 1   
    19   10   11 ar  
    20   10   24 1   
    21   11   12 1   
    22   12   13 1   
    23   13   14 1   
    24   13   17 1   
    25   13   25 1   
    26   14   15 1   
    27   14   16 2   
    28   15   26 1   
    29   15   27 1   
    30   17   28 1   
    31   17   29 1   
    32   18   30 1   
@<TRIPOS>SUBSTRUCTURE
     1 FID         1 TEMP              0 ****  ****    0 ROOT
