@<TRIPOS>MOLECULE
FID
   31    33     1     0     0
SMALL
bcc


@<TRIPOS>ATOM
      1 C2I        -0.5800   -0.2420   -0.1580 c         1 FID      0.779500
      2 N4          0.8270   -0.1050   -0.3630 n         1 FID     -0.590500
      3 C5          1.4800    0.1100    0.8450 c         1 FID      0.701500
      4 C7I         0.3830    0.0480    1.9820 c3        1 FID      0.064700
      5 C12         0.6620   -1.1230    2.8870 ca        1 FID     -0.133300
      6 C13         0.3350   -2.4240    2.4930 ca        1 FID     -0.132000
      7 C14         0.6000   -3.5100    3.3460 ca        1 FID      0.145900
      8 F17         0.2750   -4.7610    2.9550 f         1 FID     -0.106900
      9 C15         1.2040   -3.3030    4.6040 ca        1 FID     -0.115000
     10 C16         1.5440   -2.0160    4.9970 ca        1 FID     -0.108000
     11 C11         1.2680   -0.9410    4.1380 ca        1 FID      0.105100
     12 O10         1.6260    0.3100    4.6480 os        1 FID     -0.374900
     13 C9          1.6860    1.3430    3.6590 c3        1 FID      0.078100
     14 C19         1.8330    2.6700    4.3830 c         1 FID      0.545100
     15 N21         2.3310    2.6170    5.8110 n4        1 FID     -0.752400
     16 O20         1.6380    3.7850    3.9370 o         1 FID     -0.380100
     17 C8I         0.4360    1.3590    2.7880 c3        1 FID     -0.095400
     18 N1I        -0.8800   -0.0370    1.2270 n         1 FID     -0.513900
     19 O6I         2.6800    0.3400    1.0180 o         1 FID     -0.587500
     20 O3I        -1.4040   -0.4590   -1.0510 o         1 FID     -0.543500
     21 H4          1.2470   -0.0990   -1.2620 hn        1 FID      0.379500
     22 H13        -0.1210   -2.6260    1.5100 ha        1 FID      0.169000
     23 H15         1.4070   -4.1640    5.2610 ha        1 FID      0.179000
     24 H16         2.0240   -1.8350    5.9700 ha        1 FID      0.160000
     25 H9          2.6200    1.1960    3.0260 h1        1 FID      0.159700
     26 H211        2.3660    3.5570    6.2210 hn        1 FID      0.476467
     27 H212        3.2670    2.1970    5.8290 hn        1 FID      0.476467
     28 H8I1        0.4660    2.2420    2.0960 hc        1 FID      0.101200
     29 H8I2       -0.4810    1.4440    3.4280 hc        1 FID      0.101200
     30 H1I        -1.6120   -0.5900    1.6160 hn        1 FID      0.335500
     31 H213        1.7020    2.0180    6.3590 hn        1 FID      0.476467
@<TRIPOS>BOND
     1    1    2 1   
     2    1   18 1   
     3    1   20 2   
     4    2    3 1   
     5    2   21 1   
     6    3    4 1   
     7    3   19 2   
     8    4    5 1   
     9    4   17 1   
    10    4   18 1   
    11    5    6 ar  
    12    5   11 ar  
    13    6    7 ar  
    14    6   22 1   
    15    7    8 1   
    16    7    9 ar  
    17    9   10 ar  
    18    9   23 1   
    19   10   11 ar  
    20   10   24 1   
    21   11   12 1   
    22   12   13 1   
    23   13   14 1   
    24   13   17 1   
    25   13   25 1   
    26   14   15 1   
    27   14   16 2   
    28   15   26 1   
    29   15   27 1   
    30   15   31 1   
    31   17   28 1   
    32   17   29 1   
    33   18   30 1   
@<TRIPOS>SUBSTRUCTURE
     1 FID         1 TEMP              0 ****  ****    0 ROOT
