@<TRIPOS>MOLECULE
FID
   31    33     1     0     0
SMALL
bcc


@<TRIPOS>ATOM
      1 C2I        -0.6030   -0.2440   -0.1480 c         1 FID      0.779500
      2 N4          0.7990   -0.0830   -0.3630 n         1 FID     -0.590500
      3 C5          1.4580    0.1320    0.8420 c         1 FID      0.701500
      4 C7I         0.3710    0.0430    1.9870 c3        1 FID      0.064700
      5 C12         0.6750   -1.1320    2.8800 ca        1 FID     -0.133300
      6 C13         0.3650   -2.4340    2.4760 ca        1 FID     -0.132000
      7 C14         0.6530   -3.5230    3.3180 ca        1 FID      0.145900
      8 F17         0.3450   -4.7760    2.9180 f         1 FID     -0.106900
      9 C15         1.2640   -3.3170    4.5730 ca        1 FID     -0.115000
     10 C16         1.5870   -2.0290    4.9740 ca        1 FID     -0.108000
     11 C11         1.2880   -0.9510    4.1280 ca        1 FID      0.105100
     12 O10         1.6300    0.3010    4.6450 os        1 FID     -0.374900
     13 C9          1.6670    1.3430    3.6660 c3        1 FID      0.078100
     14 C19         1.8000    2.6660    4.4000 c         1 FID      0.545100
     15 N21         2.3100    2.6080    5.8230 n4        1 FID     -0.752400
     16 O20         1.5830    3.7820    3.9650 o         1 FID     -0.380100
     17 C8I         0.4110    1.3480    2.8040 c3        1 FID     -0.095400
     18 N1I        -0.8960   -0.0550    1.2410 n         1 FID     -0.513900
     19 O6I         2.6550    0.3790    1.0080 o         1 FID     -0.587500
     20 O3I        -1.4310   -0.4650   -1.0370 o         1 FID     -0.543500
     21 H4          1.2120   -0.0630   -1.2640 hn        1 FID      0.379500
     22 H13        -0.0960   -2.6340    1.4950 ha        1 FID      0.169000
     23 H15         1.4840   -4.1810    5.2210 ha        1 FID      0.179000
     24 H16         2.0710   -1.8490    5.9460 ha        1 FID      0.160000
     25 H9          2.5980    1.2160    3.0240 h1        1 FID      0.159700
     26 H211        1.6940    1.9940    6.3710 hn        1 FID      0.476467
     27 H212        2.3330    3.5450    6.2420 hn        1 FID      0.476467
     28 H8I1       -0.5030    1.4130    3.4520 hc        1 FID      0.101200
     29 H8I2        0.4210    2.2370    2.1190 hc        1 FID      0.101200
     30 H1I        -1.6170   -0.6220    1.6300 hn        1 FID      0.335500
     31 H213        3.2520    2.2030    5.8300 hn        1 FID      0.476467
@<TRIPOS>BOND
     1    1    2 1   
     2    1   18 1   
     3    1   20 2   
     4    2    3 1   
     5    2   21 1   
     6    3    4 1   
     7    3   19 2   
     8    4    5 1   
     9    4   17 1   
    10    4   18 1   
    11    5    6 ar  
    12    5   11 ar  
    13    6    7 ar  
    14    6   22 1   
    15    7    8 1   
    16    7    9 ar  
    17    9   10 ar  
    18    9   23 1   
    19   10   11 ar  
    20   10   24 1   
    21   11   12 1   
    22   12   13 1   
    23   13   14 1   
    24   13   17 1   
    25   13   25 1   
    26   14   15 1   
    27   14   16 2   
    28   15   26 1   
    29   15   27 1   
    30   15   31 1   
    31   17   28 1   
    32   17   29 1   
    33   18   30 1   
@<TRIPOS>SUBSTRUCTURE
     1 FID         1 TEMP              0 ****  ****    0 ROOT
