@<TRIPOS>MOLECULE
FID
   31    33     1     0     0
SMALL
bcc


@<TRIPOS>ATOM
      1 C2I        -0.5860   -0.2140   -0.1580 c         1 FID      0.779500
      2 N4          0.8210   -0.0830   -0.3640 ns        1 FID     -0.590500
      3 C5          1.4770    0.1190    0.8440 c         1 FID      0.701500
      4 C7I         0.3810    0.0550    1.9830 c3        1 FID      0.064700
      5 C12         0.6550   -1.1250    2.8790 ca        1 FID     -0.133300
      6 C13         0.3200   -2.4210    2.4750 ca        1 FID     -0.132000
      7 C14         0.5800   -3.5150    3.3200 ca        1 FID      0.145900
      8 F17         0.2480   -4.7610    2.9200 f         1 FID     -0.106900
      9 C15         1.1870   -3.3200    4.5780 ca        1 FID     -0.115000
     10 C16         1.5350   -2.0390    4.9810 ca        1 FID     -0.108000
     11 C11         1.2640   -0.9560    4.1310 ca        1 FID      0.105100
     12 O10         1.6290    0.2900    4.6490 os        1 FID     -0.374900
     13 C9          1.6930    1.3290    3.6680 c3        1 FID      0.078100
     14 C19         1.8490    2.6500    4.4010 c         1 FID      0.545100
     15 N21         2.3470    2.5840    5.8280 nz        1 FID     -0.752400
     16 O20         1.6600    3.7700    3.9630 o         1 FID     -0.380100
     17 C8I         0.4430    1.3590    2.7990 c3        1 FID     -0.095400
     18 N1I        -0.8830   -0.0180    1.2290 ns        1 FID     -0.513900
     19 O6I         2.6780    0.3410    1.0180 o         1 FID     -0.587500
     20 O3I        -1.4130   -0.4190   -1.0510 o         1 FID     -0.543500
     21 H4          1.2400   -0.0730   -1.2630 hn        1 FID      0.379500
     22 H13        -0.1390   -2.6130    1.4910 ha        1 FID      0.169000
     23 H15         1.3860   -4.1880    5.2290 ha        1 FID      0.179000
     24 H16         2.0170   -1.8670    5.9550 ha        1 FID      0.160000
     25 H9          2.6260    1.1820    3.0320 h1        1 FID      0.159700
     26 H211        3.2800    2.1580    5.8430 hn        1 FID      0.476467
     27 H212        1.7140    1.9850    6.3730 hn        1 FID      0.476467
     28 H8I1       -0.4730    1.4450    3.4410 hc        1 FID      0.101200
     29 H8I2        0.4760    2.2470    2.1130 hc        1 FID      0.101200
     30 H1I        -1.6180   -0.5690    1.6150 hn        1 FID      0.335500
     31 H213        2.3890    3.5210    6.2450 hn        1 FID      0.476467
@<TRIPOS>BOND
     1    1    2 1   
     2    1   18 1   
     3    1   20 2   
     4    2    3 1   
     5    2   21 1   
     6    3    4 1   
     7    3   19 2   
     8    4    5 1   
     9    4   17 1   
    10    4   18 1   
    11    5    6 ar  
    12    5   11 ar  
    13    6    7 ar  
    14    6   22 1   
    15    7    8 1   
    16    7    9 ar  
    17    9   10 ar  
    18    9   23 1   
    19   10   11 ar  
    20   10   24 1   
    21   11   12 1   
    22   12   13 1   
    23   13   14 1   
    24   13   17 1   
    25   13   25 1   
    26   14   15 1   
    27   14   16 2   
    28   15   26 1   
    29   15   27 1   
    30   15   31 1   
    31   17   28 1   
    32   17   29 1   
    33   18   30 1   
@<TRIPOS>SUBSTRUCTURE
     1 FID         1 TEMP              0 ****  ****    0 ROOT
