@<TRIPOS>MOLECULE
FIF
   20    20     1     0     0
SMALL
bcc


@<TRIPOS>ATOM
      1 O6B         1.1470    1.0860    0.6910 o         1 FIF     -0.814300
      2 C6          1.1810    0.0720   -0.0550 c         1 FIF      0.938600
      3 O6A         0.5420   -0.9970    0.1180 o         1 FIF     -0.814300
      4 C5          2.0590    0.1370   -1.3490 c3        1 FIF     -0.042900
      5 O5          3.4230    0.2130   -0.9410 os        1 FIF     -0.369600
      6 C4          1.7060    1.3320   -2.2380 c3        1 FIF      0.122100
      7 O4          1.7810    2.5870   -1.5940 oh        1 FIF     -0.627800
      8 C3          2.6450    1.4000   -3.4600 c3        1 FIF      0.095100
      9 O3          2.2570    0.4720   -4.4600 oh        1 FIF     -0.609800
     10 C2          4.1360    1.1650   -3.1120 c3        1 FIF      0.116600
     11 F2          4.7550    2.3510   -2.7530 f         1 FIF     -0.238300
     12 C1          4.3160    0.0850   -2.0300 c3        1 FIF      0.097400
     13 H2          1.8980   -0.8120   -1.9330 h1        1 FIF      0.027700
     14 H3          0.6500    1.2050   -2.6130 h1        1 FIF      0.048700
     15 H4          1.8460    2.4260   -0.6350 ho        1 FIF      0.465000
     16 H5          2.5450    2.4100   -3.9480 h1        1 FIF      0.086700
     17 H6          2.0920   -0.3700   -4.0180 ho        1 FIF      0.401000
     18 H7          4.6460    0.7940   -4.0530 h1        1 FIF      0.036700
     19 H8          5.3350    0.1680   -1.5670 h1        1 FIF      0.040700
     20 H9          4.1900   -0.9200   -2.5160 h1        1 FIF      0.040700
@<TRIPOS>BOND
     1    1    2 1   
     2    2    3 1   
     3    2    4 1   
     4    4    5 1   
     5    4    6 1   
     6    4   13 1   
     7    5   12 1   
     8    6    7 1   
     9    6    8 1   
    10    6   14 1   
    11    7   15 1   
    12    8    9 1   
    13    8   10 1   
    14    8   16 1   
    15    9   17 1   
    16   10   11 1   
    17   10   12 1   
    18   10   18 1   
    19   12   19 1   
    20   12   20 1   
@<TRIPOS>SUBSTRUCTURE
     1 FIF         1 TEMP              0 ****  ****    0 ROOT
