@<TRIPOS>MOLECULE
FIF
   20    20     1     0     0
SMALL
bcc


@<TRIPOS>ATOM
      1 O6B         1.0590    1.1820    0.6200 o         1 FIF     -0.814300
      2 C6          1.1960    0.1180   -0.0410 c         1 FIF      0.938600
      3 O6A         0.6430   -0.9830    0.2060 o         1 FIF     -0.814300
      4 C5          2.0970    0.1540   -1.3200 c3        1 FIF     -0.042900
      5 O5          3.4400    0.3770   -0.8950 os        1 FIF     -0.369600
      6 C4          1.6690    1.2410   -2.3090 c3        1 FIF      0.122100
      7 O4          1.6250    2.5450   -1.7680 oh        1 FIF     -0.627800
      8 C3          2.6290    1.2900   -3.5160 c3        1 FIF      0.095100
      9 O3          2.3440    0.2570   -4.4440 oh        1 FIF     -0.609800
     10 C2          4.1260    1.2090   -3.1230 c3        1 FIF      0.116600
     11 F2          4.6360    2.4670   -2.8500 f         1 FIF     -0.238300
     12 C1          4.3670    0.2370   -1.9530 c3        1 FIF      0.097400
     13 H2          2.0280   -0.8480   -1.8280 h1        1 FIF      0.027700
     14 H3          0.6360    0.9970   -2.6920 h1        1 FIF      0.048700
     15 H4          1.6790    2.4670   -0.7980 ho        1 FIF      0.465000
     16 H5          2.4580    2.2460   -4.0860 h1        1 FIF      0.086700
     17 H6          2.2380   -0.5590   -3.9380 ho        1 FIF      0.401000
     18 H7          4.6870    0.8080   -4.0210 h1        1 FIF      0.036700
     19 H8          4.3350   -0.8100   -2.3590 h1        1 FIF      0.040700
     20 H9          5.3630    0.4420   -1.4800 h1        1 FIF      0.040700
@<TRIPOS>BOND
     1    1    2 1   
     2    2    3 1   
     3    2    4 1   
     4    4    5 1   
     5    4    6 1   
     6    4   13 1   
     7    5   12 1   
     8    6    7 1   
     9    6    8 1   
    10    6   14 1   
    11    7   15 1   
    12    8    9 1   
    13    8   10 1   
    14    8   16 1   
    15    9   17 1   
    16   10   11 1   
    17   10   12 1   
    18   10   18 1   
    19   12   19 1   
    20   12   20 1   
@<TRIPOS>SUBSTRUCTURE
     1 FIF         1 TEMP              0 ****  ****    0 ROOT
