@<TRIPOS>MOLECULE
FIF
   20    20     1     0     0
SMALL
bcc


@<TRIPOS>ATOM
      1 O6B        -3.0730   -0.6300    1.0080 o         1 FIF     -0.818300
      2 C6         -2.2780   -0.0380    0.2340 c         1 FIF      0.936600
      3 O6A        -2.6060    0.6880   -0.7430 o         1 FIF     -0.818300
      4 C5         -0.7560   -0.2690    0.5060 c3        1 FIF     -0.033900
      5 O5         -0.2080    0.9840    0.9190 os        1 FIF     -0.373600
      6 C4         -0.0060   -0.7930   -0.7180 c3        1 FIF      0.158100
      7 O4         -0.1680   -0.0210   -1.8920 oh        1 FIF     -0.638800
      8 C3          1.5170   -0.8670   -0.4650 c3        1 FIF      0.093100
      9 O3          1.7590   -2.0870    0.2230 oh        1 FIF     -0.592800
     10 C2          2.1000    0.3100    0.3570 c3        1 FIF      0.115600
     11 F2          2.5530    1.3170   -0.4820 f         1 FIF     -0.244300
     12 C1          1.1120    0.8530    1.4040 c3        1 FIF      0.109400
     13 H2         -0.6460   -1.0200    1.3370 h1        1 FIF      0.047700
     14 H3         -0.3710   -1.8350   -0.9480 h1        1 FIF      0.056700
     15 H4         -0.8660    0.6370   -1.7240 ho        1 FIF      0.465000
     16 H5          2.0370   -0.8800   -1.4660 h1        1 FIF      0.050700
     17 H6          2.7130   -2.2260    0.2060 ho        1 FIF      0.382000
     18 H7          3.0040   -0.0780    0.9190 h1        1 FIF      0.018700
     19 H8          1.4060    1.8930    1.7060 h1        1 FIF      0.043200
     20 H9          1.1340    0.1650    2.2920 h1        1 FIF      0.043200
@<TRIPOS>BOND
     1    1    2 1   
     2    2    3 1   
     3    2    4 1   
     4    4    5 1   
     5    4    6 1   
     6    4   13 1   
     7    5   12 1   
     8    6    7 1   
     9    6    8 1   
    10    6   14 1   
    11    7   15 1   
    12    8    9 1   
    13    8   10 1   
    14    8   16 1   
    15    9   17 1   
    16   10   11 1   
    17   10   12 1   
    18   10   18 1   
    19   12   19 1   
    20   12   20 1   
@<TRIPOS>SUBSTRUCTURE
     1 FIF         1 TEMP              0 ****  ****    0 ROOT
