@<TRIPOS>MOLECULE
FIF
   20    20     1     0     0
SMALL
bcc


@<TRIPOS>ATOM
      1 O6B        -0.5710   -0.4430    3.2810 o         1 FIF     -0.814300
      2 C6         -1.1970   -0.6860    2.2170 c         1 FIF      0.938600
      3 O6A        -2.4170   -1.0100    2.2630 o         1 FIF     -0.814300
      4 C5         -0.4780   -0.7310    0.9450 c3        1 FIF     -0.042900
      5 O5          1.0380   -0.6880    1.1540 os        1 FIF     -0.369600
      6 C4         -0.8950    0.4280    0.0140 c3        1 FIF      0.122100
      7 O4         -0.7210    1.6630    0.7120 oh        1 FIF     -0.627800
      8 C3         -0.1040    0.4750   -1.2410 c3        1 FIF      0.095100
      9 O3         -0.4410   -0.6990   -2.0540 oh        1 FIF     -0.609800
     10 C2          1.3510    0.4780   -0.9970 c3        1 FIF      0.116600
     11 F2          1.7030    1.6950   -0.4160 f         1 FIF     -0.238300
     12 C1          1.7970   -0.6290   -0.0940 c3        1 FIF      0.097400
     13 H2         -0.7660   -1.5900    0.5950 h1        1 FIF      0.027700
     14 H3         -1.8400    0.3250   -0.2130 h1        1 FIF      0.048700
     15 H4         -1.4600    2.1650    0.6200 ho        1 FIF      0.465000
     16 H5         -0.3430    1.2810   -1.7340 h1        1 FIF      0.086700
     17 H6         -0.9040   -0.4470   -2.7530 ho        1 FIF      0.401000
     18 H7          1.8150    0.3920   -1.8530 h1        1 FIF      0.036700
     19 H8          1.6940   -1.4790   -0.5640 h1        1 FIF      0.040700
     20 H9          2.7380   -0.5010    0.1180 h1        1 FIF      0.040700
@<TRIPOS>BOND
     1    1    2 1   
     2    2    3 1   
     3    2    4 1   
     4    4    5 1   
     5    4    6 1   
     6    4   13 1   
     7    5   12 1   
     8    6    7 1   
     9    6    8 1   
    10    6   14 1   
    11    7   15 1   
    12    8    9 1   
    13    8   10 1   
    14    8   16 1   
    15    9   17 1   
    16   10   11 1   
    17   10   12 1   
    18   10   18 1   
    19   12   19 1   
    20   12   20 1   
@<TRIPOS>SUBSTRUCTURE
     1 FIF         1 TEMP              0 ****  ****    0 ROOT
