@<TRIPOS>MOLECULE
FIH
   39    41     1     0     0
SMALL
bcc


@<TRIPOS>ATOM
      1 C1         -1.4910    1.5950   -0.2200 c2        1 FIH     -0.203000
      2 C2         -0.7660    2.6260   -0.7360 c2        1 FIH     -0.047000
      3 C3         -1.0140    1.4810   -1.5730 c1        1 FIH      0.035000
      4 C4          2.6240   -1.9580    3.1280 cx        1 FIH     -0.150000
      5 C5          1.3060   -1.2680    3.2330 cu        1 FIH     -0.041000
      6 C6          1.7690   -1.4850    2.0110 cu        1 FIH     -0.234000
      7 C7         -0.9700   -0.1540    6.0870 c2        1 FIH     -0.415000
      8 C8         -1.6130    0.2300    4.9010 c2        1 FIH     -0.004000
      9 C9         -0.8360   -0.1350    3.7490 c2        1 FIH     -0.169000
     10 C10         0.3400   -0.7810    4.1180 c2        1 FIH     -0.374000
     11 S11         0.4720   -0.9060    5.7850 ss        1 FIH      0.691000
     12 F12        -0.2530    3.8100   -0.5220 f         1 FIH     -0.034000
     13 O15        -0.9180   -0.5240    8.4330 o         1 FIH     -0.542000
     14 O16        -2.4360    0.9110    7.6390 o         1 FIH     -0.542000
     15 S18        -3.8660    0.8960    3.6500 s6        1 FIH      2.819000
     16 C19        -5.1750   -1.1510    2.4040 c2        1 FIH     -0.127000
     17 C20        -4.5920   -0.7290    3.6970 c3        1 FIH     -0.785000
     18 C21        -5.4730   -0.7860    4.8480 c1        1 FIH     -0.008000
     19 C22        -6.7480   -1.4760    4.7920 c3        1 FIH     -0.190000
     20 C23        -7.1400   -2.1310    3.5070 c2        1 FIH     -0.083000
     21 C24        -6.3460   -1.7990    2.3310 c2        1 FIH     -0.140000
     22 C25        -8.1760   -2.9780    3.4430 c2        1 FIH     -0.232000
     23 O26        -3.2250    0.9680    2.3830 o         1 FIH     -0.951500
     24 O27        -4.8900    1.8510    3.8120 o         1 FIH     -0.951500
     25 H1          1.6800   -1.4150    0.9490 ha        1 FIH      0.181000
     26 H3          3.5550   -1.4210    3.3900 hc        1 FIH      0.081500
     27 H4          2.7060   -3.0380    3.3550 hc        1 FIH      0.081500
     28 H6         -2.0310    1.2020    0.6310 ha        1 FIH      0.246000
     29 H9         -1.1310    0.0790    2.7180 ha        1 FIH      0.165000
     30 H17        -3.0970    1.2260    5.7890 hn        1 FIH      0.329000
     31 H21        -3.7620   -1.4680    3.9540 h1        1 FIH      0.215000
     32 H22        -7.5270   -0.7020    5.0720 hc        1 FIH      0.150500
     33 H24        -6.7450   -2.2300    5.6330 hc        1 FIH      0.150500
     34 H251       -8.7740   -3.2350    4.3250 ha        1 FIH      0.108000
     35 H252       -6.7600   -2.1110    1.3580 ha        1 FIH      0.124000
     36 H253       -8.4810   -3.4640    2.5080 ha        1 FIH      0.108000
     37 C14        -1.4820    0.0940    7.4920 c2        1 FIH      0.387000
     38 N17        -2.8350    0.9090    4.8540 nu        1 FIH     -0.798000
     39 H19        -4.5870   -0.9070    1.5040 ha        1 FIH      0.150000
@<TRIPOS>BOND
     1    1    2 1   
     2    1    3 1   
     3    1   28 1   
     4    2    3 1   
     5    2   12 1   
     6    4    5 1   
     7    4    6 1   
     8    4   26 1   
     9    4   27 1   
    10    5    6 1   
    11    5   10 1   
    12    6   25 1   
    13    7    8 1   
    14    7   11 1   
    15    7   37 1   
    16    8    9 1   
    17    8   38 1   
    18    9   10 1   
    19    9   29 1   
    20   10   11 1   
    21   13   37 1   
    22   14   37 1   
    23   15   17 1   
    24   15   23 1   
    25   15   24 1   
    26   15   38 1   
    27   16   17 1   
    28   16   21 1   
    29   16   39 1   
    30   17   18 1   
    31   17   31 1   
    32   18   19 1   
    33   19   20 1   
    34   19   32 1   
    35   19   33 1   
    36   20   21 1   
    37   20   22 1   
    38   21   35 1   
    39   22   34 1   
    40   22   36 1   
    41   30   38 1   
@<TRIPOS>SUBSTRUCTURE
     1 FIH         1 TEMP              0 ****  ****    0 ROOT
