@<TRIPOS>MOLECULE
FIH
   39    41     1     0     0
SMALL
bcc


@<TRIPOS>ATOM
      1 C1         -5.0920    0.9900   -0.8670 ca        1 FIH     -0.161000
      2 C2         -6.0330    0.1530   -0.2400 ca        1 FIH      0.090900
      3 C3         -5.6090   -1.0170    0.4140 ca        1 FIH     -0.161000
      4 C4         -4.2580   -1.3400    0.4340 ca        1 FIH     -0.115000
      5 C5         -3.3050   -0.5150   -0.1880 ca        1 FIH      0.030000
      6 C6         -3.7440    0.6530   -0.8350 ca        1 FIH     -0.115000
      7 C7          0.2940   -1.8050    0.3900 cc        1 FIH     -0.166700
      8 C8          0.3630   -0.9140   -0.6880 cd        1 FIH      0.085600
      9 C9         -0.9290   -0.3660   -1.0020 cd        1 FIH     -0.145000
     10 C10        -1.9080   -0.8640   -0.1550 cc        1 FIH     -0.142100
     11 S11        -1.2610   -1.9560    0.9480 ss        1 FIH      0.104200
     12 F12        -7.3510    0.4760   -0.2660 f         1 FIH     -0.157900
     13 O15         1.2370   -3.3700    1.9140 o         1 FIH     -0.821300
     14 O16         2.6240   -2.3000    0.5330 o         1 FIH     -0.821300
     15 S18         2.0290    0.8490   -1.8170 sy        1 FIH      1.487200
     16 C19         2.4150    2.9590   -0.2330 ca        1 FIH     -0.015000
     17 C20         2.5660    1.5730   -0.3800 ca        1 FIH     -0.371500
     18 C21         3.1780    0.8580    0.6550 ca        1 FIH     -0.015000
     19 C22         3.6420    1.5130    1.7960 ca        1 FIH     -0.165500
     20 C23         3.4960    2.8960    1.9290 ca        1 FIH     -0.033300
     21 C24         2.8740    3.6180    0.9000 ca        1 FIH     -0.165500
     22 C25         3.9710    3.5890    3.1480 c3        1 FIH     -0.057800
     23 O26         0.9730    1.6470   -2.3360 o         1 FIH     -0.671800
     24 O27         3.1350    0.7300   -2.6980 o         1 FIH     -0.671800
     25 H1         -5.4290    1.9030   -1.3750 ha        1 FIH      0.137500
     26 H3         -6.3490   -1.6660    0.9020 ha        1 FIH      0.137500
     27 H4         -3.9270   -2.2590    0.9440 ha        1 FIH      0.146000
     28 H6         -3.0070    1.3120   -1.3220 ha        1 FIH      0.146000
     29 H9         -1.0870    0.3580   -1.8060 ha        1 FIH      0.168000
     30 H17         2.1980   -1.3740   -1.2970 hn        1 FIH      0.499800
     31 H21         3.2850   -0.2490    0.6000 ha        1 FIH      0.175000
     32 H22         4.1170    0.9290    2.5980 ha        1 FIH      0.131500
     33 H24         2.7480    4.7060    0.9950 ha        1 FIH      0.131500
     34 H251        4.2610    4.6450    2.9230 hc        1 FIH      0.041367
     35 H252        3.1570    3.6050    3.9160 hc        1 FIH      0.041367
     36 H253        4.8550    3.0640    3.5880 hc        1 FIH      0.041367
     37 C14         1.4670   -2.5470    0.9890 c         1 FIH      0.940200
     38 N17         1.5290   -0.6210   -1.3980 nh        1 FIH     -0.736500
     39 H19         1.9110    3.5300   -1.0320 ha        1 FIH      0.175000
@<TRIPOS>BOND
     1    1    2 ar  
     2    1    6 ar  
     3    1   25 1   
     4    2    3 ar  
     5    2   12 1   
     6    3    4 ar  
     7    3   26 1   
     8    4    5 ar  
     9    4   27 1   
    10    5    6 ar  
    11    5   10 1   
    12    6   28 1   
    13    7    8 2   
    14    7   11 1   
    15    7   37 1   
    16    8    9 1   
    17    8   38 1   
    18    9   10 2   
    19    9   29 1   
    20   10   11 1   
    21   13   37 1   
    22   14   37 1   
    23   15   17 1   
    24   15   23 2   
    25   15   24 2   
    26   15   38 1   
    27   16   17 ar  
    28   16   21 ar  
    29   16   39 1   
    30   17   18 ar  
    31   18   19 ar  
    32   18   31 1   
    33   19   20 ar  
    34   19   32 1   
    35   20   21 ar  
    36   20   22 1   
    37   21   33 1   
    38   22   34 1   
    39   22   35 1   
    40   22   36 1   
    41   30   38 1   
@<TRIPOS>SUBSTRUCTURE
     1 FIH         1 TEMP              0 ****  ****    0 ROOT
