@<TRIPOS>MOLECULE
FIH
   40    40     1     0     0
SMALL
bcc


@<TRIPOS>ATOM
      1 C1          3.1260    0.5950   -0.4240 c2        1 FIH     -0.248000
      2 C2          4.2220    0.7310   -1.2200 c2        1 FIH     -0.023000
      3 C3          4.4110    0.7440    0.2070 c1        1 FIH      0.034000
      4 C4          1.9110    0.4320    2.8300 c2        1 FIH      0.002000
      5 C5          0.6270    0.2460    2.4290 c2        1 FIH     -0.168000
      6 C6          0.3590    0.2930    1.0320 c1        1 FIH     -0.081000
      7 C7         -1.8530   -0.7260    5.2350 c2        1 FIH     -0.552000
      8 C8         -2.5420    0.1680    4.3940 c2        1 FIH      0.099000
      9 C9         -1.7000    0.5960    3.3100 c2        1 FIH     -0.185000
     10 C10        -0.4380    0.0260    3.3940 c2        1 FIH     -0.349000
     11 S11        -0.2870   -0.9640    4.7250 ss        1 FIH      0.708000
     12 F12         4.6740    0.7910   -2.4450 f         1 FIH     -0.025000
     13 O15        -1.9070   -1.4460    7.5440 o         1 FIH     -0.285000
     14 O16        -3.6680   -1.8940    6.3510 oh        1 FIH     -0.308000
     15 S18        -4.8920    1.2240    3.5180 s6        1 FIH      2.808000
     16 C19        -5.4940   -1.4230    3.2970 c2        1 FIH     -0.143000
     17 C20        -6.0310   -0.0520    3.2820 c3        1 FIH     -0.834000
     18 C21        -7.6860   -3.4210    7.1460 c1        1 FIH      0.226000
     19 C22        -6.8340   -2.8980    6.2880 c2        1 FIH     -0.465000
     20 C23        -7.1000   -2.3970    4.9490 c2        1 FIH     -0.010000
     21 C24        -5.9630   -2.4390    4.0310 c2        1 FIH     -0.120000
     22 C25        -8.3130   -1.9620    4.5730 c2        1 FIH     -0.206000
     23 O26        -4.2610    1.4950    2.2920 o         1 FIH     -0.916500
     24 O27        -5.5960    2.2780    4.1240 o         1 FIH     -0.916500
     25 H1         -0.6930    0.2850    0.7160 ha        1 FIH      0.066000
     26 H3          2.2030    0.4550    3.8910 ha        1 FIH      0.146500
     27 H4          2.7240    0.5830    2.0960 ha        1 FIH      0.146500
     28 H6          2.0520    0.4670   -0.3190 ha        1 FIH      0.248000
     29 H9         -2.0260    1.2810    2.5190 ha        1 FIH      0.199000
     30 H17        -3.9670   -1.9300    5.4290 ho        1 FIH      0.233000
     31 H21        -6.8670    0.0380    4.0340 h1        1 FIH      0.173000
     32 H22        -5.7730   -2.8290    6.6290 ha        1 FIH      0.211000
     33 H24        -6.5260    0.1050    2.2790 h1        1 FIH      0.173000
     34 H251       -9.1730   -1.9560    5.2550 ha        1 FIH      0.126000
     35 H252       -5.4710   -3.4290    3.9730 ha        1 FIH      0.141000
     36 H253       -8.5120   -1.6010    3.5550 ha        1 FIH      0.126000
     37 N17        -3.8450    0.6010    4.6090 nh        1 FIH     -0.808000
     38 H172       -4.1220    0.5210    5.5660 hn        1 FIH      0.262000
     39 C14        -2.4140   -1.3450    6.4270 c2        1 FIH      0.378000
     40 H19        -4.6430   -1.5950    2.6120 ha        1 FIH      0.135000
@<TRIPOS>BOND
     1    1    2 1   
     2    1    3 1   
     3    1   28 1   
     4    2    3 1   
     5    2   12 1   
     6    4    5 1   
     7    4   26 1   
     8    4   27 1   
     9    5    6 1   
    10    5   10 1   
    11    6   25 1   
    12    7    8 1   
    13    7   11 1   
    14    7   39 1   
    15    8    9 1   
    16    8   37 1   
    17    9   10 1   
    18    9   29 1   
    19   10   11 1   
    20   13   39 1   
    21   14   30 1   
    22   14   39 1   
    23   15   17 1   
    24   15   23 1   
    25   15   24 1   
    26   15   37 1   
    27   16   17 1   
    28   16   21 1   
    29   16   40 1   
    30   17   31 1   
    31   17   33 1   
    32   18   19 1   
    33   19   20 1   
    34   19   32 1   
    35   20   21 1   
    36   20   22 1   
    37   21   35 1   
    38   22   34 1   
    39   22   36 1   
    40   37   38 1   
@<TRIPOS>SUBSTRUCTURE
     1 FIH         1 TEMP              0 ****  ****    0 ROOT
