@<TRIPOS>MOLECULE
FIH
   39    30     1     0     0
SMALL
bcc


@<TRIPOS>ATOM
      1 C1          4.0940   -1.5380   -4.8790 c1        1 FIH     -0.054500
      2 C2          4.9540   -0.4720   -5.0950 c1        1 FIH      0.058100
      3 C3          5.0620    0.5330   -4.1470 c1        1 FIH     -0.104500
      4 C4          4.3090    0.4740   -2.9850 c1        1 FIH     -0.008000
      5 C5          3.4490   -0.5920   -2.7700 c1        1 FIH     -0.393000
      6 C6          3.3420   -1.5970   -3.7170 c1        1 FIH     -0.054500
      7 C7          2.1710   -1.2840    0.7910 c1        1 FIH     -0.188900
      8 C8          1.1390   -0.4110    0.2640 cg        1 FIH     -0.070500
      9 C9          1.5180   -0.0380   -1.2370 cg        1 FIH     -0.070500
     10 C10         2.7670   -0.6970   -1.5700 c1        1 FIH     -0.188900
     11 S11         3.2290   -1.5000   -0.3240 ss        1 FIH      0.193800
     12 F12         5.6900   -0.4210   -6.2120 f         1 FIH     -0.125100
     13 C14         2.1800   -1.9250    2.1600 c1        1 FIH      0.856000
     14 O15         2.6400   -1.2940    3.1470 o         1 FIH     -0.789500
     15 O16         1.7770   -3.1090    2.3030 o         1 FIH     -0.789500
     16 N17        -0.0060    0.0430    0.9700 n2        1 FIH     -0.654000
     17 S18        -1.4830   -0.0000    0.2530 s4        1 FIH      1.666400
     18 C19        -3.6400   -0.4580    1.8840 c1        1 FIH     -0.054500
     19 C20        -2.7400    0.4820    1.4080 c1        1 FIH     -0.393000
     20 C21        -2.8460    1.8060    1.8030 c1        1 FIH     -0.008000
     21 C22        -3.8540    2.1900    2.6730 c1        1 FIH     -0.115500
     22 C23        -4.7550    1.2510    3.1490 c1        1 FIH     -0.000100
     23 C24        -4.6480   -0.0730    2.7540 c1        1 FIH     -0.054500
     24 C25        -5.8160    1.6590    4.1460 c3        1 FIH     -0.092000
     25 O26        -1.7550   -1.2970   -0.3020 o         1 FIH     -0.559400
     26 O27        -1.5160    0.8200   -0.9250 o         1 FIH     -0.559400
     27 H1          4.0180   -2.2460   -5.5470 ha        1 FIH      0.098250
     28 H3          5.6670    1.2840   -4.2990 ha        1 FIH      0.080500
     29 H4          4.3680    1.1940   -2.3280 ha        1 FIH      0.090500
     30 H6          2.7370   -2.3490   -3.5650 ha        1 FIH      0.098250
     31 H9          0.9980    0.5360   -1.8320 DU        1 FIH      0.168000
     32 H17         0.0740    0.3250    1.8340 hn        1 FIH      0.539400
     33 H19        -3.5650   -1.3900    1.6060 ha        1 FIH      0.098250
     34 H21        -2.2120    2.4680    1.4670 ha        1 FIH      0.090500
     35 H22        -3.9290    3.1230    2.9510 ha        1 FIH      0.065500
     36 H24        -5.2830   -0.7350    3.0900 ha        1 FIH      0.098250
     37 H251       -6.0770    0.8810    4.6820 hc        1 FIH      0.041367
     38 H252       -6.5990    2.0030    3.6670 hc        1 FIH      0.041367
     39 H253       -5.4600    2.3570    4.7340 hc        1 FIH      0.041367
@<TRIPOS>BOND
     1    1    6 3   
     2    1   27 1   
     3    2    3 3   
     4    2   12 1   
     5    3   28 1   
     6    4    5 3   
     7    4   29 1   
     8    6   30 1   
     9    7    8 3   
    10    7   11 1   
    11    8    9 1   
    12    9   10 3   
    13   10   11 1   
    14   13   14 2   
    15   13   15 2   
    16   16   17 2   
    17   16   32 1   
    18   17   25 1   
    19   17   26 1   
    20   18   23 3   
    21   18   33 1   
    22   19   20 3   
    23   20   34 1   
    24   21   22 3   
    25   21   35 1   
    26   22   24 1   
    27   23   36 1   
    28   24   37 1   
    29   24   38 1   
    30   24   39 1   
@<TRIPOS>SUBSTRUCTURE
     1 FIH         1 TEMP              0 ****  ****    0 ROOT
