@<TRIPOS>MOLECULE
FIH
   39    40     1     0     0
SMALL
bcc


@<TRIPOS>ATOM
      1 C1          2.5790    0.6660   -2.2050 c1        1 FIH      0.014000
      2 C2          3.7760    0.2980   -1.5040 c2        1 FIH     -0.068000
      3 C3          2.6080    0.3440   -0.8000 c2        1 FIH     -0.248000
      4 C4          1.2600   -0.0100    1.7750 c1        1 FIH     -0.118000
      5 C5         -0.1150    0.3080    1.9230 c2        1 FIH     -0.122000
      6 C6         -0.7780    0.7150    0.8060 c2        1 FIH     -0.020000
      7 C7         -1.4640   -0.3870    5.4830 c2        1 FIH     -0.416000
      8 C8         -2.3650    0.5070    4.8900 c2        1 FIH      0.004000
      9 C9         -1.9590    0.8480    3.5530 c2        1 FIH     -0.149000
     10 C10        -0.7840    0.2030    3.2010 c2        1 FIH     -0.440000
     11 S11        -0.2080   -0.7470    4.4590 ss        1 FIH      0.647000
     12 F12         5.0640    0.0640   -1.4640 f         1 FIH     -0.043000
     13 O15        -0.6430   -1.6640    7.3140 o         1 FIH     -0.551000
     14 O16        -2.6570   -0.7210    7.5190 o         1 FIH     -0.551000
     15 S18        -4.9350    1.2570    4.8790 s6        1 FIH      2.799000
     16 C19        -5.0200   -1.4970    5.4010 c2        1 FIH     -0.133000
     17 C20        -5.8130   -0.2580    5.2420 c3        1 FIH     -0.770000
     18 C21        -6.9210   -0.3120    4.3090 c1        1 FIH     -0.038000
     19 C22        -7.2750   -1.5280    3.6030 c3        1 FIH     -0.182000
     20 C23        -6.4820   -2.7640    3.8760 c2        1 FIH     -0.078000
     21 C24        -5.3420   -2.6360    4.7700 c2        1 FIH     -0.153000
     22 C25        -6.8140   -3.9360    3.3160 c2        1 FIH     -0.243000
     23 O26        -4.8610    1.4290    3.4800 o         1 FIH     -0.930500
     24 O27        -5.6160    2.2640    5.5990 o         1 FIH     -0.930500
     25 H1         -1.8500    0.9620    0.8180 ha        1 FIH      0.133000
     26 H3          1.7920   -0.4020    2.6540 ha        1 FIH      0.067000
     27 H4          2.0950    0.2130    0.1820 ha        1 FIH      0.284000
     28 H6         -0.2600    0.8070   -0.1610 ha        1 FIH      0.133000
     29 H9         -2.5340    1.5180    2.9080 ha        1 FIH      0.165000
     30 H17        -3.3810    0.9560    6.5350 hn        1 FIH      0.300000
     31 H21        -6.3210   -0.0620    6.2460 h1        1 FIH      0.213000
     32 H22        -7.2000   -1.2680    2.5020 hc        1 FIH      0.142000
     33 H24        -8.3700   -1.7180    3.8030 hc        1 FIH      0.142000
     34 H251       -7.6740   -4.0400    2.6440 ha        1 FIH      0.106000
     35 H252       -4.7350   -3.5450    4.9210 ha        1 FIH      0.133000
     36 H253       -6.2440   -4.8550    3.4970 ha        1 FIH      0.106000
     37 C14        -1.5920   -0.9650    6.8740 c2        1 FIH      0.387000
     38 N17        -3.4880    1.0360    5.5300 nh        1 FIH     -0.792000
     39 H19        -4.1610   -1.4590    6.1070 ha        1 FIH      0.200000
@<TRIPOS>BOND
     1    1    2 1   
     2    1    3 1   
     3    2    3 1   
     4    2   12 1   
     5    3   27 1   
     6    4    5 1   
     7    4   26 1   
     8    5    6 1   
     9    5   10 1   
    10    6   25 1   
    11    6   28 1   
    12    7    8 1   
    13    7   11 1   
    14    7   37 1   
    15    8    9 1   
    16    8   38 1   
    17    9   10 1   
    18    9   29 1   
    19   10   11 1   
    20   13   37 1   
    21   14   37 1   
    22   15   17 1   
    23   15   23 1   
    24   15   24 1   
    25   15   38 1   
    26   16   17 1   
    27   16   21 1   
    28   16   39 1   
    29   17   18 1   
    30   17   31 1   
    31   18   19 1   
    32   19   20 1   
    33   19   32 1   
    34   19   33 1   
    35   20   21 1   
    36   20   22 1   
    37   21   35 1   
    38   22   34 1   
    39   22   36 1   
    40   30   38 1   
@<TRIPOS>SUBSTRUCTURE
     1 FIH         1 TEMP              0 ****  ****    0 ROOT
