@<TRIPOS>MOLECULE
FII
   53    52     1     0     0
SMALL
bcc


@<TRIPOS>ATOM
      1 C1          0.4850    1.3810   -0.1110 c3        1 FII     -0.056400
      2 C2          1.8530    1.1120   -0.6150 c2        1 FII     -0.131400
      3 C6          2.5840    2.2800   -1.1620 c3        1 FII     -0.056400
      4 C10         2.3970   -0.1150   -0.5700 c2        1 FII     -0.171200
      5 C11         3.7580   -0.4220   -1.0650 c3        1 FII     -0.046200
      6 C12         4.1890   -1.8350   -0.7160 c3        1 FII     -0.033200
      7 C15         5.5330   -2.1510   -1.2750 c2        1 FII     -0.141400
      8 C18         5.6190   -2.3080   -2.7470 c3        1 FII     -0.055900
      9 C22         6.6090   -2.2870   -0.4810 c2        1 FII     -0.156200
     10 C23         7.9620   -2.6090   -0.9890 c3        1 FII     -0.048200
     11 C24         9.0160   -2.5310    0.1010 c3        1 FII     -0.032200
     12 C27        10.3650   -2.9090   -0.4120 c2        1 FII     -0.162400
     13 C30        10.6480   -4.3630   -0.4590 c3        1 FII     -0.050900
     14 C34        11.2550   -1.9730   -0.7740 c2        1 FII     -0.165200
     15 C35        12.6140   -2.2780   -1.2860 c3        1 FII      0.161600
     16 O36        13.3460   -1.0830   -1.6370 os        1 FII     -0.260900
     17 N42        13.8820   -0.4250   -0.5970 ns        1 FII     -0.379400
     18 C43        13.2500    0.8350   -0.3020 c         1 FII      0.655100
     19 O44        12.0910    1.0700   -0.6980 o         1 FII     -0.614100
     20 C45        13.9780    1.7720    0.6020 c3        1 FII     -0.403600
     21 P46        15.4310    2.4640   -0.0240 p5        1 FII      1.343600
     22 O49        16.0720    1.4310   -0.8830 o         1 FII     -0.856000
     23 O50        15.2200    3.8760   -0.3850 o         1 FII     -0.856000
     24 O51        16.3830    2.3900    1.3140 oh        1 FII     -0.798400
     25 H11         0.5160    2.1640    0.6870 hc        1 FII      0.039033
     26 H12        -0.1630    1.7570   -0.9420 hc        1 FII      0.039033
     27 H13         0.0130    0.4620    0.3140 hc        1 FII      0.039033
     28 H61         1.9180    3.1720   -1.2510 hc        1 FII      0.039033
     29 H62         3.4430    2.5450   -0.4930 hc        1 FII      0.039033
     30 H63         2.9990    2.0440   -2.1740 hc        1 FII      0.039033
     31 H101        1.8300   -0.9620   -0.1510 ha        1 FII      0.118000
     32 H111        3.7890   -0.2870   -2.1820 hc        1 FII      0.054200
     33 H112        4.4940    0.3110   -0.6330 hc        1 FII      0.054200
     34 H121        4.1910   -1.9540    0.4000 hc        1 FII      0.040200
     35 H122        3.4390   -2.5660   -1.1250 hc        1 FII      0.040200
     36 H181        6.1280   -3.2700   -3.0080 hc        1 FII      0.039033
     37 H182        4.6060   -2.3030   -3.2180 hc        1 FII      0.039033
     38 H183        6.2190   -1.4720   -3.1890 hc        1 FII      0.039033
     39 H221        6.5190   -2.1560    0.6100 ha        1 FII      0.121000
     40 H231        7.9560   -3.6420   -1.4350 hc        1 FII      0.051700
     41 H232        8.2350   -1.9000   -1.8190 hc        1 FII      0.051700
     42 H241        8.7340   -3.2180    0.9440 hc        1 FII      0.044200
     43 H242        9.0400   -1.4870    0.5150 hc        1 FII      0.044200
     44 H301       11.4310   -4.6020   -1.2210 hc        1 FII      0.031700
     45 H302       11.0150   -4.7120    0.5390 hc        1 FII      0.031700
     46 H303        9.7240   -4.9390   -0.7120 hc        1 FII      0.031700
     47 H341       11.0160   -0.8930   -0.7150 ha        1 FII      0.175000
     48 H351       13.1910   -2.9020   -0.5540 h1        1 FII      0.052200
     49 H352       12.5600   -2.8120   -2.2760 h1        1 FII      0.052200
     50 HN1        14.8770   -0.2540   -0.8100 hn        1 FII      0.344500
     51 H451       13.2770    2.6040    0.8650 hc        1 FII      0.098700
     52 H452       14.2320    1.2390    1.5530 hc        1 FII      0.098700
     53 H422       17.1270    1.8130    1.1860 ho        1 FII      0.426000
@<TRIPOS>BOND
     1    1    2 1   
     2    1   25 1   
     3    1   26 1   
     4    1   27 1   
     5    2    3 1   
     6    2    4 2   
     7    3   28 1   
     8    3   29 1   
     9    3   30 1   
    10    4    5 1   
    11    4   31 1   
    12    5    6 1   
    13    5   32 1   
    14    5   33 1   
    15    6    7 1   
    16    6   34 1   
    17    6   35 1   
    18    7    8 1   
    19    7    9 2   
    20    8   36 1   
    21    8   37 1   
    22    8   38 1   
    23    9   10 1   
    24    9   39 1   
    25   10   11 1   
    26   10   40 1   
    27   10   41 1   
    28   11   12 1   
    29   11   42 1   
    30   11   43 1   
    31   12   13 1   
    32   12   14 2   
    33   13   44 1   
    34   13   45 1   
    35   13   46 1   
    36   14   15 1   
    37   14   47 1   
    38   15   16 1   
    39   15   48 1   
    40   15   49 1   
    41   16   17 1   
    42   17   18 1   
    43   17   50 1   
    44   18   19 2   
    45   18   20 1   
    46   20   21 1   
    47   20   51 1   
    48   20   52 1   
    49   21   22 1   
    50   21   23 1   
    51   21   24 1   
    52   24   53 1   
@<TRIPOS>SUBSTRUCTURE
     1 FII         1 TEMP              0 ****  ****    0 ROOT
