@<TRIPOS>MOLECULE
FII
   52    50     1     0     0
SMALL
bcc


@<TRIPOS>ATOM
      1 C1         -1.7770    1.5650   10.0190 c3        1 FII     -0.176500
      2 C2         -1.7340    1.2450    8.5720 c2        1 FII     -0.131000
      3 C6         -2.7780    1.8810    7.7340 c3        1 FII     -0.176500
      4 C10        -0.8000    0.4310    8.0530 c2        1 FII     -0.160000
      5 C11        -0.7260    0.0870    6.6150 c3        1 FII     -0.132000
      6 C12         0.5040   -0.7400    6.2840 c3        1 FII     -0.112000
      7 C15         0.5300   -1.1280    4.8460 c2        1 FII     -0.148000
      8 C18        -0.4690   -2.1340    4.4120 c3        1 FII     -0.176000
      9 C22         1.4180   -0.5940    3.9900 c2        1 FII     -0.142000
     10 C23         1.4890   -0.9540    2.5560 c3        1 FII     -0.138000
     11 C24         2.4720   -0.0870    1.7900 c3        1 FII     -0.103000
     12 C27         2.5530   -0.4910    0.3570 c2        1 FII     -0.200000
     13 C30         3.4780   -1.6090    0.0550 c3        1 FII     -0.163000
     14 C34         1.8350    0.1390   -0.5860 c2        1 FII     -0.093000
     15 C35         1.8580   -0.2130   -2.0290 c3        1 FII     -0.008000
     16 O36         0.9980    0.7390   -2.6930 os        1 FII     -0.231000
     17 N42         1.0720    0.6880   -4.0450 n         1 FII     -0.228000
     18 C43         0.3090   -0.4130   -4.6550 c2        1 FII      0.301000
     19 O44         0.0530   -1.4200   -3.9270 o         1 FII     -0.545000
     20 C45        -0.0300   -0.2340   -6.0110 c2        1 FII     -0.750000
     21 P46        -1.6270    1.2630   -6.8470 p3        1 FII      2.506000
     22 O49        -1.1980    2.3940   -5.9810 o         1 FII     -1.189333
     23 O50        -1.1130    1.2220   -8.2420 o         1 FII     -1.189333
     24 O51        -2.9350    0.6120   -6.5890 o         1 FII     -1.189333
     25 H11        -0.9450    1.0690   10.5770 hc        1 FII      0.076833
     26 H12        -1.6940    2.6700   10.1700 hc        1 FII      0.076833
     27 H13        -2.7480    1.2260   10.4590 hc        1 FII      0.076833
     28 H61        -3.3180    1.1090    7.1290 hc        1 FII      0.076833
     29 H62        -3.5250    2.4290    8.3590 hc        1 FII      0.076833
     30 H63        -2.3110    2.6070    7.0210 hc        1 FII      0.076833
     31 H101       -0.0330   -0.0240    8.7010 ha        1 FII      0.116000
     32 H111       -1.6500   -0.4840    6.3190 hc        1 FII      0.095500
     33 H112       -0.7210    1.0280    6.0000 hc        1 FII      0.095500
     34 H121        1.4230   -0.1520    6.5480 hc        1 FII      0.075000
     35 H122        0.5100   -1.6680    6.9170 hc        1 FII      0.075000
     36 H181        0.0350   -2.9750    3.8710 hc        1 FII      0.079333
     37 H182       -1.0300   -2.5560    5.2800 hc        1 FII      0.079333
     38 H183       -1.2030   -1.6680    3.7070 hc        1 FII      0.079333
     39 H221        2.1460    0.1580    4.3380 ha        1 FII      0.114000
     40 H231        1.7870   -2.0350    2.4580 hc        1 FII      0.098500
     41 H232        0.4700   -0.8590    2.0880 hc        1 FII      0.098500
     42 H241        2.1550    0.9870    1.8710 hc        1 FII      0.068500
     43 H242        3.4890   -0.1710    2.2610 hc        1 FII      0.068500
     44 H301        3.4880   -2.3530    0.8900 hc        1 FII      0.068667
     45 H302        3.1770   -2.1370   -0.8850 hc        1 FII      0.068667
     46 H303        4.5190   -1.2220   -0.0790 hc        1 FII      0.068667
     47 H341        1.1580    0.9710   -0.3220 ha        1 FII      0.133000
     48 H351        2.9040   -0.1550   -2.4340 h1        1 FII      0.102000
     49 H352        1.4470   -1.2480   -2.2030 h1        1 FII      0.102000
     50 HN1         0.6670    1.5730   -4.3560 hn        1 FII      0.214000
     51 H451        0.5810    0.4300   -6.6330 ha        1 FII      0.108000
     52 H452       -0.5130   -1.0700   -6.5210 ha        1 FII      0.108000
@<TRIPOS>BOND
     1    1    2 1   
     2    1   25 1   
     3    1   26 1   
     4    1   27 1   
     5    2    3 1   
     6    2    4 1   
     7    3   28 1   
     8    3   29 1   
     9    3   30 1   
    10    4    5 1   
    11    4   31 1   
    12    5    6 1   
    13    5   32 1   
    14    5   33 1   
    15    6    7 1   
    16    6   34 1   
    17    6   35 1   
    18    7    8 1   
    19    7    9 1   
    20    8   36 1   
    21    8   37 1   
    22    8   38 1   
    23    9   10 1   
    24    9   39 1   
    25   10   11 1   
    26   10   40 1   
    27   10   41 1   
    28   11   12 1   
    29   11   42 1   
    30   11   43 1   
    31   12   13 1   
    32   12   14 1   
    33   13   44 1   
    34   13   45 1   
    35   13   46 1   
    36   14   15 1   
    37   14   47 1   
    38   15   16 1   
    39   15   48 1   
    40   15   49 1   
    41   16   17 1   
    42   17   18 1   
    43   17   50 1   
    44   18   19 1   
    45   18   20 1   
    46   20   51 1   
    47   20   52 1   
    48   21   22 1   
    49   21   23 1   
    50   21   24 1   
@<TRIPOS>SUBSTRUCTURE
     1 FII         1 TEMP              0 ****  ****    0 ROOT
