@<TRIPOS>MOLECULE
FII
   53    52     1     0     0
SMALL
bcc


@<TRIPOS>ATOM
      1 C1          0.4720    1.3170   -0.0150 c3        1 FII     -0.056400
      2 C2          1.8380    1.0690   -0.5350 c2        1 FII     -0.131400
      3 C6          2.5550    2.2520   -1.0680 c3        1 FII     -0.056400
      4 C10         2.3910   -0.1550   -0.5170 c2        1 FII     -0.171200
      5 C11         3.7500   -0.4420   -1.0300 c3        1 FII     -0.046200
      6 C12         4.1940   -1.8590   -0.7100 c3        1 FII     -0.033200
      7 C15         5.5370   -2.1540   -1.2860 c2        1 FII     -0.141400
      8 C18         5.6100   -2.2850   -2.7610 c3        1 FII     -0.055900
      9 C22         6.6200   -2.2950   -0.5040 c2        1 FII     -0.156200
     10 C23         7.9710   -2.5980   -1.0290 c3        1 FII     -0.048200
     11 C24         9.0330   -2.5360    0.0540 c3        1 FII     -0.032200
     12 C27        10.3800   -2.8950   -0.4770 c2        1 FII     -0.162400
     13 C30        10.6710   -4.3460   -0.5590 c3        1 FII     -0.050900
     14 C34        11.2630   -1.9470   -0.8250 c2        1 FII     -0.165200
     15 C35        12.6200   -2.2340   -1.3520 c3        1 FII      0.161600
     16 O36        13.3450   -1.0280   -1.6800 os        1 FII     -0.260900
     17 N42        13.8840   -0.3920   -0.6280 n         1 FII     -0.379400
     18 C43        13.2490    0.8580   -0.2990 c         1 FII      0.655100
     19 O44        12.0870    1.0970   -0.6820 o         1 FII     -0.614100
     20 C45        13.9790    1.7760    0.6230 c3        1 FII     -0.403600
     21 P46        15.4250    2.4890    0.0030 p5        1 FII      1.343600
     22 O49        16.0640    1.4800   -0.8840 o         1 FII     -0.856000
     23 O50        15.2060    3.9090   -0.3220 o         1 FII     -0.856000
     24 O51        16.3860    2.3880    1.3330 oh        1 FII     -0.798400
     25 H11         0.5050    2.0860    0.7970 hc        1 FII      0.039033
     26 H12        -0.1860    1.7040   -0.8340 hc        1 FII      0.039033
     27 H13         0.0110    0.3870    0.3980 hc        1 FII      0.039033
     28 H61         1.8810    3.1400   -1.1350 hc        1 FII      0.039033
     29 H62         3.4170    2.5110   -0.4020 hc        1 FII      0.039033
     30 H63         2.9630    2.0370   -2.0880 hc        1 FII      0.039033
     31 H101        1.8350   -1.0140   -0.1080 ha        1 FII      0.118000
     32 H111        3.7700   -0.2870   -2.1440 hc        1 FII      0.054200
     33 H112        4.4850    0.2880   -0.5910 hc        1 FII      0.054200
     34 H121        4.2080   -1.9970    0.4040 hc        1 FII      0.040200
     35 H122        3.4470   -2.5880   -1.1260 hc        1 FII      0.040200
     36 H181        6.1210   -3.2400   -3.0430 hc        1 FII      0.039033
     37 H182        4.5930   -2.2770   -3.2240 hc        1 FII      0.039033
     38 H183        6.2020   -1.4390   -3.1930 hc        1 FII      0.039033
     39 H221        6.5380   -2.1850    0.5900 ha        1 FII      0.121000
     40 H231        7.9680   -3.6210   -1.4970 hc        1 FII      0.051700
     41 H232        8.2320   -1.8700   -1.8460 hc        1 FII      0.051700
     42 H241        8.7620   -3.2420    0.8850 hc        1 FII      0.044200
     43 H242        9.0540   -1.5010    0.4890 hc        1 FII      0.044200
     44 H301       11.4430   -4.5640   -1.3380 hc        1 FII      0.031700
     45 H302       11.0550   -4.7150    0.4250 hc        1 FII      0.031700
     46 H303        9.7460   -4.9230   -0.8110 hc        1 FII      0.031700
     47 H341       11.0190   -0.8700   -0.7390 ha        1 FII      0.175000
     48 H351       13.2050   -2.8730   -0.6390 h1        1 FII      0.052200
     49 H352       12.5610   -2.7440   -2.3540 h1        1 FII      0.052200
     50 HN1        14.8770   -0.2110   -0.8440 hn        1 FII      0.344500
     51 H451       13.2760    2.5990    0.9100 hc        1 FII      0.098700
     52 H452       14.2420    1.2220    1.5580 hc        1 FII      0.098700
     53 H422       17.1320    1.8170    1.1860 ho        1 FII      0.426000
@<TRIPOS>BOND
     1    1    2 1   
     2    1   25 1   
     3    1   26 1   
     4    1   27 1   
     5    2    3 1   
     6    2    4 2   
     7    3   28 1   
     8    3   29 1   
     9    3   30 1   
    10    4    5 1   
    11    4   31 1   
    12    5    6 1   
    13    5   32 1   
    14    5   33 1   
    15    6    7 1   
    16    6   34 1   
    17    6   35 1   
    18    7    8 1   
    19    7    9 2   
    20    8   36 1   
    21    8   37 1   
    22    8   38 1   
    23    9   10 1   
    24    9   39 1   
    25   10   11 1   
    26   10   40 1   
    27   10   41 1   
    28   11   12 1   
    29   11   42 1   
    30   11   43 1   
    31   12   13 1   
    32   12   14 2   
    33   13   44 1   
    34   13   45 1   
    35   13   46 1   
    36   14   15 1   
    37   14   47 1   
    38   15   16 1   
    39   15   48 1   
    40   15   49 1   
    41   16   17 1   
    42   17   18 1   
    43   17   50 1   
    44   18   19 2   
    45   18   20 1   
    46   20   21 1   
    47   20   51 1   
    48   20   52 1   
    49   21   22 1   
    50   21   23 1   
    51   21   24 1   
    52   24   53 1   
@<TRIPOS>SUBSTRUCTURE
     1 FII         1 TEMP              0 ****  ****    0 ROOT
