@<TRIPOS>MOLECULE
FIL
   41    38     1     0     0
SMALL
bcc


@<TRIPOS>ATOM
      1 O19         4.1580    3.1860    2.1370 o         1 FIL     -0.350000
      2 C18         4.3770    2.3570    2.9970 c1        1 FIL      0.413000
      3 N20         5.2200    2.6770    4.0930 n2        1 FIL     -0.423000
      4 O21         3.8070    1.0770    2.9010 os        1 FIL     -0.197000
      5 N2          2.9240    1.0400    1.8590 n2        1 FIL     -0.080000
      6 C1          2.7540   -0.0650    1.1860 c1        1 FIL      0.002000
      7 C17         3.5340   -1.3050    1.5600 c2        1 FIL     -0.211000
      8 C3          1.7770   -0.1050    0.0320 c2        1 FIL     -0.075000
      9 C4          2.1510    0.3820   -1.2100 c2        1 FIL     -0.071000
     10 C5          1.2610    0.3310   -2.2710 c1        1 FIL     -0.203000
     11 C6         -0.0030   -0.2080   -2.0900 c1        1 FIL      0.083000
     12 O7         -0.9040   -0.2600   -3.1660 os        1 FIL     -0.191000
     13 C8         -0.4550   -1.0420   -4.2500 c3        1 FIL     -0.080000
     14 C9         -0.3770   -0.6950   -0.8480 c1        1 FIL      0.028000
     15 C16         0.5130   -0.6440    0.2130 c1        1 FIL     -0.108000
     16 O10        -1.6310   -1.3090   -0.6830 os        1 FIL     -0.210000
     17 C11        -2.5950   -0.3250   -0.2630 c3        1 FIL      0.032000
     18 C12        -3.4820   -0.9060    1.0010 c3        1 FIL     -0.174500
     19 C13        -4.6240   -0.2250    0.9970 c3        1 FIL     -0.155500
     20 C14        -4.8320    0.2060   -0.4900 c3        1 FIL     -0.155500
     21 C15        -3.4400   -0.0900   -1.2220 c3        1 FIL     -0.174500
     22 H201        5.3050    2.0920    4.7900 hn        1 FIL      0.247500
     23 H202        5.6760    3.4690    4.1020 hn        1 FIL      0.247500
     24 H171        3.0180   -2.1020    1.3180 ha        1 FIL      0.103333
     25 H172        3.7030   -1.3070    2.5260 ha        1 FIL      0.103333
     26 H173        4.3890   -1.3110    1.0800 ha        1 FIL      0.103333
     27 H4          3.0410    0.7610   -1.3380 ha        1 FIL      0.145000
     28 H5          1.5250    0.6750   -3.1460 ha        1 FIL      0.142000
     29 H81        -1.2220   -1.3140   -4.7970 h1        1 FIL      0.086000
     30 H82         0.1680   -0.5160   -4.7970 h1        1 FIL      0.086000
     31 H83         0.0040   -1.8400   -3.9090 h1        1 FIL      0.086000
     32 H16         0.2500   -0.9870    1.0880 ha        1 FIL      0.149000
     33 H11        -2.1420    0.5020   -0.0030 h1        1 FIL      0.083000
     34 H121       -3.0050   -0.7580    1.8440 hc        1 FIL      0.097500
     35 H122       -3.6590   -1.8610    0.8770 hc        1 FIL      0.097500
     36 H131       -5.3630   -0.7970    1.2920 hc        1 FIL      0.081500
     37 H132       -4.5520    0.5640    1.5740 hc        1 FIL      0.081500
     38 H141       -5.0440    1.1600   -0.5390 hc        1 FIL      0.081500
     39 H142       -5.5480   -0.3210   -0.8980 hc        1 FIL      0.081500
     40 H151       -3.1560    0.6910   -1.7420 hc        1 FIL      0.097500
     41 H152       -3.5210   -0.8740   -1.8030 hc        1 FIL      0.097500
@<TRIPOS>BOND
     1    1    2 1   
     2    2    4 1   
     3    3   22 1   
     4    3   23 1   
     5    4    5 1   
     6    5    6 1   
     7    6    8 1   
     8    7   24 1   
     9    7   25 1   
    10    7   26 1   
    11    8    9 1   
    12    8   15 1   
    13    9   10 1   
    14    9   27 1   
    15   10   28 1   
    16   11   12 1   
    17   11   14 1   
    18   12   13 1   
    19   13   29 1   
    20   13   30 1   
    21   13   31 1   
    22   14   16 1   
    23   15   32 1   
    24   16   17 1   
    25   17   18 1   
    26   17   21 1   
    27   17   33 1   
    28   18   19 1   
    29   18   34 1   
    30   18   35 1   
    31   19   20 1   
    32   19   36 1   
    33   19   37 1   
    34   20   21 1   
    35   20   38 1   
    36   20   39 1   
    37   21   40 1   
    38   21   41 1   
@<TRIPOS>SUBSTRUCTURE
     1 FIL         1 TEMP              0 ****  ****    0 ROOT
