@<TRIPOS>MOLECULE
FIL
   42    43     1     0     0
SMALL
bcc


@<TRIPOS>ATOM
      1 O19         2.1550    1.4310   -0.0780 o         1 FIL     -0.390000
      2 C18         2.3070    0.2280    0.0310 c         1 FIL      0.596100
      3 N20         2.5860   -0.3960    1.3710 nz        1 FIL     -0.727400
      4 O21         2.2980   -0.7420   -0.9290 os        1 FIL     -0.142600
      5 N2          1.5380   -0.5960   -2.0260 n2        1 FIL     -0.455200
      6 C1          2.0590    0.0030   -3.0860 ce        1 FIL      0.550900
      7 C17         3.3810    0.7050   -3.1240 c3        1 FIL     -0.194400
      8 C3          1.3060   -0.0150   -4.3450 ca        1 FIL     -0.210900
      9 C4          1.9960    0.0440   -5.5610 ca        1 FIL     -0.068000
     10 C5          1.3080    0.0210   -6.7710 ca        1 FIL     -0.202000
     11 C6         -0.0890   -0.0470   -6.7830 ca        1 FIL      0.168100
     12 O7         -0.8670   -0.0620   -7.9080 os        1 FIL     -0.284900
     13 C8         -0.1800   -0.0400   -9.1600 c3        1 FIL      0.102700
     14 C9         -0.8010   -0.1070   -5.5460 ca        1 FIL      0.101100
     15 C16        -0.1010   -0.1020   -4.3450 ca        1 FIL     -0.124000
     16 O10        -2.1660   -0.2110   -5.6670 os        1 FIL     -0.298900
     17 C11        -2.9500    0.1280   -4.5070 c3        1 FIL      0.135100
     18 C12        -3.0950   -1.0710   -3.5640 c3        1 FIL     -0.094400
     19 C13        -4.5700   -1.4430   -3.5220 c3        1 FIL     -0.078900
     20 C14        -5.3430   -0.3310   -4.2180 c3        1 FIL     -0.078900
     21 C15        -4.3460    0.4660   -5.0440 c3        1 FIL     -0.094400
     22 H201        1.8020   -1.0130    1.6200 hn        1 FIL      0.480800
     23 H202        2.6880    0.3420    2.0780 hn        1 FIL      0.480800
     24 H171        4.1560    0.0120   -3.5410 hc        1 FIL      0.078700
     25 H172        3.7050    1.0310   -2.1040 hc        1 FIL      0.078700
     26 H173        3.3190    1.6100   -3.7790 hc        1 FIL      0.078700
     27 H4          3.0960    0.0950   -5.5810 ha        1 FIL      0.140000
     28 H5          1.8720    0.0600   -7.7150 ha        1 FIL      0.158000
     29 H81         0.4080    0.9030   -9.2680 h1        1 FIL      0.057367
     30 H82         0.4800   -0.9350   -9.2630 h1        1 FIL      0.057367
     31 H83        -1.0160   -0.0750   -9.9050 h1        1 FIL      0.057367
     32 H16        -0.6580   -0.1650   -3.3970 ha        1 FIL      0.158000
     33 H11        -2.4880    1.0080   -3.9880 h1        1 FIL      0.048700
     34 H121       -2.7290   -0.7980   -2.5430 hc        1 FIL      0.057950
     35 H122       -2.4780   -1.9290   -3.9320 hc        1 FIL      0.057950
     36 H131       -4.9190   -1.5720   -2.4680 hc        1 FIL      0.050450
     37 H132       -4.7350   -2.4160   -4.0510 hc        1 FIL      0.050450
     38 H141       -6.1500   -0.7510   -4.8670 hc        1 FIL      0.050450
     39 H142       -5.8340    0.3320   -3.4610 hc        1 FIL      0.050450
     40 H151       -4.5350    1.5640   -4.9660 hc        1 FIL      0.057950
     41 H152       -4.4100    0.1840   -6.1270 hc        1 FIL      0.057950
     42 H203        3.4430   -0.9570    1.3210 hn        1 FIL      0.480800
@<TRIPOS>BOND
     1    1    2 2   
     2    2    3 1   
     3    2    4 1   
     4    3   22 1   
     5    3   23 1   
     6    3   42 1   
     7    4    5 1   
     8    5    6 2   
     9    6    7 1   
    10    6    8 1   
    11    7   24 1   
    12    7   25 1   
    13    7   26 1   
    14    8    9 ar  
    15    8   15 ar  
    16    9   10 ar  
    17    9   27 1   
    18   10   11 ar  
    19   10   28 1   
    20   11   12 1   
    21   11   14 ar  
    22   12   13 1   
    23   13   29 1   
    24   13   30 1   
    25   13   31 1   
    26   14   15 ar  
    27   14   16 1   
    28   15   32 1   
    29   16   17 1   
    30   17   18 1   
    31   17   21 1   
    32   17   33 1   
    33   18   19 1   
    34   18   34 1   
    35   18   35 1   
    36   19   20 1   
    37   19   36 1   
    38   19   37 1   
    39   20   21 1   
    40   20   38 1   
    41   20   39 1   
    42   21   40 1   
    43   21   41 1   
@<TRIPOS>SUBSTRUCTURE
     1 FIL         1 TEMP              0 ****  ****    0 ROOT
