@<TRIPOS>MOLECULE
FIL
   42    43     1     0     0
SMALL
bcc


@<TRIPOS>ATOM
      1 O19         2.1770    1.4430   -0.0970 o         1 FIL     -0.390000
      2 C18         2.3210    0.2400    0.0210 c         1 FIL      0.596100
      3 N20         2.6000   -0.3760    1.3640 n4        1 FIL     -0.727400
      4 O21         2.3020   -0.7370   -0.9320 os        1 FIL     -0.142600
      5 N2          1.5400   -0.5940   -2.0270 n2        1 FIL     -0.455200
      6 C1          2.0630   -0.0070   -3.0940 ce        1 FIL      0.550900
      7 C17         3.3890    0.6850   -3.1410 c3        1 FIL     -0.194400
      8 C3          1.3050   -0.0290   -4.3500 ca        1 FIL     -0.210900
      9 C4          1.9930    0.0160   -5.5690 ca        1 FIL     -0.068000
     10 C5          1.3010   -0.0120   -6.7770 ca        1 FIL     -0.202000
     11 C6         -0.0960   -0.0700   -6.7850 ca        1 FIL      0.168100
     12 O7         -0.8770   -0.0880   -7.9080 os        1 FIL     -0.284900
     13 C8         -0.1940   -0.0810   -9.1620 c3        1 FIL      0.102700
     14 C9         -0.8050   -0.1150   -5.5460 ca        1 FIL      0.101100
     15 C16        -0.1020   -0.1060   -4.3460 ca        1 FIL     -0.124000
     16 O10        -2.1710   -0.2110   -5.6620 os        1 FIL     -0.298900
     17 C11        -2.9500    0.1420   -4.5020 c3        1 FIL      0.135100
     18 C12        -3.1000   -1.0490   -3.5500 c3        1 FIL     -0.094400
     19 C13        -4.5770   -1.4100   -3.5010 c3        1 FIL     -0.078900
     20 C14        -5.3440   -0.2990   -4.2030 c3        1 FIL     -0.078900
     21 C15        -4.3450    0.4850   -5.0380 c3        1 FIL     -0.094400
     22 H201        1.8140   -0.9850    1.6200 hn        1 FIL      0.480800
     23 H202        3.4540   -0.9430    1.3160 hn        1 FIL      0.480800
     24 H171        4.1580   -0.0170   -3.5540 hc        1 FIL      0.078700
     25 H172        3.7180    1.0170   -2.1240 hc        1 FIL      0.078700
     26 H173        3.3320    1.5860   -3.8030 hc        1 FIL      0.078700
     27 H4          3.0940    0.0590   -5.5930 ha        1 FIL      0.140000
     28 H5          1.8630    0.0160   -7.7230 ha        1 FIL      0.158000
     29 H81        -1.0320   -0.1150   -9.9040 h1        1 FIL      0.057367
     30 H82         0.4010    0.8580   -9.2780 h1        1 FIL      0.057367
     31 H83         0.4590   -0.9810   -9.2590 h1        1 FIL      0.057367
     32 H16        -0.6570   -0.1580   -3.3960 ha        1 FIL      0.158000
     33 H11        -2.4800    1.0230   -3.9910 h1        1 FIL      0.048700
     34 H121       -2.7300   -0.7700   -2.5310 hc        1 FIL      0.057950
     35 H122       -2.4890   -1.9130   -3.9130 hc        1 FIL      0.057950
     36 H131       -4.9240   -1.5290   -2.4450 hc        1 FIL      0.050450
     37 H132       -4.7500   -2.3870   -4.0210 hc        1 FIL      0.050450
     38 H141       -5.8300    0.3730   -3.4500 hc        1 FIL      0.050450
     39 H142       -6.1560   -0.7190   -4.8470 hc        1 FIL      0.050450
     40 H151       -4.5260    1.5850   -4.9680 hc        1 FIL      0.057950
     41 H152       -4.4140    0.1960   -6.1190 hc        1 FIL      0.057950
     42 H203        2.7090    0.3670    2.0650 hn        1 FIL      0.480800
@<TRIPOS>BOND
     1    1    2 2   
     2    2    3 1   
     3    2    4 1   
     4    3   22 1   
     5    3   23 1   
     6    3   42 1   
     7    4    5 1   
     8    5    6 2   
     9    6    7 1   
    10    6    8 1   
    11    7   24 1   
    12    7   25 1   
    13    7   26 1   
    14    8    9 ar  
    15    8   15 ar  
    16    9   10 ar  
    17    9   27 1   
    18   10   11 ar  
    19   10   28 1   
    20   11   12 1   
    21   11   14 ar  
    22   12   13 1   
    23   13   29 1   
    24   13   30 1   
    25   13   31 1   
    26   14   15 ar  
    27   14   16 1   
    28   15   32 1   
    29   16   17 1   
    30   17   18 1   
    31   17   21 1   
    32   17   33 1   
    33   18   19 1   
    34   18   34 1   
    35   18   35 1   
    36   19   20 1   
    37   19   36 1   
    38   19   37 1   
    39   20   21 1   
    40   20   38 1   
    41   20   39 1   
    42   21   40 1   
    43   21   41 1   
@<TRIPOS>SUBSTRUCTURE
     1 FIL         1 TEMP              0 ****  ****    0 ROOT
