@<TRIPOS>MOLECULE
FIL
   41    42     1     0     0
SMALL
bcc


@<TRIPOS>ATOM
      1 O19         1.0250    0.1290   -6.1600 o         1 FIL     -0.539000
      2 C18         0.6630   -0.2960   -5.0540 c         1 FIL      0.758100
      3 N20        -0.3430   -1.1840   -4.8010 n         1 FIL     -0.663000
      4 O21         1.4520    0.2900   -4.0370 os        1 FIL     -0.188600
      5 N2          1.1910   -0.0220   -2.7720 n2        1 FIL     -0.466200
      6 C1          1.9720    0.5550   -1.8900 ce        1 FIL      0.449900
      7 C17         3.1060    1.4840   -2.1910 c3        1 FIL     -0.168400
      8 C3          1.7510    0.2710   -0.4570 ca        1 FIL     -0.142900
      9 C4          2.8500    0.0150    0.3670 ca        1 FIL     -0.101000
     10 C5          2.6710   -0.2440    1.7260 ca        1 FIL     -0.188000
     11 C6          1.3860   -0.2520    2.2720 ca        1 FIL      0.117100
     12 O7          1.0940   -0.5080    3.5950 os        1 FIL     -0.301900
     13 C8          2.2130   -0.6710    4.4600 c3        1 FIL      0.108700
     14 C9          0.2670    0.0170    1.4400 ca        1 FIL      0.094100
     15 C16         0.4570    0.2740    0.0820 ca        1 FIL     -0.137000
     16 O10        -0.9590    0.0640    2.0710 os        1 FIL     -0.311900
     17 C11        -2.0970   -0.2960    1.2670 c3        1 FIL      0.138100
     18 C12        -2.7370    0.9500    0.6460 c3        1 FIL     -0.095900
     19 C13        -4.2170    0.9100    0.9910 c3        1 FIL     -0.077400
     20 C14        -4.3930   -0.0780    2.1350 c3        1 FIL     -0.077400
     21 C15        -3.1220   -0.9070    2.2320 c3        1 FIL     -0.095900
     22 H201       -0.8110   -1.5830   -5.5760 hn        1 FIL      0.334000
     23 H202       -0.5330   -1.5130   -3.8900 hn        1 FIL      0.334000
     24 H171        2.8970    2.0870   -3.1110 hc        1 FIL      0.063700
     25 H172        3.2790    2.1790   -1.3350 hc        1 FIL      0.063700
     26 H173        4.0360    0.8880   -2.3670 hc        1 FIL      0.063700
     27 H4          3.8660    0.0130   -0.0560 ha        1 FIL      0.139000
     28 H5          3.5480   -0.4480    2.3560 ha        1 FIL      0.143000
     29 H81         1.7410   -0.8130    5.4660 h1        1 FIL      0.045700
     30 H82         2.8050   -1.5740    4.1730 h1        1 FIL      0.045700
     31 H83         2.8580    0.2400    4.4520 h1        1 FIL      0.045700
     32 H16        -0.4100    0.4890   -0.5600 ha        1 FIL      0.153000
     33 H11        -1.7920   -1.0350    0.4800 h1        1 FIL      0.052700
     34 H121       -2.2570    1.8680    1.0710 hc        1 FIL      0.057450
     35 H122       -2.5850    0.9650   -0.4610 hc        1 FIL      0.057450
     36 H131       -4.8120    0.5800    0.1010 hc        1 FIL      0.043950
     37 H132       -4.5850    1.9250    1.2790 hc        1 FIL      0.043950
     38 H141       -5.2820   -0.7330    1.9600 hc        1 FIL      0.043950
     39 H142       -4.5680    0.4710    3.0950 hc        1 FIL      0.043950
     40 H151       -3.3140   -1.9710    1.9490 hc        1 FIL      0.057450
     41 H152       -2.7150   -0.8990    3.2760 hc        1 FIL      0.057450
@<TRIPOS>BOND
     1    1    2 2   
     2    2    3 1   
     3    2    4 1   
     4    3   22 1   
     5    3   23 1   
     6    4    5 1   
     7    5    6 2   
     8    6    7 1   
     9    6    8 1   
    10    7   24 1   
    11    7   25 1   
    12    7   26 1   
    13    8    9 ar  
    14    8   15 ar  
    15    9   10 ar  
    16    9   27 1   
    17   10   11 ar  
    18   10   28 1   
    19   11   12 1   
    20   11   14 ar  
    21   12   13 1   
    22   13   29 1   
    23   13   30 1   
    24   13   31 1   
    25   14   15 ar  
    26   14   16 1   
    27   15   32 1   
    28   16   17 1   
    29   17   18 1   
    30   17   21 1   
    31   17   33 1   
    32   18   19 1   
    33   18   34 1   
    34   18   35 1   
    35   19   20 1   
    36   19   36 1   
    37   19   37 1   
    38   20   21 1   
    39   20   38 1   
    40   20   39 1   
    41   21   40 1   
    42   21   41 1   
@<TRIPOS>SUBSTRUCTURE
     1 FIL         1 TEMP              0 ****  ****    0 ROOT
