@<TRIPOS>MOLECULE
FIL
   42    43     1     0     0
SMALL
bcc


@<TRIPOS>ATOM
      1 O19         2.3410   -1.4890   -0.1590 o         1 FIL     -0.390000
      2 C18         2.3510   -0.2830    0.0080 c         1 FIL      0.595100
      3 N20         2.5600    0.3030    1.3770 n4        1 FIL     -0.727400
      4 O21         2.2240    0.7240   -0.9040 os        1 FIL     -0.142600
      5 N2          1.4820    0.5430   -2.0080 n2        1 FIL     -0.456200
      6 C1          2.0640    0.0530   -3.0930 ce        1 FIL      0.550900
      7 C17         3.4560   -0.4930   -3.1600 c3        1 FIL     -0.194400
      8 C3          1.3070    0.0390   -4.3490 ca        1 FIL     -0.211900
      9 C4          1.9930    0.1040   -5.5680 ca        1 FIL     -0.067000
     10 C5          1.3000    0.0920   -6.7750 ca        1 FIL     -0.203000
     11 C6         -0.0960    0.0140   -6.7830 ca        1 FIL      0.169100
     12 O7         -0.8770   -0.0030   -7.9060 os        1 FIL     -0.284900
     13 C8         -0.1950    0.0230   -9.1600 c3        1 FIL      0.102700
     14 C9         -0.8030   -0.0550   -5.5440 ca        1 FIL      0.099100
     15 C16        -0.1000   -0.0390   -4.3450 ca        1 FIL     -0.122000
     16 O10        -2.1670   -0.1850   -5.6550 os        1 FIL     -0.300900
     17 C11        -2.9500    0.2200   -4.5150 c3        1 FIL      0.135100
     18 C12        -3.1240   -0.9390   -3.5270 c3        1 FIL     -0.094400
     19 C13        -4.6080   -1.2670   -3.4640 c3        1 FIL     -0.078900
     20 C14        -5.3530   -0.1680   -4.2100 c3        1 FIL     -0.078900
     21 C15        -4.3370    0.5650   -5.0710 c3        1 FIL     -0.094400
     22 H201        1.7110    0.8100    1.6550 hn        1 FIL      0.480800
     23 H202        2.7530   -0.4510    2.0470 hn        1 FIL      0.480800
     24 H171        3.4920   -1.3730   -3.8510 hc        1 FIL      0.079033
     25 H172        3.8210   -0.8200   -2.1550 hc        1 FIL      0.079033
     26 H173        4.1460    0.2990   -3.5510 hc        1 FIL      0.079033
     27 H4          3.0920    0.1800   -5.5910 ha        1 FIL      0.140000
     28 H5          1.8590    0.1500   -7.7210 ha        1 FIL      0.158000
     29 H81         0.4710   -0.8680   -9.2630 h1        1 FIL      0.057367
     30 H82        -1.0340   -0.0190   -9.9020 h1        1 FIL      0.057367
     31 H83         0.3860    0.9700   -9.2700 h1        1 FIL      0.057367
     32 H16        -0.6550   -0.1070   -3.3960 ha        1 FIL      0.158000
     33 H11        -2.4720    1.1090   -4.0270 h1        1 FIL      0.050700
     34 H121       -2.5340   -1.8270   -3.8660 hc        1 FIL      0.057450
     35 H122       -2.7440   -0.6390   -2.5180 hc        1 FIL      0.057450
     36 H131       -4.9570   -1.3340   -2.4040 hc        1 FIL      0.050450
     37 H132       -4.8030   -2.2600   -3.9430 hc        1 FIL      0.050450
     38 H141       -5.8270    0.5400   -3.4840 hc        1 FIL      0.050450
     39 H142       -6.1710   -0.5980   -4.8400 hc        1 FIL      0.050450
     40 H151       -4.4060    0.2330   -6.1400 hc        1 FIL      0.057450
     41 H152       -4.5000    1.6690   -5.0460 hc        1 FIL      0.057450
     42 H203        3.3450    0.9640    1.3560 hn        1 FIL      0.480800
@<TRIPOS>BOND
     1    1    2 2   
     2    2    3 1   
     3    2    4 1   
     4    3   22 1   
     5    3   23 1   
     6    3   42 1   
     7    4    5 1   
     8    5    6 2   
     9    6    7 1   
    10    6    8 1   
    11    7   24 1   
    12    7   25 1   
    13    7   26 1   
    14    8    9 ar  
    15    8   15 ar  
    16    9   10 ar  
    17    9   27 1   
    18   10   11 ar  
    19   10   28 1   
    20   11   12 1   
    21   11   14 ar  
    22   12   13 1   
    23   13   29 1   
    24   13   30 1   
    25   13   31 1   
    26   14   15 ar  
    27   14   16 1   
    28   15   32 1   
    29   16   17 1   
    30   17   18 1   
    31   17   21 1   
    32   17   33 1   
    33   18   19 1   
    34   18   34 1   
    35   18   35 1   
    36   19   20 1   
    37   19   36 1   
    38   19   37 1   
    39   20   21 1   
    40   20   38 1   
    41   20   39 1   
    42   21   40 1   
    43   21   41 1   
@<TRIPOS>SUBSTRUCTURE
     1 FIL         1 TEMP              0 ****  ****    0 ROOT
