@<TRIPOS>MOLECULE
FIN
   47    47     1     0     0
SMALL
bcc


@<TRIPOS>ATOM
      1 C14        -0.1490    0.2080   -0.3590 cp        1 FIN     -0.076000
      2 C15         0.9350   -0.6830   -0.4340 ca        1 FIN     -0.083500
      3 C16         1.8120   -0.8190    0.6400 ca        1 FIN     -0.190500
      4 C17         1.6110   -0.0580    1.7970 ca        1 FIN      0.065000
      5 C1          0.5350    0.8420    1.8850 ca        1 FIN     -0.190500
      6 C2         -0.3340    0.9650    0.8070 ca        1 FIN     -0.083500
      7 O1          2.4180   -0.1140    2.9220 os        1 FIN     -0.223000
      8 C3          3.5230   -1.0040    2.8470 c3        1 FIN     -0.073000
      9 C4         -1.0640    0.3310   -1.4910 cq        1 FIN      0.002000
     10 C5         -2.4290    0.5960   -1.3060 ca        1 FIN     -0.145500
     11 C6         -3.2920    0.6330   -2.3980 ca        1 FIN     -0.049000
     12 C7         -2.8190    0.4080   -3.6940 ca        1 FIN     -0.610000
     13 C8         -1.4530    0.1650   -3.8760 ca        1 FIN     -0.049000
     14 C9         -0.5800    0.1400   -2.7940 ca        1 FIN     -0.145500
     15 S1         -3.8010    0.4270   -5.0860 s4        1 FIN      1.535000
     16 O2         -5.1400    0.8890   -4.6860 o         1 FIN     -0.812000
     17 O3         -4.2240   -1.2300   -5.2470 os        1 FIN     -0.546000
     18 N1         -2.4610   -1.4240   -6.7930 n3        1 FIN     -0.409000
     19 C10        -3.1760   -2.0770   -5.7150 c3        1 FIN      0.113000
     20 C11        -3.8470   -3.4320   -6.0530 c3        1 FIN     -0.117000
     21 C12        -4.9840   -3.2790   -7.0370 c3        1 FIN     -0.213000
     22 C13        -2.8010   -4.3990   -6.5610 c3        1 FIN     -0.213000
     23 P1          1.1240   -2.9670   -4.6220 p3        1 FIN      2.397000
     24 O4         -0.0730   -2.6400   -5.4260 o         1 FIN     -1.128000
     25 O5          1.4560   -2.0980   -3.4770 o         1 FIN     -1.128000
     26 O6          1.9560   -4.1280   -4.9640 o         1 FIN     -1.128000
     27 H15         1.1030   -1.2830   -1.3560 ha        1 FIN      0.170500
     28 H16         2.6520   -1.5230    0.5580 ha        1 FIN      0.137000
     29 H1          0.3950    1.4340    2.7990 ha        1 FIN      0.137000
     30 H2         -1.1730    1.6740    0.8700 ha        1 FIN      0.170500
     31 H31         4.0280   -0.8820    3.8390 h1        1 FIN      0.078333
     32 H32         4.2110   -0.7130    2.0170 h1        1 FIN      0.078333
     33 H33         3.1740   -2.0570    2.7110 h1        1 FIN      0.078333
     34 H5         -2.8260    0.7490   -0.2920 ha        1 FIN      0.156000
     35 H6         -4.3670    0.8280   -2.2510 ha        1 FIN      0.151500
     36 H8         -1.0560   -0.0510   -4.8840 ha        1 FIN      0.151500
     37 H9          0.4900   -0.0840   -2.9620 ha        1 FIN      0.156000
     38 HN1        -1.4780   -1.6290   -6.7170 hn        1 FIN      0.178500
     39 H10        -2.4490   -2.2410   -4.8560 h2        1 FIN      0.130000
     40 H11        -4.2700   -3.8170   -5.0830 hc        1 FIN      0.096000
     41 H121       -4.6120   -2.9440   -8.0350 hc        1 FIN      0.075333
     42 H122       -5.7160   -2.5240   -6.6590 hc        1 FIN      0.075333
     43 H123       -5.5070   -4.2560   -7.1720 hc        1 FIN      0.075333
     44 H131       -3.1640   -5.4490   -6.4570 hc        1 FIN      0.075333
     45 H132       -1.8450   -4.2800   -5.9890 hc        1 FIN      0.075333
     46 H133       -2.5800   -4.2120   -7.6410 hc        1 FIN      0.075333
     47 H12        -2.8020   -1.7120   -7.6870 hn        1 FIN      0.178500
@<TRIPOS>BOND
     1    1    2 1   
     2    1    6 1   
     3    1    9 1   
     4    2    3 1   
     5    2   27 1   
     6    3    4 1   
     7    3   28 1   
     8    4    5 1   
     9    4    7 1   
    10    5    6 1   
    11    5   29 1   
    12    6   30 1   
    13    7    8 1   
    14    8   31 1   
    15    8   32 1   
    16    8   33 1   
    17    9   10 1   
    18    9   14 1   
    19   10   11 1   
    20   10   34 1   
    21   11   12 1   
    22   11   35 1   
    23   12   13 1   
    24   12   15 1   
    25   13   14 1   
    26   13   36 1   
    27   14   37 1   
    28   15   16 1   
    29   15   17 1   
    30   17   19 1   
    31   18   19 1   
    32   18   38 1   
    33   18   47 1   
    34   19   20 1   
    35   19   39 1   
    36   20   21 1   
    37   20   22 1   
    38   20   40 1   
    39   21   41 1   
    40   21   42 1   
    41   21   43 1   
    42   22   44 1   
    43   22   45 1   
    44   22   46 1   
    45   23   24 1   
    46   23   25 1   
    47   23   26 1   
@<TRIPOS>SUBSTRUCTURE
     1 FIN         1 TEMP              0 ****  ****    0 ROOT
