@<TRIPOS>MOLECULE
FIN
   47    47     1     0     0
SMALL
bcc


@<TRIPOS>ATOM
      1 C14         0.1350    0.0410    0.0730 cp        1 FIN     -0.066000
      2 C15         1.4400   -0.4630   -0.0090 ca        1 FIN     -0.084500
      3 C16         2.3410   -0.2880    1.0390 ca        1 FIN     -0.183500
      4 C17         1.9330    0.4050    2.1840 ca        1 FIN      0.069000
      5 C1          0.6280    0.9200    2.2840 ca        1 FIN     -0.183500
      6 C2         -0.2570    0.7330    1.2300 ca        1 FIN     -0.084500
      7 O1          2.7370    0.6380    3.2870 os        1 FIN     -0.218000
      8 C3          4.0730    0.1630    3.1940 c3        1 FIN     -0.074000
      9 C4         -0.8000   -0.1520   -1.0340 cq        1 FIN     -0.004000
     10 C5         -2.1550   -0.4200   -0.7840 ca        1 FIN     -0.150500
     11 C6         -3.0340   -0.6220   -1.8430 ca        1 FIN     -0.031500
     12 C7         -2.5910   -0.5620   -3.1680 ca        1 FIN     -0.735000
     13 C8         -1.2430   -0.2860   -3.4120 ca        1 FIN     -0.031500
     14 C9         -0.3530   -0.0850   -2.3590 ca        1 FIN     -0.150500
     15 S1         -3.6540   -0.8470   -4.4620 s6        1 FIN      2.202000
     16 O2         -3.7740    0.3170   -5.3090 o         1 FIN     -0.913000
     17 O3         -4.9230   -1.3000   -3.9310 o         1 FIN     -0.913000
     18 N1         -2.8360   -2.2070   -5.4090 ny        1 FIN     -0.181000
     19 C10        -3.7830   -3.1350   -5.7560 c2        1 FIN     -0.466000
     20 C11        -4.5540   -3.0760   -7.0220 c3        1 FIN     -0.027000
     21 C12        -3.6830   -2.7590   -8.2240 c3        1 FIN     -0.206500
     22 C13        -5.2720   -4.3980   -7.2280 c3        1 FIN     -0.206500
     23 P1          1.1670   -2.3150   -6.2570 p3        1 FIN      2.413000
     24 O4         -0.2060   -1.9700   -5.8120 o         1 FIN     -1.132000
     25 O5          2.2880   -1.9690   -5.3750 o         1 FIN     -1.132000
     26 O6          1.3500   -2.9910   -7.5450 o         1 FIN     -1.132000
     27 H15         1.7590   -1.0090   -0.9130 ha        1 FIN      0.146500
     28 H16         3.3580   -0.6940    0.9510 ha        1 FIN      0.139000
     29 H1          0.3280    1.4640    3.1890 ha        1 FIN      0.139000
     30 H2         -1.2780    1.1400    1.2990 ha        1 FIN      0.146500
     31 H31         4.0910   -0.9500    3.0920 h1        1 FIN      0.080333
     32 H32         4.6050    0.6410    2.3360 h1        1 FIN      0.080333
     33 H33         4.5320    0.4760    4.1660 h1        1 FIN      0.080333
     34 H5         -2.5200   -0.4820    0.2510 ha        1 FIN      0.136500
     35 H6         -4.0980   -0.8410   -1.6450 ha        1 FIN      0.166500
     36 H8         -0.8660   -0.2550   -4.4530 ha        1 FIN      0.166500
     37 H9          0.7070    0.1200   -2.5790 ha        1 FIN      0.136500
     38 HN1        -2.3650   -1.7750   -6.2170 hn        1 FIN      0.272500
     39 H10        -4.0910   -3.8500   -4.9850 hx        1 FIN      0.154000
     40 H11        -5.3400   -2.2650   -6.9350 hc        1 FIN      0.080000
     41 H121       -2.7840   -3.4210   -8.2460 hc        1 FIN      0.071333
     42 H122       -3.3410   -1.6960   -8.1990 hc        1 FIN      0.071333
     43 H123       -4.2600   -2.9120   -9.1680 hc        1 FIN      0.071333
     44 H131       -5.9010   -4.3510   -8.1490 hc        1 FIN      0.071333
     45 H132       -5.9320   -4.6220   -6.3560 hc        1 FIN      0.071333
     46 H133       -4.5350   -5.2290   -7.3410 hc        1 FIN      0.071333
     47 H12        -2.0880   -2.5860   -4.8180 hn        1 FIN      0.272500
@<TRIPOS>BOND
     1    1    2 1   
     2    1    6 1   
     3    1    9 1   
     4    2    3 1   
     5    2   27 1   
     6    3    4 1   
     7    3   28 1   
     8    4    5 1   
     9    4    7 1   
    10    5    6 1   
    11    5   29 1   
    12    6   30 1   
    13    7    8 1   
    14    8   31 1   
    15    8   32 1   
    16    8   33 1   
    17    9   10 1   
    18    9   14 1   
    19   10   11 1   
    20   10   34 1   
    21   11   12 1   
    22   11   35 1   
    23   12   13 1   
    24   12   15 1   
    25   13   14 1   
    26   13   36 1   
    27   14   37 1   
    28   15   16 1   
    29   15   17 1   
    30   15   18 1   
    31   18   19 1   
    32   18   38 1   
    33   18   47 1   
    34   19   20 1   
    35   19   39 1   
    36   20   21 1   
    37   20   22 1   
    38   20   40 1   
    39   21   41 1   
    40   21   42 1   
    41   21   43 1   
    42   22   44 1   
    43   22   45 1   
    44   22   46 1   
    45   23   24 1   
    46   23   25 1   
    47   23   26 1   
@<TRIPOS>SUBSTRUCTURE
     1 FIN         1 TEMP              0 ****  ****    0 ROOT
