@<TRIPOS>MOLECULE
FIN
   46    39     1     0     0
SMALL
bcc


@<TRIPOS>ATOM
      1 C14         1.7350   -0.9470    3.1100 c1        1 FIN     -0.051500
      2 C15         2.6300   -1.9920    3.3770 c1        1 FIN     -0.133500
      3 C16         3.3310   -2.0190    4.5780 c1        1 FIN     -0.133500
      4 C17         3.1440   -1.0130    5.5100 c1        1 FIN     -0.014000
      5 C1          2.2530    0.0250    5.2430 c1        1 FIN     -0.153000
      6 C2          1.5500    0.0530    4.0390 c1        1 FIN     -0.140000
      7 O1          3.8240   -1.0640    6.7630 os        1 FIN     -0.236000
      8 C3          5.0900   -0.3910    6.7690 c3        1 FIN     -0.067000
      9 C4          0.9850   -0.9260    1.8540 c1        1 FIN     -0.051500
     10 C5          1.4450   -0.2000    0.8000 c1        1 FIN     -0.140000
     11 C6          0.7450   -0.1970   -0.3990 c1        1 FIN     -0.119000
     12 C7         -0.4080   -0.9270   -0.5210 c1        1 FIN     -0.501000
     13 C8         -0.8700   -1.6570    0.5380 c1        1 FIN     -0.133500
     14 C9         -0.1730   -1.6590    1.7320 c1        1 FIN     -0.133500
     15 S1         -1.2090   -1.0690   -2.1220 s4        1 FIN      2.159800
     16 O2         -0.3980   -1.8720   -3.0580 o         1 FIN     -0.602400
     17 O3         -2.4270   -1.8770   -2.0380 o         1 FIN     -0.602400
     18 N1         -1.5300    0.4510   -2.7450 n2        1 FIN     -0.851000
     19 C10        -2.4420    0.5990   -3.8020 c3        1 FIN     -0.612000
     20 C11        -2.6800    2.1010   -4.0760 c3        1 FIN     -0.099000
     21 C12        -3.4310    2.7150   -2.9120 c3        1 FIN     -0.225000
     22 C13        -3.5180    2.2610   -5.3760 c3        1 FIN     -0.225000
     23 P1         -1.7700   -0.1780   -5.2890 p5        1 FIN      1.718500
     24 O4         -0.7740   -1.2580   -4.8910 o         1 FIN     -0.868500
     25 O5         -1.0540    0.8950   -6.1580 o         1 FIN     -0.868500
     26 O6         -2.8910   -0.7950   -6.0840 o         1 FIN     -0.868500
     27 H15         2.7600   -2.6880    2.7300 ha        1 FIN      0.120250
     28 H16         3.9550   -2.7480    4.7650 ha        1 FIN      0.120250
     29 H1          2.1270    0.7090    5.8770 ha        1 FIN      0.117000
     30 H2          0.8810    0.7620    3.8750 ha        1 FIN      0.111000
     31 H31         5.6290   -0.7220    7.5090 h1        1 FIN      0.064667
     32 H32         5.5560   -0.5610    5.9200 h1        1 FIN      0.064667
     33 H33         4.9440    0.5890    6.8770 h1        1 FIN      0.064667
     34 H5          2.2600    0.3150    0.8850 ha        1 FIN      0.111000
     35 H6          1.0730    0.3210   -1.1520 ha        1 FIN      0.122000
     36 H8         -1.7130   -2.1900    0.4490 ha        1 FIN      0.120250
     37 H9         -0.5040   -2.1860    2.4940 ha        1 FIN      0.120250
     38 HN1        -1.1410    1.1990   -2.3610 hn        1 FIN      0.217000
     39 H10        -3.2990    0.1690   -3.5600 h1        1 FIN      0.079000
     40 H11        -1.8440    2.5410   -4.1830 hc        1 FIN      0.111000
     41 H121       -4.3750    2.6340   -3.0640 hc        1 FIN      0.067833
     42 H122       -3.1990    2.2630   -2.1150 hc        1 FIN      0.067833
     43 H123       -3.1930    3.6670   -2.8320 hc        1 FIN      0.067833
     44 H131       -2.9160    2.2360   -6.1620 hc        1 FIN      0.067833
     45 H132       -3.9880    3.1090   -5.3560 hc        1 FIN      0.067833
     46 H133       -4.1710    1.5220   -5.4370 hc        1 FIN      0.067833
@<TRIPOS>BOND
     1    1    6 1   
     2    2    3 1   
     3    2   27 1   
     4    3   28 1   
     5    4    5 1   
     6    4    7 1   
     7    5   29 1   
     8    6   30 1   
     9    7    8 1   
    10    8   31 1   
    11    8   32 1   
    12    8   33 1   
    13    9   10 1   
    14   10   34 1   
    15   11   12 1   
    16   11   35 1   
    17   12   15 1   
    18   13   14 1   
    19   13   36 1   
    20   14   37 1   
    21   15   16 1   
    22   15   17 1   
    23   18   19 1   
    24   18   38 1   
    25   19   20 1   
    26   19   23 1   
    27   19   39 1   
    28   20   21 1   
    29   20   22 1   
    30   20   40 1   
    31   21   41 1   
    32   21   42 1   
    33   21   43 1   
    34   22   44 1   
    35   22   45 1   
    36   22   46 1   
    37   23   24 1   
    38   23   25 1   
    39   23   26 1   
@<TRIPOS>SUBSTRUCTURE
     1 FIN         1 TEMP              0 ****  ****    0 ROOT
