@<TRIPOS>MOLECULE
FIN
   46    46     1     0     0
SMALL
bcc


@<TRIPOS>ATOM
      1 C14        71.0820  176.0460   93.9900 cp        1 FIN     -0.029000
      2 C15        70.4470  176.4340   92.8030 ca        1 FIN     -0.099000
      3 C16        69.1090  176.1220   92.5680 ca        1 FIN     -0.180500
      4 C17        68.3940  175.4090   93.5340 ca        1 FIN      0.053000
      5 C1         69.0110  175.0080   94.7320 ca        1 FIN     -0.180500
      6 C2         70.3450  175.3300   94.9480 ca        1 FIN     -0.099000
      7 O1         67.0610  175.0420   93.4140 os        1 FIN     -0.219000
      8 C3         66.4190  175.4280   92.2080 c3        1 FIN     -0.072000
      9 C4         72.4840  176.3790   94.2280 cq        1 FIN     -0.066000
     10 C5         72.9220  176.7560   95.5050 ca        1 FIN     -0.145500
     11 C6         74.2600  177.0780   95.7220 ca        1 FIN     -0.073500
     12 C7         75.1860  177.0380   94.6790 ca        1 FIN     -0.588000
     13 C8         74.7510  176.6420   93.4130 ca        1 FIN     -0.073500
     14 C9         73.4170  176.3210   93.1810 ca        1 FIN     -0.145500
     15 S1         76.8470  177.5710   94.9320 s6        1 FIN      1.975000
     16 O2         77.6330  176.9800   93.8140 o         1 FIN     -0.951000
     17 O3         77.2880  176.9870   96.2210 o         1 FIN     -0.951000
     18 N1         76.9530  179.3440   94.8930 n3        1 FIN     -0.350000
     19 C10        76.3220  180.0760   95.8050 c2        1 FIN     -0.362000
     20 C11        76.6430  179.9990   97.2620 c3        1 FIN     -0.050000
     21 C12        77.7010  181.0270   97.6180 c3        1 FIN     -0.192500
     22 C13        75.3920  180.2270   98.0880 c3        1 FIN     -0.192500
     23 P1       -763.1590-1865.1060 -994.5620 p3        1 FIN      2.361000
     24 O4       -764.5180-1865.6680 -994.6640 o         1 FIN     -1.120000
     25 O5       -762.2610-1865.5430 -993.4780 o         1 FIN     -1.120000
     26 O6       -762.6990-1864.1080 -995.5430 o         1 FIN     -1.120000
     27 H15        71.0130  177.0000   92.0470 ha        1 FIN      0.139000
     28 H16        68.6360  176.4400   91.6300 ha        1 FIN      0.132000
     29 H1         68.4330  174.4460   95.4780 ha        1 FIN      0.132000
     30 H2         70.8370  175.0130   95.8810 ha        1 FIN      0.139000
     31 H31        65.3790  175.0320   92.3240 h1        1 FIN      0.076333
     32 H32        66.4060  176.5400   92.1030 h1        1 FIN      0.076333
     33 H33        66.9200  174.9610   91.3250 h1        1 FIN      0.076333
     34 H5         72.2030  176.8030   96.3360 ha        1 FIN      0.110500
     35 H6         74.6030  177.3590   96.7320 ha        1 FIN      0.144500
     36 H8         75.4930  176.5690   92.5990 ha        1 FIN      0.144500
     37 H9         73.0930  176.0030   92.1800 ha        1 FIN      0.110500
     38 HN1        76.7110  179.6290   93.9600 hn        1 FIN      0.157000
     39 H10        75.4610  180.7110   95.5400 h4        1 FIN      0.084000
     40 H11        77.0490  178.9710   97.5090 hc        1 FIN      0.129000
     41 H121       77.3420  182.0580   97.3870 hc        1 FIN      0.056500
     42 H122       77.9470  180.9730   98.7060 hc        1 FIN      0.056500
     43 H123       78.6300  180.8350   97.0300 hc        1 FIN      0.056500
     44 H131       74.9590  181.2360   97.8850 hc        1 FIN      0.056500
     45 H132       74.6230  179.4560   97.8410 hc        1 FIN      0.056500
     46 H133       75.6300  180.1580   99.1770 hc        1 FIN      0.056500
@<TRIPOS>BOND
     1    1    2 1   
     2    1    6 1   
     3    1    9 1   
     4    2    3 1   
     5    2   27 1   
     6    3    4 1   
     7    3   28 1   
     8    4    5 1   
     9    4    7 1   
    10    5    6 1   
    11    5   29 1   
    12    6   30 1   
    13    7    8 1   
    14    8   31 1   
    15    8   32 1   
    16    8   33 1   
    17    9   10 1   
    18    9   14 1   
    19   10   11 1   
    20   10   34 1   
    21   11   12 1   
    22   11   35 1   
    23   12   13 1   
    24   12   15 1   
    25   13   14 1   
    26   13   36 1   
    27   14   37 1   
    28   15   16 1   
    29   15   17 1   
    30   15   18 1   
    31   18   19 1   
    32   18   38 1   
    33   19   20 1   
    34   19   39 1   
    35   20   21 1   
    36   20   22 1   
    37   20   40 1   
    38   21   41 1   
    39   21   42 1   
    40   21   43 1   
    41   22   44 1   
    42   22   45 1   
    43   22   46 1   
    44   23   24 1   
    45   23   25 1   
    46   23   26 1   
@<TRIPOS>SUBSTRUCTURE
     1 FIN         1 TEMP              0 ****  ****    0 ROOT
