@<TRIPOS>MOLECULE
FIN
   47    47     1     0     0
SMALL
bcc


@<TRIPOS>ATOM
      1 C14        -0.1010    0.2290   -0.3910 cp        1 FIN     -0.076000
      2 C15         0.9480   -0.7050   -0.4400 ca        1 FIN     -0.083500
      3 C16         1.8140   -0.8490    0.6410 ca        1 FIN     -0.190500
      4 C17         1.6380   -0.0530    1.7790 ca        1 FIN      0.065000
      5 C1          0.5970    0.8890    1.8410 ca        1 FIN     -0.190500
      6 C2         -0.2620    1.0200    0.7560 ca        1 FIN     -0.083500
      7 O1          2.4380   -0.1130    2.9100 os        1 FIN     -0.223000
      8 C3          3.5070   -1.0490    2.8620 c3        1 FIN     -0.073000
      9 C4         -1.0070    0.3590   -1.5300 cq        1 FIN      0.002000
     10 C5         -2.3620    0.6820   -1.3570 ca        1 FIN     -0.145500
     11 C6         -3.2180    0.7260   -2.4540 ca        1 FIN     -0.049000
     12 C7         -2.7500    0.4510   -3.7420 ca        1 FIN     -0.610000
     13 C8         -1.3940    0.1520   -3.9120 ca        1 FIN     -0.049000
     14 C9         -0.5260    0.1180   -2.8250 ca        1 FIN     -0.145500
     15 S1         -3.7250    0.4740   -5.1390 s4        1 FIN      1.535000
     16 O2         -5.0460    0.9970   -4.7560 o         1 FIN     -0.812000
     17 O3         -4.2110   -1.1690   -5.2620 os        1 FIN     -0.546000
     18 N1         -2.4510   -1.4690   -6.7950 n3        1 FIN     -0.409000
     19 C10        -3.1950   -2.0660   -5.7040 c3        1 FIN      0.113000
     20 C11        -3.9170   -3.4020   -6.0120 c3        1 FIN     -0.117000
     21 C12        -5.0430   -3.2300   -7.0050 c3        1 FIN     -0.213000
     22 C13        -2.9070   -4.4210   -6.4920 c3        1 FIN     -0.213000
     23 P1          1.0640   -3.0950   -4.5710 p3        1 FIN      2.397000
     24 O4         -0.1170   -2.7420   -5.3870 o         1 FIN     -1.128000
     25 O5          1.4240   -2.2110   -3.4450 o         1 FIN     -1.128000
     26 O6          1.8520   -4.2940   -4.8810 o         1 FIN     -1.128000
     27 H15         1.0960   -1.3330   -1.3460 ha        1 FIN      0.170500
     28 H16         2.6270   -1.5860    0.5810 ha        1 FIN      0.137000
     29 H1          0.4770    1.5080    2.7390 ha        1 FIN      0.137000
     30 H2         -1.0730    1.7630    0.7980 ha        1 FIN      0.170500
     31 H31         4.0120   -0.9230    3.8530 h1        1 FIN      0.078333
     32 H32         3.1170   -2.0900    2.7490 h1        1 FIN      0.078333
     33 H33         4.2100   -0.8050    2.0290 h1        1 FIN      0.078333
     34 H5         -2.7560    0.8740   -0.3490 ha        1 FIN      0.156000
     35 H6         -4.2860    0.9650   -2.3160 ha        1 FIN      0.151500
     36 H8         -1.0010   -0.1030   -4.9130 ha        1 FIN      0.151500
     37 H9          0.5360   -0.1500   -2.9830 ha        1 FIN      0.156000
     38 HN1        -1.4770   -1.7090   -6.7090 hn        1 FIN      0.178500
     39 H10        -2.4780   -2.2380   -4.8380 h2        1 FIN      0.130000
     40 H11        -4.3570   -3.7470   -5.0350 hc        1 FIN      0.096000
     41 H121       -5.7470   -2.4390   -6.6480 hc        1 FIN      0.075333
     42 H122       -5.6030   -4.1900   -7.1180 hc        1 FIN      0.075333
     43 H123       -4.6550   -2.9340   -8.0090 hc        1 FIN      0.075333
     44 H131       -3.3110   -5.4530   -6.3640 hc        1 FIN      0.075333
     45 H132       -2.6750   -4.2690   -7.5740 hc        1 FIN      0.075333
     46 H133       -1.9490   -4.3250   -5.9190 hc        1 FIN      0.075333
     47 H12        -2.8000   -1.7650   -7.6820 hn        1 FIN      0.178500
@<TRIPOS>BOND
     1    1    2 1   
     2    1    6 1   
     3    1    9 1   
     4    2    3 1   
     5    2   27 1   
     6    3    4 1   
     7    3   28 1   
     8    4    5 1   
     9    4    7 1   
    10    5    6 1   
    11    5   29 1   
    12    6   30 1   
    13    7    8 1   
    14    8   31 1   
    15    8   32 1   
    16    8   33 1   
    17    9   10 1   
    18    9   14 1   
    19   10   11 1   
    20   10   34 1   
    21   11   12 1   
    22   11   35 1   
    23   12   13 1   
    24   12   15 1   
    25   13   14 1   
    26   13   36 1   
    27   14   37 1   
    28   15   16 1   
    29   15   17 1   
    30   17   19 1   
    31   18   19 1   
    32   18   38 1   
    33   18   47 1   
    34   19   20 1   
    35   19   39 1   
    36   20   21 1   
    37   20   22 1   
    38   20   40 1   
    39   21   41 1   
    40   21   42 1   
    41   21   43 1   
    42   22   44 1   
    43   22   45 1   
    44   22   46 1   
    45   23   24 1   
    46   23   25 1   
    47   23   26 1   
@<TRIPOS>SUBSTRUCTURE
     1 FIN         1 TEMP              0 ****  ****    0 ROOT
