@<TRIPOS>MOLECULE
FIO
   26    24     1     0     0
SMALL
bcc


@<TRIPOS>ATOM
      1 N10        -2.8730   -1.6000    2.0280 n3        1 FIO     -0.888800
      2 C11        -1.4610   -1.4510    2.0600 c3        1 FIO      0.018500
      3 C12        -0.9990   -1.3590    3.4930 c         1 FIO      0.886600
      4 O14        -1.5200   -0.5170    4.2690 o         1 FIO     -0.842800
      5 C15        -1.0670   -0.1840    1.3190 c3        1 FIO     -0.048400
      6 C16        -0.1640   -0.5440    0.1410 c3        1 FIO     -0.104400
      7 C17         0.1520    0.7220   -0.6690 c3        1 FIO      0.194800
      8 N18         1.1660    0.4270   -1.6470 nh        1 FIO     -0.789000
      9 C19         1.5910    1.4410   -2.5710 c2        1 FIO      0.149800
     10 C20         3.0520    1.5670   -2.9370 c3        1 FIO      0.193100
     11 N21         0.7150    2.2560   -3.0930 n1        1 FIO     -0.336000
     12 F1          3.1810    2.3850   -3.9970 f         1 FIO     -0.247300
     13 HN10       -3.1020   -2.1810    1.3640 hn        1 FIO      0.330800
     14 H11        -1.0430   -2.2210    1.6320 h1        1 FIO      0.041700
     15 H15        -0.5910    0.4090    1.9220 hc        1 FIO      0.026200
     16 H15A       -1.8720    0.2650    0.9880 hc        1 FIO      0.026200
     17 H16         0.6670   -0.9330    0.4750 hc        1 FIO      0.073700
     18 H16A       -0.6240   -1.1970   -0.4380 hc        1 FIO      0.073700
     19 H17        -0.6670    1.0340   -1.1270 h1        1 FIO      0.029200
     20 H17A        0.4730    1.4200   -0.0680 h1        1 FIO      0.029200
     21 HN18        1.5150   -0.4180   -1.7040 hn        1 FIO      0.423800
     22 H20         3.4120    0.6790   -3.1620 h1        1 FIO      0.063700
     23 H20A        3.5460    1.9350   -2.1800 h1        1 FIO      0.063700
     24 HN21       -0.1630    2.1810   -2.8730 DU        1 FIO      0.144000
     25 H2         -3.1660   -1.9280    2.8390 hn        1 FIO      0.330800
     26 OXT        -0.1600   -2.1900    3.9370 o         1 FIO     -0.842800
@<TRIPOS>BOND
     1    1    2 1   
     2    1   13 1   
     3    1   25 1   
     4    2    3 1   
     5    2    5 1   
     6    2   14 1   
     7    3    4 1   
     8    3   26 1   
     9    5    6 1   
    10    5   15 1   
    11    5   16 1   
    12    6    7 1   
    13    6   17 1   
    14    6   18 1   
    15    7    8 1   
    16    7   19 1   
    17    7   20 1   
    18    8    9 1   
    19    8   21 1   
    20    9   10 1   
    21    9   11 2   
    22   10   12 1   
    23   10   22 1   
    24   10   23 1   
@<TRIPOS>SUBSTRUCTURE
     1 FIO         1 TEMP              0 ****  ****    0 ROOT
