@<TRIPOS>MOLECULE
FIO
   26    25     1     0     0
SMALL
bcc


@<TRIPOS>ATOM
      1 N10         2.8970    1.8960   -0.2690 n3        1 FIO     -0.893800
      2 C11         2.8260    0.5600    0.3120 c3        1 FIO      0.016500
      3 C12         4.0780   -0.3360    0.0230 c         1 FIO      0.888600
      4 O14         5.0240    0.1660   -0.6480 o         1 FIO     -0.842300
      5 C15         1.5760   -0.2150   -0.1070 c3        1 FIO     -0.061400
      6 C16         0.3120    0.4170    0.4350 c3        1 FIO     -0.088400
      7 C17        -0.9110   -0.3900   -0.0030 c3        1 FIO      0.181800
      8 N18        -2.1540    0.1910    0.4700 nh        1 FIO     -0.799200
      9 C19        -3.3770   -0.2490   -0.0740 c2        1 FIO      0.559200
     10 C20        -4.5620    0.6440    0.3740 c3        1 FIO      0.058600
     11 N21        -3.4970   -1.3250   -0.7900 n2        1 FIO     -0.817100
     12 F1         -5.7730    0.1960   -0.1150 f         1 FIO     -0.245300
     13 HN10        3.8310    2.2390   -0.1060 hn        1 FIO      0.330800
     14 H11         2.7930    0.7020    1.4320 h1        1 FIO      0.040700
     15 H15         1.5200   -0.2810   -1.2240 hc        1 FIO      0.051200
     16 H15A        1.6870   -1.2600    0.2880 hc        1 FIO      0.051200
     17 H16         0.3650    0.4570    1.5540 hc        1 FIO      0.040700
     18 H16A        0.2280    1.4720    0.0650 hc        1 FIO      0.040700
     19 H17        -0.9030   -0.4780   -1.1280 h1        1 FIO      0.052200
     20 H17A       -0.8470   -1.4330    0.4160 h1        1 FIO      0.052200
     21 HN18       -2.1130    1.1850    0.5630 hn        1 FIO      0.390800
     22 H20        -4.6130    0.6510    1.4980 h1        1 FIO      0.058200
     23 H20A       -4.3980    1.6930    0.0030 h1        1 FIO      0.058200
     24 HN21       -4.4440   -1.5560   -1.0100 hn        1 FIO      0.389400
     25 H2          2.8030    1.8120   -1.2660 hn        1 FIO      0.330800
     26 OXT         4.0780   -1.5050    0.4980 o         1 FIO     -0.842300
@<TRIPOS>BOND
     1    1    2 1   
     2    1   13 1   
     3    1   25 1   
     4    2    3 1   
     5    2    5 1   
     6    2   14 1   
     7    3    4 1   
     8    3   26 1   
     9    5    6 1   
    10    5   15 1   
    11    5   16 1   
    12    6    7 1   
    13    6   17 1   
    14    6   18 1   
    15    7    8 1   
    16    7   19 1   
    17    7   20 1   
    18    8    9 1   
    19    8   21 1   
    20    9   10 1   
    21    9   11 2   
    22   10   12 1   
    23   10   22 1   
    24   10   23 1   
    25   11   24 1   
@<TRIPOS>SUBSTRUCTURE
     1 FIO         1 TEMP              0 ****  ****    0 ROOT
