@<TRIPOS>MOLECULE
FIP
   29    30     1     0     0
SMALL
bcc


@<TRIPOS>ATOM
      1 C3          0.1050   -0.1790    0.0390 ce        1 FIP     -0.405500
      2 C9          1.5260   -0.0490    0.0380 ca        1 FIP      0.001200
      3 C8          1.9600   -0.1760    1.4370 ca        1 FIP     -0.148200
      4 C4          2.5000    0.1440   -0.9410 ca        1 FIP     -0.188000
      5 C2         -0.3340   -0.3820    1.3890 c1        1 FIP     -0.116900
      6 N1          0.7950   -0.3760    2.1920 nu        1 FIP     -0.231500
      7 C7          3.3010   -0.1070    1.7870 ca        1 FIP     -0.135000
      8 C5          3.8470    0.2050   -0.5600 ca        1 FIP      0.073900
      9 C6          4.2530    0.0830    0.7850 ca        1 FIP     -0.253000
     10 F           4.8060    0.3880   -1.5140 f         1 FIP     -0.196900
     11 C3P        -0.7750   -0.1730   -1.1350 c3        1 FIP      0.043800
     12 C2P        -0.9740    1.1960   -1.7660 c3        1 FIP     -0.098400
     13 C1P        -1.8320    1.0850   -3.0220 c3        1 FIP      0.187400
     14 P          -3.4680    2.8490   -4.0200 p5        1 FIP      1.429800
     15 OP1        -4.3160    1.6580   -4.2680 o         1 FIP     -0.849000
     16 OP2        -3.3580    4.0180   -4.9160 o         1 FIP     -0.849000
     17 OP3        -3.9390    3.3240   -2.5270 oh        1 FIP     -0.781400
     18 OP4        -1.9520    2.3240   -3.6590 os        1 FIP     -0.585200
     19 H4          2.2130    0.2560   -1.9940 ha        1 FIP      0.130000
     20 H2         -4.2710    2.5970   -2.0130 ho        1 FIP      0.420000
     21 HN1         0.7980   -0.4570    3.1690 hn        1 FIP      0.246700
     22 H7          3.6210   -0.1990    2.8330 ha        1 FIP      0.087000
     23 H6          5.3180    0.1420    1.0340 ha        1 FIP      0.096000
     24 H3P1       -0.3570   -0.8650   -1.9200 hc        1 FIP      0.009700
     25 H3P2       -1.7810   -0.5800   -0.8400 hc        1 FIP      0.009700
     26 H2P1       -1.4630    1.8880   -1.0350 hc        1 FIP      0.040200
     27 H2P2        0.0180    1.6420   -2.0320 hc        1 FIP      0.040200
     28 H1P1       -2.8530    0.6830   -2.7670 h1        1 FIP      0.011200
     29 H1P2       -1.3360    0.3660   -3.7370 h1        1 FIP      0.011200
@<TRIPOS>BOND
     1    1    2 1   
     2    1    5 2   
     3    1   11 1   
     4    2    3 ar  
     5    2    4 ar  
     6    3    6 1   
     7    3    7 ar  
     8    4    8 ar  
     9    4   19 1   
    10    5    6 2   
    11    6   21 1   
    12    7    9 ar  
    13    7   22 1   
    14    8    9 ar  
    15    8   10 1   
    16    9   23 1   
    17   11   12 1   
    18   11   24 1   
    19   11   25 1   
    20   12   13 1   
    21   12   26 1   
    22   12   27 1   
    23   13   18 1   
    24   13   28 1   
    25   13   29 1   
    26   14   15 1   
    27   14   16 1   
    28   14   17 1   
    29   14   18 1   
    30   17   20 1   
@<TRIPOS>SUBSTRUCTURE
     1 FIP         1 TEMP              0 ****  ****    0 ROOT
