@<TRIPOS>MOLECULE
FIP
   29    30     1     0     0
SMALL
bcc


@<TRIPOS>ATOM
      1 C3          0.1240   -0.3220   -0.1020 ce        1 FIP     -0.405500
      2 C9          1.5360   -0.1230   -0.0340 ca        1 FIP      0.001200
      3 C8          1.9380   -0.4300    1.3460 ca        1 FIP     -0.148200
      4 C4          2.5240    0.2570   -0.9420 ca        1 FIP     -0.188000
      5 C2         -0.3400   -0.7380    1.1900 c1        1 FIP     -0.116900
      6 N1          0.7640   -0.7940    2.0240 nh        1 FIP     -0.231500
      7 C7          3.2630   -0.3460    1.7480 ca        1 FIP     -0.135000
      8 C5          3.8550    0.3280   -0.5090 ca        1 FIP      0.073900
      9 C6          4.2300    0.0330    0.8170 ca        1 FIP     -0.253000
     10 F           4.8290    0.6930   -1.3950 f         1 FIP     -0.196900
     11 C3P        -0.7230   -0.1890   -1.2930 c3        1 FIP      0.043800
     12 C2P        -0.9760    1.2440   -1.7280 c3        1 FIP     -0.098400
     13 C1P        -1.7930    1.2750   -3.0160 c3        1 FIP      0.187400
     14 P          -3.4920    3.0830   -3.8090 p5        1 FIP      1.429800
     15 OP1        -4.2700    1.9010   -4.2520 o         1 FIP     -0.849000
     16 OP2        -3.4180    4.3720   -4.5260 o         1 FIP     -0.849000
     17 OP3        -4.0270    3.3160   -2.2810 oh        1 FIP     -0.781400
     18 OP4        -1.9600    2.5840   -3.4740 os        1 FIP     -0.585200
     19 H4          2.2600    0.5050   -1.9780 ha        1 FIP      0.130000
     20 H2         -4.3340    2.5080   -1.8870 ho        1 FIP      0.420000
     21 HN1         0.7460   -1.0140    2.9790 hn        1 FIP      0.246700
     22 H7          3.5590   -0.5730    2.7810 ha        1 FIP      0.087000
     23 H6          5.2840    0.1070    1.1090 ha        1 FIP      0.096000
     24 H3P1       -0.2480   -0.7410   -2.1530 hc        1 FIP      0.009700
     25 H3P2       -1.7140   -0.6830   -1.0930 hc        1 FIP      0.009700
     26 H2P1       -1.5210    1.8010   -0.9240 hc        1 FIP      0.040200
     27 H2P2       -0.0020    1.7720   -1.8950 hc        1 FIP      0.040200
     28 H1P1       -2.7980    0.7910   -2.8570 h1        1 FIP      0.011200
     29 H1P2       -1.2410    0.6910   -3.8090 h1        1 FIP      0.011200
@<TRIPOS>BOND
     1    1    2 1   
     2    1    5 2   
     3    1   11 1   
     4    2    3 ar  
     5    2    4 ar  
     6    3    6 1   
     7    3    7 ar  
     8    4    8 ar  
     9    4   19 1   
    10    5    6 2   
    11    6   21 1   
    12    7    9 ar  
    13    7   22 1   
    14    8    9 ar  
    15    8   10 1   
    16    9   23 1   
    17   11   12 1   
    18   11   24 1   
    19   11   25 1   
    20   12   13 1   
    21   12   26 1   
    22   12   27 1   
    23   13   18 1   
    24   13   28 1   
    25   13   29 1   
    26   14   15 1   
    27   14   16 1   
    28   14   17 1   
    29   14   18 1   
    30   17   20 1   
@<TRIPOS>SUBSTRUCTURE
     1 FIP         1 TEMP              0 ****  ****    0 ROOT
