@<TRIPOS>MOLECULE
FIP
   29    30     1     0     0
SMALL
bcc


@<TRIPOS>ATOM
      1 C3         -1.2570    0.6350   -1.7130 ce        1 FIP     -0.405500
      2 C9         -0.3060    0.3890   -2.7490 ca        1 FIP      0.001200
      3 C8         -1.0760    0.0660   -3.9590 ca        1 FIP     -0.148200
      4 C4          1.0860    0.4070   -2.8360 ca        1 FIP     -0.188000
      5 C2         -2.5740    0.4720   -2.2570 c1        1 FIP     -0.116900
      6 N1         -2.4280    0.1370   -3.5930 nh        1 FIP     -0.231500
      7 C7         -0.4460   -0.2160   -5.1620 ca        1 FIP     -0.135000
      8 C5          1.6950    0.1230   -4.0660 ca        1 FIP      0.073900
      9 C6          0.9480   -0.1860   -5.2200 ca        1 FIP     -0.253000
     10 F           3.0580    0.1460   -4.1600 f         1 FIP     -0.196900
     11 C3P        -0.9650    1.0460   -0.3350 c3        1 FIP      0.043800
     12 C2P        -0.3990   -0.0570    0.5440 c3        1 FIP     -0.098400
     13 C1P        -0.0520    0.4870    1.9260 c3        1 FIP      0.187400
     14 P          -0.0880   -0.7630    4.2100 p5        1 FIP      1.429800
     15 OP1        -0.6610    0.5140    4.6970 o         1 FIP     -0.849000
     16 OP2         0.8420   -1.6240    4.9680 o         1 FIP     -0.849000
     17 OP3        -1.4170   -1.6140    3.7750 oh        1 FIP     -0.781400
     18 OP4         0.5480   -0.4960    2.7170 os        1 FIP     -0.585200
     19 H4          1.6940    0.6330   -1.9510 ha        1 FIP      0.130000
     20 H2         -2.1350   -1.0440    3.5270 ho        1 FIP      0.420000
     21 HN1        -3.1600   -0.0720   -4.2100 hn        1 FIP      0.246700
     22 H7         -1.0240   -0.4600   -6.0630 ha        1 FIP      0.087000
     23 H6          1.4700   -0.4060   -6.1580 ha        1 FIP      0.096000
     24 H3P1       -1.9090    1.4330    0.1380 hc        1 FIP      0.009700
     25 H3P2       -0.2290    1.8990   -0.3480 hc        1 FIP      0.009700
     26 H2P1        0.5210   -0.4880    0.0730 hc        1 FIP      0.040200
     27 H2P2       -1.1410   -0.8890    0.6430 hc        1 FIP      0.040200
     28 H1P1       -0.9750    0.8820    2.4370 h1        1 FIP      0.011200
     29 H1P2        0.6790    1.3400    1.8060 h1        1 FIP      0.011200
@<TRIPOS>BOND
     1    1    2 1   
     2    1    5 2   
     3    1   11 1   
     4    2    3 ar  
     5    2    4 ar  
     6    3    6 1   
     7    3    7 ar  
     8    4    8 ar  
     9    4   19 1   
    10    5    6 2   
    11    6   21 1   
    12    7    9 ar  
    13    7   22 1   
    14    8    9 ar  
    15    8   10 1   
    16    9   23 1   
    17   11   12 1   
    18   11   24 1   
    19   11   25 1   
    20   12   13 1   
    21   12   26 1   
    22   12   27 1   
    23   13   18 1   
    24   13   28 1   
    25   13   29 1   
    26   14   15 1   
    27   14   16 1   
    28   14   17 1   
    29   14   18 1   
    30   17   20 1   
@<TRIPOS>SUBSTRUCTURE
     1 FIP         1 TEMP              0 ****  ****    0 ROOT
