@<TRIPOS>MOLECULE
FIR
   31    33     1     0     0
SMALL
bcc


@<TRIPOS>ATOM
      1 O3I        -0.3610   -0.2300   -0.1980 o         1 FIR     -0.537500
      2 O6I         4.0710   -0.0530   -1.5790 o         1 FIR     -0.558500
      3 N1I         1.6420   -0.0550    1.0700 n         1 FIR     -0.512900
      4 C2I         0.8700   -0.1700   -0.1400 c         1 FIR      0.777500
      5 N4          1.7420   -0.1560   -1.2670 n         1 FIR     -0.593500
      6 O10         4.6750    0.0710    3.1550 os        1 FIR     -0.452600
      7 C16         4.6340   -2.3610    3.4150 c2        1 FIR     -0.167300
      8 C11         3.9750   -1.1350    2.8140 c3        1 FIR      0.220500
      9 C12         3.8370   -1.2520    1.3060 c2        1 FIR     -0.204400
     10 C13         4.4360   -2.2110    0.5580 ce        1 FIR     -0.055000
     11 C14         5.5110   -2.9930    1.2100 ce        1 FIR      0.139400
     12 C15         5.3670   -3.0180    2.5440 c1        1 FIR     -0.016800
     13 C9          4.0340    1.2380    2.6440 c3        1 FIR      0.093100
     14 C5          3.0720   -0.1080   -0.8610 c         1 FIR      0.696500
     15 F17         6.5330   -3.4480    0.4790 f         1 FIR     -0.102500
     16 C19         4.9220    2.4300    2.9770 c         1 FIR      0.541100
     17 C7I         3.0740   -0.0970    0.7160 c3        1 FIR      0.044600
     18 C8I         3.8140    1.1940    1.1350 c3        1 FIR     -0.101400
     19 H1I         1.3460   -0.6580    1.8070 hn        1 FIR      0.317500
     20 HN4         1.4190   -0.1340   -2.2050 hn        1 FIR      0.381500
     21 H16         2.9460   -1.0880    3.2850 h1        1 FIR      0.087700
     22 H13         4.3040   -2.3150   -0.5310 ha        1 FIR      0.188000
     23 H15         4.3220   -2.6870    4.4130 ha        1 FIR      0.187000
     24 H9          3.0530    1.3960    3.1870 h1        1 FIR      0.130700
     25 H211        6.3500    1.4730    4.1550 hn        1 FIR      0.477467
     26 H212        6.8280    1.6800    2.5780 hn        1 FIR      0.477467
     27 H8I1        3.2280    2.0990    0.8230 hc        1 FIR      0.097700
     28 H8I2        4.7970    1.1970    0.5920 hc        1 FIR      0.097700
     29 O20         4.6120    3.6070    2.9610 o         1 FIR     -0.380100
     30 H213        6.8490    2.9910    3.6270 hn        1 FIR      0.477467
     31 N21         6.3510    2.1320    3.3650 n4        1 FIR     -0.750400
@<TRIPOS>BOND
     1    1    4 2   
     2    2   14 2   
     3    3    4 1   
     4    3   17 1   
     5    3   19 1   
     6    4    5 1   
     7    5   14 1   
     8    5   20 1   
     9    6    8 1   
    10    6   13 1   
    11    7    8 1   
    12    7   12 2   
    13    7   23 1   
    14    8    9 1   
    15    8   21 1   
    16    9   10 2   
    17    9   17 1   
    18   10   11 1   
    19   10   22 1   
    20   11   12 2   
    21   11   15 1   
    22   13   16 1   
    23   13   18 1   
    24   13   24 1   
    25   14   17 1   
    26   16   29 2   
    27   16   31 1   
    28   17   18 1   
    29   18   27 1   
    30   18   28 1   
    31   25   31 1   
    32   26   31 1   
    33   30   31 1   
@<TRIPOS>SUBSTRUCTURE
     1 FIR         1 TEMP              0 ****  ****    0 ROOT
