@<TRIPOS>MOLECULE
FIR
   31    32     1     0     0
SMALL
bcc


@<TRIPOS>ATOM
      1 O3I        -0.4570   -0.8800   -0.5520 o         1 FIR     -0.551500
      2 O6I         4.0430   -0.5960   -1.6730 o         1 FIR     -0.563500
      3 N1I         1.3860   -0.0100    0.6660 n         1 FIR     -0.517900
      4 C2I         0.7500   -0.6320   -0.4570 c         1 FIR      0.781500
      5 N4          1.7190   -0.8850   -1.4710 n         1 FIR     -0.595500
      6 O10         4.2480    1.1280    2.7480 os        1 FIR     -0.467600
      7 C16         4.3720   -1.0610    3.8060 c2        1 FIR     -0.131300
      8 C11         3.6620   -0.1700    2.8060 c3        1 FIR      0.178500
      9 C12         3.6450   -0.8010    1.4210 c2        1 FIR     -0.139400
     10 C13         4.3800   -1.8830    1.0710 ce        1 FIR     -0.104000
     11 C14         5.4800   -2.2560    1.9850 ce        1 FIR      0.190400
     12 C15         5.2630   -1.8660    3.2580 c1        1 FIR     -0.195800
     13 C9          3.5240    2.0020    1.8690 c3        1 FIR      0.130400
     14 C5          2.9920   -0.5230   -1.0350 c         1 FIR      0.695500
     15 F17         6.6000   -2.7900    1.4930 f         1 FIR     -0.108500
     16 C19         8.0870    0.9760    4.0990 c1        1 FIR      0.685500
     17 C7I         2.8420    0.0140    0.4380 c3        1 FIR      0.042600
     18 C8I         3.4200    1.4460    0.4630 c3        1 FIR     -0.105400
     19 H1I         1.0590   -0.2880    1.5630 hn        1 FIR      0.319500
     20 HN4         1.4820   -1.1860   -2.3850 hn        1 FIR      0.377500
     21 H16         2.5970   -0.0800    3.1830 h1        1 FIR      0.099700
     22 H13         4.3270   -2.3760    0.0870 ha        1 FIR      0.193000
     23 H15         3.9990   -1.0960    4.8370 ha        1 FIR      0.183000
     24 H9          2.5060    2.1890    2.3060 h1        1 FIR      0.076200
     25 H211        4.1260    2.9500    1.8830 h1        1 FIR      0.076200
     26 H212        6.1550    1.0380    3.5330 hn        1 FIR      0.403700
     27 H8I1        2.7770    2.1320   -0.1500 hc        1 FIR      0.092200
     28 H8I2        4.4350    1.4020   -0.0140 hc        1 FIR      0.092200
     29 O20         9.1460    1.4340    4.3030 o         1 FIR     -0.163500
     30 H213        6.7420   -0.5330    4.0330 hn        1 FIR      0.403700
     31 N21         6.9230    0.4690    3.8930 n3        1 FIR     -0.377400
@<TRIPOS>BOND
     1    1    4 2   
     2    2   14 2   
     3    3    4 1   
     4    3   17 1   
     5    3   19 1   
     6    4    5 1   
     7    5   14 1   
     8    5   20 1   
     9    6    8 1   
    10    6   13 1   
    11    7    8 1   
    12    7   12 2   
    13    7   23 1   
    14    8    9 1   
    15    8   21 1   
    16    9   10 2   
    17    9   17 1   
    18   10   11 1   
    19   10   22 1   
    20   11   12 2   
    21   11   15 1   
    22   13   18 1   
    23   13   24 1   
    24   13   25 1   
    25   14   17 1   
    26   16   29 2   
    27   16   31 2   
    28   17   18 1   
    29   18   27 1   
    30   18   28 1   
    31   26   31 1   
    32   30   31 1   
@<TRIPOS>SUBSTRUCTURE
     1 FIR         1 TEMP              0 ****  ****    0 ROOT
