@<TRIPOS>MOLECULE
FIR
   30    32     1     0     0
SMALL
bcc


@<TRIPOS>ATOM
      1 O3I         3.8930    0.9200   -1.8070 o         1 FIR     -0.590500
      2 O6I         1.1280   -2.6060   -0.6000 o         1 FIR     -0.560500
      3 N1I         2.0140    0.8650   -0.3530 n         1 FIR     -0.512900
      4 C2I         2.9610    0.3100   -1.2640 c         1 FIR      0.781500
      5 N4          2.7070   -1.0810   -1.4260 n         1 FIR     -0.611500
      6 O10        -1.2990    0.6990    1.6100 os        1 FIR     -0.329900
      7 C16        -2.6820    0.8820   -0.2780 ca        1 FIR     -0.130000
      8 C11        -1.4070    0.5800    0.2390 ca        1 FIR      0.140100
      9 C12        -0.3640    0.1690   -0.6040 ca        1 FIR     -0.160300
     10 C13        -0.6000    0.0700   -1.9780 ca        1 FIR     -0.120000
     11 C14        -1.8680    0.3710   -2.4970 ca        1 FIR      0.102900
     12 C15        -2.9130    0.7760   -1.6390 ca        1 FIR     -0.118000
     13 C9          0.0420    0.6620    2.1270 c3        1 FIR      0.070100
     14 C5          1.5690   -1.4620   -0.7040 c         1 FIR      0.699500
     15 F17        -2.0930    0.2720   -3.8290 f         1 FIR     -0.131900
     16 N21        -0.9730   -0.4880    4.1060 n         1 FIR     -0.649000
     17 C19        -0.0500    0.4070    3.6390 c         1 FIR      0.658100
     18 C7I         0.9920   -0.1580   -0.0400 c3        1 FIR      0.067700
     19 C8I         0.8770   -0.4210    1.4690 c3        1 FIR     -0.099400
     20 H1I         1.6950    1.7870   -0.5460 hn        1 FIR      0.324500
     21 HN4         3.3300   -1.6950   -1.8880 hn        1 FIR      0.362500
     22 H16        -3.4800    1.1990    0.4100 ha        1 FIR      0.162000
     23 H13         0.2000   -0.2560   -2.6610 ha        1 FIR      0.157000
     24 H15        -3.9030    1.0070   -2.0620 ha        1 FIR      0.159000
     25 H9          0.5020    1.6800    1.9730 h1        1 FIR      0.096700
     26 H211       -1.0760   -0.6080    5.0850 hn        1 FIR      0.319000
     27 H212       -1.6960   -0.8050    3.5110 hn        1 FIR      0.319000
     28 H8I1        1.8890   -0.4480    1.9520 hc        1 FIR      0.095200
     29 H8I2        0.3900   -1.4240    1.6070 hc        1 FIR      0.095200
     30 O20         0.7600    0.9720    4.3990 o         1 FIR     -0.595100
@<TRIPOS>BOND
     1    1    4 2   
     2    2   14 2   
     3    3    4 1   
     4    3   18 1   
     5    3   20 1   
     6    4    5 1   
     7    5   14 1   
     8    5   21 1   
     9    6    8 1   
    10    6   13 1   
    11    7    8 ar  
    12    7   12 ar  
    13    7   22 1   
    14    8    9 ar  
    15    9   10 ar  
    16    9   18 1   
    17   10   11 ar  
    18   10   23 1   
    19   11   12 ar  
    20   11   15 1   
    21   12   24 1   
    22   13   17 1   
    23   13   19 1   
    24   13   25 1   
    25   14   18 1   
    26   16   17 1   
    27   16   26 1   
    28   16   27 1   
    29   17   30 2   
    30   18   19 1   
    31   19   28 1   
    32   19   29 1   
@<TRIPOS>SUBSTRUCTURE
     1 FIR         1 TEMP              0 ****  ****    0 ROOT
