@<TRIPOS>MOLECULE
FIS
   31    33     1     0     0
SMALL
bcc


@<TRIPOS>ATOM
      1 O3I         0.1450   -0.0290   -0.8590 o         1 FIS     -0.259000
      2 O6I         4.7420    0.1470   -1.5100 o         1 FIS     -0.262000
      3 N1I         1.9260   -0.1220    0.7130 ns        1 FIS     -0.324000
      4 C2I         1.3510    0.0010   -0.6060 c2        1 FIS      0.362000
      5 N4          2.3880    0.1080   -1.5750 ns        1 FIS     -0.378000
      6 F17         4.0610    4.8820    0.8340 f         1 FIS     -0.058000
      7 C16         5.1840    2.2710    3.2160 c3        1 FIS     -0.191000
      8 C11         4.6050    1.1060    2.4900 c2        1 FIS      0.071000
      9 C12         3.9400    1.2340    1.3060 c2        1 FIS     -0.189000
     10 C13         3.7660    2.5400    0.7330 c2        1 FIS     -0.081000
     11 C14         4.2540    3.6590    1.3750 c2        1 FIS      0.029000
     12 C15         4.9890    3.5720    2.6090 c1        1 FIS     -0.016000
     13 O10         4.8140   -0.0900    3.1550 os        1 FIS     -0.223000
     14 C5          3.6420    0.1190   -0.9650 c2        1 FIS      0.307000
     15 C19         4.8920   -2.4700    3.1030 c2        1 FIS      0.292000
     16 C7I         3.3900    0.0330    0.5910 c3        1 FIS      0.052000
     17 C8I         4.1370   -1.2220    1.0810 c3        1 FIS     -0.191000
     18 C9          4.1530   -1.2320    2.6030 c3        1 FIS      0.017000
     19 H1I         1.4820    0.4440    1.4050 hn        1 FIS      0.234000
     20 HN4         2.2200    0.1250   -2.5530 hn        1 FIS      0.296000
     21 H16         4.7630    2.3220    4.2680 hc        1 FIS      0.196000
     22 H13         3.2400    2.6230   -0.2330 ha        1 FIS      0.169000
     23 H15         6.3030    2.1310    3.3430 hc        1 FIS      0.196000
     24 H211        6.4750   -3.3430    4.0370 hn        1 FIS      0.303000
     25 H212        3.1050   -1.2670    3.0290 h1        1 FIS      0.169000
     26 H8I1        3.6470   -2.1510    0.6920 hc        1 FIS      0.140000
     27 H8I2        3.4860   -3.6100    2.4370 ho        1 FIS      0.307000
     28 H9          5.1840   -1.1720    0.6740 hc        1 FIS      0.140000
     29 N21         6.0530   -2.4840    3.7300 n8        1 FIS     -0.213000
     30 H213        6.5240   -1.6180    3.9280 hn        1 FIS      0.303000
     31 O20         4.3420   -3.6870    2.9110 oh        1 FIS     -0.197000
@<TRIPOS>BOND
     1    1    4 1   
     2    2   14 1   
     3    3    4 1   
     4    3   16 1   
     5    3   19 1   
     6    4    5 1   
     7    5   14 1   
     8    5   20 1   
     9    6   11 1   
    10    7    8 1   
    11    7   12 1   
    12    7   21 1   
    13    7   23 1   
    14    8    9 1   
    15    8   13 1   
    16    9   10 1   
    17    9   16 1   
    18   10   11 1   
    19   10   22 1   
    20   11   12 1   
    21   13   18 1   
    22   14   16 1   
    23   15   18 1   
    24   15   29 1   
    25   15   31 1   
    26   16   17 1   
    27   17   18 1   
    28   17   26 1   
    29   17   28 1   
    30   18   25 1   
    31   24   29 1   
    32   27   31 1   
    33   29   30 1   
@<TRIPOS>SUBSTRUCTURE
     1 FIS         1 TEMP              0 ****  ****    0 ROOT
