@<TRIPOS>MOLECULE
FIS
   31    32     1     0     0
SMALL
bcc


@<TRIPOS>ATOM
      1 O3I        -0.1700   -0.8220    1.1100 o         1 FIS     -0.545500
      2 O6I         2.6360    1.6330   -1.6640 o         1 FIS     -0.546500
      3 N1I         2.2000   -0.6740    1.0640 n         1 FIS     -0.525900
      4 C2I         0.8630   -0.3650    0.6110 c         1 FIS      0.770500
      5 N4          0.9170    0.5840   -0.4440 n         1 FIS     -0.593500
      6 F17         7.1680    2.7040    0.4040 f         1 FIS     -0.079500
      7 C16         4.6310    2.2430    3.0070 c2        1 FIS     -0.291300
      8 C11         3.9690    1.0290    2.4260 c3        1 FIS      0.224500
      9 C12         4.0720    0.9650    0.9200 c2        1 FIS     -0.137400
     10 C13         4.9250    1.7510    0.2070 ce        1 FIS     -0.067000
     11 C14         5.9800    2.4740    0.9580 ce        1 FIS      0.156400
     12 C15         5.5740    2.7150    2.2170 c1        1 FIS      0.045200
     13 O10         4.4970   -0.3010    2.9420 os        1 FIS     -0.193900
     14 C5          2.2400    0.8690   -0.7860 c         1 FIS      0.696500
     15 C19         5.9420   -1.6990    4.2690 c2        1 FIS      0.628300
     16 C7I         3.1590    0.0150    0.1730 c3        1 FIS      0.026600
     17 C8I         3.9930   -0.9400   -0.6850 c3        1 FIS     -0.115100
     18 C9          5.3840   -0.3340    3.8590 c2        1 FIS      0.263100
     19 H1I         2.3690   -1.6500    1.1910 hn        1 FIS      0.313500
     20 HN4         0.1100    0.9620   -0.8800 hn        1 FIS      0.382500
     21 H16         2.8930    0.9880    2.7760 h1        1 FIS      0.164700
     22 H13         4.9320    1.7920   -0.8970 ha        1 FIS      0.215000
     23 H15         4.1570    2.7610    3.8510 ha        1 FIS      0.203000
     24 H211        5.4350   -3.5250    5.0030 hn        1 FIS      0.354500
     25 H212        5.8300    0.5790    4.3170 h4        1 FIS      0.219000
     26 H8I1        4.7000   -1.5220   -0.0480 hc        1 FIS      0.071700
     27 H8I2        3.3330   -1.6540   -1.2370 hc        1 FIS      0.071700
     28 H9          4.5750   -0.3530   -1.4370 hc        1 FIS      0.071700
     29 N21         5.0750   -2.6490    4.6900 n         1 FIS     -0.620000
     30 H213        4.0940   -2.5070    4.6920 hn        1 FIS      0.354500
     31 O20         7.1740   -1.8080    4.1940 o         1 FIS     -0.518300
@<TRIPOS>BOND
     1    1    4 2   
     2    2   14 2   
     3    3    4 1   
     4    3   16 1   
     5    3   19 1   
     6    4    5 1   
     7    5   14 1   
     8    5   20 1   
     9    6   11 1   
    10    7    8 1   
    11    7   12 2   
    12    7   23 1   
    13    8    9 1   
    14    8   13 1   
    15    8   21 1   
    16    9   10 2   
    17    9   16 1   
    18   10   11 1   
    19   10   22 1   
    20   11   12 2   
    21   13   18 1   
    22   14   16 1   
    23   15   18 2   
    24   15   29 1   
    25   15   31 1   
    26   16   17 1   
    27   17   26 1   
    28   17   27 1   
    29   17   28 1   
    30   18   25 1   
    31   24   29 1   
    32   29   30 1   
@<TRIPOS>SUBSTRUCTURE
     1 FIS         1 TEMP              0 ****  ****    0 ROOT
