@<TRIPOS>MOLECULE
FIS
   30    29     1     0     0
SMALL
bcc


@<TRIPOS>ATOM
      1 O3I        -3.8050   -0.1180   -1.3780 o         1 FIS     -0.593500
      2 O6I         0.5020    0.6700   -2.4620 o         1 FIS     -0.560500
      3 N1I        -1.8810   -0.1320   -0.3450 n         1 FIS     -0.525900
      4 C2I        -2.5910   -0.1300   -1.3570 c         1 FIS      0.787500
      5 N4         -1.8340    0.0310   -2.3450 n         1 FIS     -0.612500
      6 F17         0.3320    4.5770   -0.0550 f         1 FIS     -0.101100
      7 C16         1.6720    1.6180    1.6480 c1        1 FIS     -0.070500
      8 C11         1.0100    0.6020    0.9490 c1        1 FIS      0.109600
      9 C12         0.1070    0.9360   -0.1160 c1        1 FIS     -0.083100
     10 C13        -0.1100    2.2750   -0.4520 c1        1 FIS     -0.046500
     11 C14         0.5560    3.2930    0.2530 c1        1 FIS      0.070100
     12 C15         1.4520    2.9620    1.3080 c1        1 FIS     -0.065500
     13 O10         1.0920   -0.5470    1.2670 os        1 FIS     -0.313400
     14 C5         -0.4420    0.2460   -1.8230 c         1 FIS      0.699500
     15 N21         0.9280   -3.6970    1.8060 n         1 FIS     -0.645000
     16 O20         1.6180   -3.2100   -0.3150 o         1 FIS     -0.604100
     17 C19         1.0360   -2.8360    0.6830 c         1 FIS      0.659100
     18 C7I        -0.4270   -0.0280   -0.7990 c3        1 FIS      0.039500
     19 C8I        -0.0850   -0.8250   -0.7250 c3        1 FIS     -0.127400
     20 C9          0.3530   -1.3180    0.7290 c3        1 FIS      0.071100
     21 H1I        -2.1680   -0.2700    0.5120 hn        1 FIS      0.329500
     22 HN4        -2.0970    0.0990   -3.2170 hn        1 FIS      0.362500
     23 H16         2.2860    1.3920    2.3720 ha        1 FIS      0.101500
     24 H13        -0.7250    2.5040   -1.1740 ha        1 FIS      0.100500
     25 H15         1.9100    3.6700    1.7980 ha        1 FIS      0.100500
     26 H211        0.2950   -3.5360    2.4460 hn        1 FIS      0.321500
     27 H212        1.4910   -4.4110    1.8890 hn        1 FIS      0.321500
     28 H8I1        0.7070   -0.8660   -1.3050 hc        1 FIS      0.094200
     29 H8I2       -0.7460   -1.4670   -1.0710 hc        1 FIS      0.094200
     30 H9         -0.4380   -1.4850    1.2800 h1        1 FIS      0.087700
@<TRIPOS>BOND
     1    1    4 2   
     2    2   14 2   
     3    3    4 1   
     4    3   18 1   
     5    3   21 1   
     6    4    5 1   
     7    5   14 1   
     8    5   22 1   
     9    6   11 1   
    10    7    8 3   
    11    7   23 1   
    12    8   13 1   
    13    9   10 3   
    14    9   18 1   
    15   10   24 1   
    16   11   12 3   
    17   12   25 1   
    18   13   20 1   
    19   14   18 1   
    20   15   17 1   
    21   15   26 1   
    22   15   27 1   
    23   16   17 2   
    24   17   20 1   
    25   18   19 1   
    26   19   20 1   
    27   19   28 1   
    28   19   29 1   
    29   20   30 1   
@<TRIPOS>SUBSTRUCTURE
     1 FIS         1 TEMP              0 ****  ****    0 ROOT
