@<TRIPOS>MOLECULE
FIS
   31    31     1     0     0
SMALL
bcc


@<TRIPOS>ATOM
      1 O3I         1.8160   -2.5940   -0.0790 o         1 FIS     -0.209000
      2 O6I         2.2980    1.6750   -1.7940 o         1 FIS      0.042000
      3 N1I         3.7380   -1.2790    0.2000 n         1 FIS     -0.249000
      4 C2I         2.4810   -1.5750   -0.2590 c2        1 FIS      0.423000
      5 N4          1.7700   -0.6610   -1.2260 n         1 FIS     -0.289000
      6 F17         4.4860    4.6270    0.8790 f         1 FIS     -0.068000
      7 C16         4.9630    1.7810    3.2040 c3        1 FIS     -0.233000
      8 C11         4.8990    0.6860    2.2000 c2        1 FIS      0.111000
      9 C12         4.6000    0.9430    0.8820 c2        1 FIS     -0.173000
     10 C13         4.4640    2.3050    0.4480 c2        1 FIS     -0.097000
     11 C14         4.5860    3.3560    1.3300 c2        1 FIS      0.015000
     12 C15         4.7780    3.1430    2.7380 c1        1 FIS     -0.022000
     13 O10         5.2470   -0.6000    2.5440 os        1 FIS     -0.200000
     14 C5          2.0520    0.5610   -1.5190 c1        1 FIS      0.455000
     15 C19         3.4840   -1.4430    3.9480 c2        1 FIS      0.282000
     16 C7I         4.4800   -0.1130   -0.1440 c2        1 FIS     -0.021000
     17 C8I         5.1620   -0.0360   -1.3060 c2        1 FIS     -0.161000
     18 C9          4.9540   -1.0370    3.8720 c3        1 FIS     -0.057000
     19 H1I         3.9100   -1.6380    1.1380 hn        1 FIS      0.317000
     20 HN4         0.9200   -1.0700   -1.6150 hn        1 FIS      0.338000
     21 H16         4.1780    1.6210    4.0070 hc        1 FIS      0.192000
     22 H13         4.2700    2.4930   -0.6220 ha        1 FIS      0.141000
     23 H15         5.9670    1.7570    3.7330 hc        1 FIS      0.192000
     24 H211        2.0390   -2.1700    5.1940 hn        1 FIS      0.247500
     25 H212        5.6170   -1.9410    3.9910 h1        1 FIS      0.142000
     26 H8I1        5.1440   -0.8180   -2.0790 ha        1 FIS      0.156500
     27 H8I2        5.2150   -0.2620    4.6360 h1        1 FIS      0.142000
     28 H9          5.8070    0.8310   -1.5200 ha        1 FIS      0.156500
     29 N21         2.9850   -1.8740    5.1370 n         1 FIS     -0.396000
     30 H213        3.5580   -1.9560    5.9390 hn        1 FIS      0.247500
     31 O20         2.7660   -1.3740    2.9220 o         1 FIS     -0.425000
@<TRIPOS>BOND
     1    1    4 1   
     2    2   14 1   
     3    3    4 1   
     4    3   16 1   
     5    3   19 1   
     6    4    5 1   
     7    5   14 1   
     8    5   20 1   
     9    6   11 1   
    10    7    8 1   
    11    7   12 1   
    12    7   21 1   
    13    7   23 1   
    14    8    9 1   
    15    8   13 1   
    16    9   10 1   
    17    9   16 1   
    18   10   11 1   
    19   10   22 1   
    20   11   12 1   
    21   13   18 1   
    22   15   18 1   
    23   15   29 1   
    24   15   31 1   
    25   16   17 1   
    26   17   26 1   
    27   17   28 1   
    28   18   25 1   
    29   18   27 1   
    30   24   29 1   
    31   29   30 1   
@<TRIPOS>SUBSTRUCTURE
     1 FIS         1 TEMP              0 ****  ****    0 ROOT
