@<TRIPOS>MOLECULE
FIS
   30    32     1     0     0
SMALL
bcc


@<TRIPOS>ATOM
      1 O3I        -1.8150    3.8820   -0.9410 o         1 FIS     -0.590500
      2 O6I        -0.5660    1.1520    2.5980 o         1 FIS     -0.560500
      3 N1I        -0.3610    2.0030   -0.8850 n         1 FIS     -0.512900
      4 C2I        -1.2650    2.9550   -0.3290 c         1 FIS      0.781500
      5 N4         -1.4100    2.7160    1.0670 n         1 FIS     -0.611500
      6 F17        -3.8310   -2.0960   -0.2090 f         1 FIS     -0.131900
      7 C16        -0.2880   -2.6930   -0.8560 ca        1 FIS     -0.130000
      8 C11         0.2330   -1.4150   -0.5720 ca        1 FIS      0.140100
      9 C12        -0.6040   -0.3680   -0.1620 ca        1 FIS     -0.160300
     10 C13        -1.9780   -0.6030   -0.0440 ca        1 FIS     -0.120000
     11 C14        -2.5000   -1.8730   -0.3260 ca        1 FIS      0.102900
     12 C15        -1.6480   -2.9220   -0.7310 ca        1 FIS     -0.118000
     13 O10         1.6030   -1.3090   -0.7090 os        1 FIS     -0.329900
     14 C5         -0.6840    1.5810    1.4510 c         1 FIS      0.699500
     15 O20         4.3890    0.7450   -1.0360 o         1 FIS     -0.595100
     16 C19         3.6350   -0.0580   -0.4540 c         1 FIS      0.658100
     17 C7I        -0.0350    0.9910    0.1450 c3        1 FIS      0.067700
     18 C8I         1.4760    0.8780    0.3900 c3        1 FIS     -0.099400
     19 C9          2.1200    0.0320   -0.6920 c3        1 FIS      0.070100
     20 H1I        -0.5650    1.6740   -1.8010 hn        1 FIS      0.324500
     21 HN4        -1.8640    3.3450    1.6800 hn        1 FIS      0.362500
     22 H16         0.3960   -3.4950   -1.1720 ha        1 FIS      0.162000
     23 H13        -2.6560    0.2010    0.2820 ha        1 FIS      0.157000
     24 H15        -2.0730   -3.9140   -0.9460 ha        1 FIS      0.159000
     25 H211        5.0930   -1.0750    0.5530 hn        1 FIS      0.319000
     26 H212        3.5210   -1.6920    0.7760 hn        1 FIS      0.319000
     27 H8I1        1.6260    0.4010    1.3970 hc        1 FIS      0.095200
     28 H8I2        1.9590    1.8900    0.4020 hc        1 FIS      0.095200
     29 H9          1.9540    0.4810   -1.7120 h1        1 FIS      0.096700
     30 N21         4.1130   -0.9720    0.4450 n         1 FIS     -0.649000
@<TRIPOS>BOND
     1    1    4 2   
     2    2   14 2   
     3    3    4 1   
     4    3   17 1   
     5    3   20 1   
     6    4    5 1   
     7    5   14 1   
     8    5   21 1   
     9    6   11 1   
    10    7    8 ar  
    11    7   12 ar  
    12    7   22 1   
    13    8    9 ar  
    14    8   13 1   
    15    9   10 ar  
    16    9   17 1   
    17   10   11 ar  
    18   10   23 1   
    19   11   12 ar  
    20   12   24 1   
    21   13   19 1   
    22   14   17 1   
    23   15   16 2   
    24   16   19 1   
    25   16   30 1   
    26   17   18 1   
    27   18   19 1   
    28   18   27 1   
    29   18   28 1   
    30   19   29 1   
    31   25   30 1   
    32   26   30 1   
@<TRIPOS>SUBSTRUCTURE
     1 FIS         1 TEMP              0 ****  ****    0 ROOT
