@<TRIPOS>MOLECULE
FIT
   64    67     1     0     0
SMALL
bcc


@<TRIPOS>ATOM
      1 N1          0.0470   -0.2270   -0.2640 ns        1 FIT     -0.578900
      2 C2          0.2140    0.8100   -2.4720 ce        1 FIT     -0.193200
      3 N2          8.6030    4.3120   -0.9830 ny        1 FIT     -0.690800
      4 C4          1.4600    0.0220   -0.1170 c3        1 FIT      0.120700
      5 C5          1.9510   -0.1000    1.3290 c3        1 FIT     -0.088400
      6 C6          3.4630   -0.0350    1.3450 c3        1 FIT     -0.073400
      7 O1         -1.7590   -0.2970   -1.6620 o         1 FIT     -0.613500
      8 O2          8.7640    4.2410    1.3600 o         1 FIT     -0.408100
      9 C1          1.3550    1.4250   -2.1430 c2        1 FIT     -0.135200
     10 C3         -0.5810    0.0530   -1.4670 c         1 FIT      0.690700
     11 C7          3.9630    1.2590    0.7230 c3        1 FIT     -0.052700
     12 C8          3.4230    1.4440   -0.7080 c3        1 FIT     -0.047700
     13 C9          1.8850    1.3980   -0.7340 c3        1 FIT     -0.027800
     14 C10         3.9820    2.7160   -1.3360 c3        1 FIT     -0.075400
     15 C11         5.5020    2.8090   -1.2900 c3        1 FIT     -0.072400
     16 C12         6.0080    2.6290    0.1310 c3        1 FIT     -0.056000
     17 C13         5.4760    1.2660    0.6410 c3        1 FIT     -0.053700
     18 C14         6.2970    0.9880    1.8920 c3        1 FIT     -0.077400
     19 C15         7.6770    1.5800    1.5920 c3        1 FIT     -0.075400
     20 C16         7.5340    2.4010    0.2910 c3        1 FIT     -0.148700
     21 C17         5.5940    3.8050    1.0000 c3        1 FIT     -0.104100
     22 C18         1.2650    2.5720    0.0110 c3        1 FIT     -0.088100
     23 C19         8.3200    3.6840    0.3700 c         1 FIT      0.564100
     24 C20         8.9090    5.8100   -1.0290 c3        1 FIT      0.159200
     25 C21        10.2710    6.0970   -0.3950 c3        1 FIT     -0.130100
     26 C22         8.9470    6.2370   -2.5020 c3        1 FIT     -0.130100
     27 C23         7.8180    6.6020   -0.3100 c3        1 FIT     -0.130100
     28 HN1        -0.4230   -0.7580    0.4290 hn        1 FIT      0.330500
     29 H2         -0.2230    0.8340   -3.4820 ha        1 FIT      0.167000
     30 HN2         9.4080    3.8240   -1.3900 hn        1 FIT      0.453300
     31 H4          2.0120   -0.7690   -0.7220 h1        1 FIT      0.038700
     32 H5          1.6210   -1.0800    1.7650 hc        1 FIT      0.061200
     33 H5A         1.5160    0.7160    1.9610 hc        1 FIT      0.061200
     34 H6          3.8300   -0.1000    2.4030 hc        1 FIT      0.050700
     35 H6A         3.8860   -0.9110    0.7870 hc        1 FIT      0.050700
     36 H1          1.9220    2.0060   -2.8850 ha        1 FIT      0.130000
     37 H7          3.6150    2.1120    1.3690 hc        1 FIT      0.063700
     38 H8          3.7890    0.5720   -1.3250 hc        1 FIT      0.056700
     39 H10         3.6730    2.7680   -2.4130 hc        1 FIT      0.057700
     40 H10A        3.5430    3.6110   -0.8210 hc        1 FIT      0.057700
     41 H11         5.9450    2.0220   -1.9550 hc        1 FIT      0.030200
     42 H11A        5.8010    3.8130   -1.6930 hc        1 FIT      0.030200
     43 H13         5.7670    0.4850   -0.1240 hc        1 FIT      0.056700
     44 H14         6.3630   -0.1100    2.0950 hc        1 FIT      0.070200
     45 H14A        5.8410    1.4750    2.7900 hc        1 FIT      0.070200
     46 H15         8.4360    0.7720    1.4440 hc        1 FIT      0.073200
     47 H15A        8.0180    2.2250    2.4400 hc        1 FIT      0.073200
     48 H16         7.9070    1.7850   -0.5740 hc        1 FIT      0.086700
     49 H17         4.4840    3.9240    1.0180 hc        1 FIT      0.052033
     50 H17A        5.9490    3.6620    2.0500 hc        1 FIT      0.052033
     51 H17B        6.0350    4.7530    0.5990 hc        1 FIT      0.052033
     52 H18         1.6940    2.6760    1.0360 hc        1 FIT      0.046700
     53 H18A        0.1600    2.4330    0.1060 hc        1 FIT      0.046700
     54 H18B        1.4450    3.5220   -0.5480 hc        1 FIT      0.046700
     55 H21        11.0850    5.5290   -0.9040 hc        1 FIT      0.077256
     56 H21A       10.4850    7.1890   -0.5070 hc        1 FIT      0.077256
     57 H21B       10.2730    5.8530    0.6960 hc        1 FIT      0.077256
     58 H22         9.1810    7.3310   -2.5430 hc        1 FIT      0.077256
     59 H22A        9.7440    5.6930   -3.0660 hc        1 FIT      0.077256
     60 H22B        7.9620    6.0760   -3.0020 hc        1 FIT      0.077256
     61 H23         7.7870    6.3540    0.7800 hc        1 FIT      0.077256
     62 H23A        6.8140    6.4180   -0.7640 hc        1 FIT      0.077256
     63 H23B        8.0530    7.6920   -0.4110 hc        1 FIT      0.077256
     64 H221        7.7830    4.1430   -1.5790 hn        1 FIT      0.453300
@<TRIPOS>BOND
     1    1    4 1   
     2    1   10 1   
     3    1   28 1   
     4    2    9 2   
     5    2   10 1   
     6    2   29 1   
     7    3   23 1   
     8    3   24 1   
     9    3   30 1   
    10    3   64 1   
    11    4    5 1   
    12    4   13 1   
    13    4   31 1   
    14    5    6 1   
    15    5   32 1   
    16    5   33 1   
    17    6   11 1   
    18    6   34 1   
    19    6   35 1   
    20    7   10 2   
    21    8   23 2   
    22    9   13 1   
    23    9   36 1   
    24   11   12 1   
    25   11   17 1   
    26   11   37 1   
    27   12   13 1   
    28   12   14 1   
    29   12   38 1   
    30   13   22 1   
    31   14   15 1   
    32   14   39 1   
    33   14   40 1   
    34   15   16 1   
    35   15   41 1   
    36   15   42 1   
    37   16   17 1   
    38   16   20 1   
    39   16   21 1   
    40   17   18 1   
    41   17   43 1   
    42   18   19 1   
    43   18   44 1   
    44   18   45 1   
    45   19   20 1   
    46   19   46 1   
    47   19   47 1   
    48   20   23 1   
    49   20   48 1   
    50   21   49 1   
    51   21   50 1   
    52   21   51 1   
    53   22   52 1   
    54   22   53 1   
    55   22   54 1   
    56   24   25 1   
    57   24   26 1   
    58   24   27 1   
    59   25   55 1   
    60   25   56 1   
    61   25   57 1   
    62   26   58 1   
    63   26   59 1   
    64   26   60 1   
    65   27   61 1   
    66   27   62 1   
    67   27   63 1   
@<TRIPOS>SUBSTRUCTURE
     1 FIT         1 TEMP              0 ****  ****    0 ROOT
