@<TRIPOS>MOLECULE
FIT
   64    67     1     0     0
SMALL
bcc


@<TRIPOS>ATOM
      1 N1          0.0560   -0.2430   -0.2440 n         1 FIT     -0.578900
      2 C2          0.2160    0.7860   -2.4570 ce        1 FIT     -0.193200
      3 N2          8.5960    4.3220   -0.9940 n4        1 FIT     -0.690800
      4 C4          1.4680    0.0120   -0.1010 c3        1 FIT      0.120700
      5 C5          1.9620   -0.1040    1.3440 c3        1 FIT     -0.088400
      6 C6          3.4740   -0.0330    1.3580 c3        1 FIT     -0.073400
      7 O1         -1.7520   -0.3240   -1.6390 o         1 FIT     -0.613500
      8 O2          8.7600    4.2600    1.3480 o         1 FIT     -0.408100
      9 C1          1.3560    1.4060   -2.1320 c2        1 FIT     -0.135200
     10 C3         -0.5750    0.0310   -1.4480 c         1 FIT      0.690700
     11 C7          3.9690    1.2600    0.7310 c3        1 FIT     -0.052700
     12 C8          3.4260    1.4370   -0.7000 c3        1 FIT     -0.047700
     13 C9          1.8880    1.3860   -0.7240 c3        1 FIT     -0.027800
     14 C10         3.9800    2.7090   -1.3340 c3        1 FIT     -0.075400
     15 C11         5.5000    2.8060   -1.2920 c3        1 FIT     -0.072400
     16 C12         6.0090    2.6340    0.1300 c3        1 FIT     -0.057000
     17 C13         5.4810    1.2710    0.6450 c3        1 FIT     -0.053700
     18 C14         6.3050    1.0000    1.8960 c3        1 FIT     -0.077400
     19 C15         7.6830    1.5960    1.5920 c3        1 FIT     -0.075400
     20 C16         7.5360    2.4120    0.2890 c3        1 FIT     -0.148700
     21 C17         5.5920    3.8120    0.9940 c3        1 FIT     -0.104100
     22 C18         1.2660    2.5620    0.0180 c3        1 FIT     -0.088100
     23 C19         8.3170    3.6970    0.3610 c         1 FIT      0.564100
     24 C20         8.8970    5.8200   -1.0460 c3        1 FIT      0.159200
     25 C21        10.2590    6.1140   -0.4150 c3        1 FIT     -0.130100
     26 C22         8.9320    6.2420   -2.5210 c3        1 FIT     -0.130100
     27 C23         7.8050    6.6120   -0.3280 c3        1 FIT     -0.130100
     28 HN1        -0.4120   -0.7720    0.4520 hn        1 FIT      0.330500
     29 H2         -0.2220    0.8040   -3.4660 ha        1 FIT      0.167000
     30 HN2         9.4010    3.8340   -1.4010 hn        1 FIT      0.453300
     31 H4          2.0220   -0.7800   -0.7030 h1        1 FIT      0.038700
     32 H5          1.5250    0.7130    1.9740 hc        1 FIT      0.061200
     33 H5A         1.6360   -1.0830    1.7850 hc        1 FIT      0.061200
     34 H6          3.8430   -0.0940    2.4150 hc        1 FIT      0.050700
     35 H6A         3.8990   -0.9110    0.8020 hc        1 FIT      0.050700
     36 H1          1.9190    1.9860   -2.8770 ha        1 FIT      0.130000
     37 H7          3.6190    2.1140    1.3730 hc        1 FIT      0.063700
     38 H8          3.7930    0.5640   -1.3140 hc        1 FIT      0.056700
     39 H10         3.6690    2.7550   -2.4120 hc        1 FIT      0.057700
     40 H10A        3.5390    3.6040   -0.8220 hc        1 FIT      0.057700
     41 H11         5.7940    3.8100   -1.6990 hc        1 FIT      0.030200
     42 H11A        5.9450    2.0180   -1.9540 hc        1 FIT      0.030200
     43 H13         5.7740    0.4880   -0.1170 hc        1 FIT      0.056700
     44 H14         6.3760   -0.0960    2.1040 hc        1 FIT      0.070200
     45 H14A        5.8490    1.4890    2.7930 hc        1 FIT      0.070200
     46 H15         8.0230    2.2450    2.4380 hc        1 FIT      0.073200
     47 H15A        8.4440    0.7900    1.4460 hc        1 FIT      0.073200
     48 H16         7.9100    1.7940   -0.5750 hc        1 FIT      0.086700
     49 H17         5.9490    3.6740    2.0450 hc        1 FIT      0.052033
     50 H17A        4.4810    3.9270    1.0140 hc        1 FIT      0.052033
     51 H17B        6.0290    4.7590    0.5890 hc        1 FIT      0.052033
     52 H18         0.1620    2.4190    0.1150 hc        1 FIT      0.046700
     53 H18A        1.6960    2.6700    1.0410 hc        1 FIT      0.046700
     54 H18B        1.4420    3.5100   -0.5460 hc        1 FIT      0.046700
     55 H21        11.0750    5.5460   -0.9240 hc        1 FIT      0.077256
     56 H21A       10.4700    7.2070   -0.5320 hc        1 FIT      0.077256
     57 H21B       10.2640    5.8730    0.6770 hc        1 FIT      0.077256
     58 H22         9.1620    7.3370   -2.5660 hc        1 FIT      0.077256
     59 H22A        9.7300    5.6990   -3.0840 hc        1 FIT      0.077256
     60 H22B        7.9460    6.0760   -3.0190 hc        1 FIT      0.077256
     61 H23         6.8010    6.4230   -0.7810 hc        1 FIT      0.077256
     62 H23A        7.7760    6.3680    0.7620 hc        1 FIT      0.077256
     63 H23B        8.0360    7.7020   -0.4330 hc        1 FIT      0.077256
     64 H221        7.7750    4.1480   -1.5880 hn        1 FIT      0.453300
@<TRIPOS>BOND
     1    1    4 1   
     2    1   10 1   
     3    1   28 1   
     4    2    9 2   
     5    2   10 1   
     6    2   29 1   
     7    3   23 1   
     8    3   24 1   
     9    3   30 1   
    10    3   64 1   
    11    4    5 1   
    12    4   13 1   
    13    4   31 1   
    14    5    6 1   
    15    5   32 1   
    16    5   33 1   
    17    6   11 1   
    18    6   34 1   
    19    6   35 1   
    20    7   10 2   
    21    8   23 2   
    22    9   13 1   
    23    9   36 1   
    24   11   12 1   
    25   11   17 1   
    26   11   37 1   
    27   12   13 1   
    28   12   14 1   
    29   12   38 1   
    30   13   22 1   
    31   14   15 1   
    32   14   39 1   
    33   14   40 1   
    34   15   16 1   
    35   15   41 1   
    36   15   42 1   
    37   16   17 1   
    38   16   20 1   
    39   16   21 1   
    40   17   18 1   
    41   17   43 1   
    42   18   19 1   
    43   18   44 1   
    44   18   45 1   
    45   19   20 1   
    46   19   46 1   
    47   19   47 1   
    48   20   23 1   
    49   20   48 1   
    50   21   49 1   
    51   21   50 1   
    52   21   51 1   
    53   22   52 1   
    54   22   53 1   
    55   22   54 1   
    56   24   25 1   
    57   24   26 1   
    58   24   27 1   
    59   25   55 1   
    60   25   56 1   
    61   25   57 1   
    62   26   58 1   
    63   26   59 1   
    64   26   60 1   
    65   27   61 1   
    66   27   62 1   
    67   27   63 1   
@<TRIPOS>SUBSTRUCTURE
     1 FIT         1 TEMP              0 ****  ****    0 ROOT
