@<TRIPOS>MOLECULE
FIT
   64    67     1     0     0
SMALL
bcc


@<TRIPOS>ATOM
      1 N1          0.0450   -0.2180   -0.2590 n         1 FIT     -0.578900
      2 C2          0.2040    0.8300   -2.4620 ce        1 FIT     -0.193200
      3 N2          8.6000    4.3230   -0.9870 n4        1 FIT     -0.690800
      4 C4          1.4580    0.0310   -0.1150 c3        1 FIT      0.120700
      5 C5          1.9550   -0.0990    1.3280 c3        1 FIT     -0.088400
      6 C6          3.4670   -0.0340    1.3390 c3        1 FIT     -0.073400
      7 O1         -1.7660   -0.2810   -1.6510 o         1 FIT     -0.613500
      8 O2          8.7680    4.2410    1.3550 o         1 FIT     -0.408100
      9 C1          1.3470    1.4430   -2.1350 c2        1 FIT     -0.135200
     10 C3         -0.5870    0.0680   -1.4580 c         1 FIT      0.690700
     11 C7          3.9650    1.2630    0.7220 c3        1 FIT     -0.052700
     12 C8          3.4200    1.4550   -0.7060 c3        1 FIT     -0.047700
     13 C9          1.8820    1.4090   -0.7280 c3        1 FIT     -0.027800
     14 C10         3.9770    2.7300   -1.3300 c3        1 FIT     -0.075400
     15 C11         5.4970    2.8220   -1.2900 c3        1 FIT     -0.072400
     16 C12         6.0080    2.6350    0.1290 c3        1 FIT     -0.056000
     17 C13         5.4780    1.2700    0.6340 c3        1 FIT     -0.053700
     18 C14         6.3030    0.9860    1.8800 c3        1 FIT     -0.077400
     19 C15         7.6820    1.5790    1.5790 c3        1 FIT     -0.075400
     20 C16         7.5350    2.4060    0.2820 c3        1 FIT     -0.148700
     21 C17         5.5980    3.8070    1.0040 c3        1 FIT     -0.104100
     22 C18         1.2650    2.5800    0.0260 c3        1 FIT     -0.088100
     23 C19         8.3220    3.6880    0.3640 c         1 FIT      0.564100
     24 C20         8.9050    5.8210   -1.0270 c3        1 FIT      0.159200
     25 C21        10.2690    6.1050   -0.3960 c3        1 FIT     -0.130100
     26 C22         8.9390    6.2550   -2.4990 c3        1 FIT     -0.130100
     27 C23         7.8170    6.6100   -0.3010 c3        1 FIT     -0.130100
     28 HN1        -0.4230   -0.7520    0.4340 hn        1 FIT      0.330500
     29 H2         -0.2360    0.8580   -3.4710 ha        1 FIT      0.167000
     30 HN2         7.7780    4.1560   -1.5810 hn        1 FIT      0.453300
     31 H4          2.0090   -0.7580   -0.7260 h1        1 FIT      0.038700
     32 H5          1.6260   -1.0810    1.7610 hc        1 FIT      0.061200
     33 H5A         1.5220    0.7140    1.9660 hc        1 FIT      0.061200
     34 H6          3.8380   -0.1040    2.3950 hc        1 FIT      0.050700
     35 H6A         3.8880   -0.9080    0.7750 hc        1 FIT      0.050700
     36 H1          1.9110    2.0270   -2.8750 ha        1 FIT      0.130000
     37 H7          3.6200    2.1130    1.3720 hc        1 FIT      0.063700
     38 H8          3.7830    0.5860   -1.3290 hc        1 FIT      0.056700
     39 H10         3.5400    3.6230   -0.8090 hc        1 FIT      0.057700
     40 H10A        3.6640    2.7870   -2.4060 hc        1 FIT      0.057700
     41 H11         5.7940    3.8280   -1.6890 hc        1 FIT      0.030200
     42 H11A        5.9380    2.0380   -1.9600 hc        1 FIT      0.030200
     43 H13         5.7660    0.4920   -0.1360 hc        1 FIT      0.056700
     44 H14         6.3700   -0.1130    2.0790 hc        1 FIT      0.070200
     45 H14A        5.8510    1.4680    2.7820 hc        1 FIT      0.070200
     46 H15         8.4410    0.7720    1.4240 hc        1 FIT      0.073200
     47 H15A        8.0260    2.2200    2.4290 hc        1 FIT      0.073200
     48 H16         7.9050    1.7940   -0.5870 hc        1 FIT      0.086700
     49 H17         6.0370    4.7560    0.6060 hc        1 FIT      0.052033
     50 H17A        5.9560    3.6590    2.0530 hc        1 FIT      0.052033
     51 H17B        4.4880    3.9260    1.0270 hc        1 FIT      0.052033
     52 H18         1.4430    3.5330   -0.5300 hc        1 FIT      0.046700
     53 H18A        1.6970    2.6790    1.0490 hc        1 FIT      0.046700
     54 H18B        0.1610    2.4400    0.1240 hc        1 FIT      0.046700
     55 H21        10.2750    5.8560    0.6930 hc        1 FIT      0.077256
     56 H21A       11.0830    5.5390   -0.9110 hc        1 FIT      0.077256
     57 H21B       10.4830    7.1980   -0.5040 hc        1 FIT      0.077256
     58 H22         7.9520    6.0960   -2.9960 hc        1 FIT      0.077256
     59 H22A        9.7340    5.7130   -3.0670 hc        1 FIT      0.077256
     60 H22B        9.1720    7.3490   -2.5360 hc        1 FIT      0.077256
     61 H23         8.0520    7.7000   -0.3980 hc        1 FIT      0.077256
     62 H23A        6.8120    6.4270   -0.7520 hc        1 FIT      0.077256
     63 H23B        7.7900    6.3570    0.7880 hc        1 FIT      0.077256
     64 H221        9.4030    3.8360   -1.3990 hn        1 FIT      0.453300
@<TRIPOS>BOND
     1    1    4 1   
     2    1   10 1   
     3    1   28 1   
     4    2    9 2   
     5    2   10 1   
     6    2   29 1   
     7    3   23 1   
     8    3   24 1   
     9    3   30 1   
    10    3   64 1   
    11    4    5 1   
    12    4   13 1   
    13    4   31 1   
    14    5    6 1   
    15    5   32 1   
    16    5   33 1   
    17    6   11 1   
    18    6   34 1   
    19    6   35 1   
    20    7   10 2   
    21    8   23 2   
    22    9   13 1   
    23    9   36 1   
    24   11   12 1   
    25   11   17 1   
    26   11   37 1   
    27   12   13 1   
    28   12   14 1   
    29   12   38 1   
    30   13   22 1   
    31   14   15 1   
    32   14   39 1   
    33   14   40 1   
    34   15   16 1   
    35   15   41 1   
    36   15   42 1   
    37   16   17 1   
    38   16   20 1   
    39   16   21 1   
    40   17   18 1   
    41   17   43 1   
    42   18   19 1   
    43   18   44 1   
    44   18   45 1   
    45   19   20 1   
    46   19   46 1   
    47   19   47 1   
    48   20   23 1   
    49   20   48 1   
    50   21   49 1   
    51   21   50 1   
    52   21   51 1   
    53   22   52 1   
    54   22   53 1   
    55   22   54 1   
    56   24   25 1   
    57   24   26 1   
    58   24   27 1   
    59   25   55 1   
    60   25   56 1   
    61   25   57 1   
    62   26   58 1   
    63   26   59 1   
    64   26   60 1   
    65   27   61 1   
    66   27   62 1   
    67   27   63 1   
@<TRIPOS>SUBSTRUCTURE
     1 FIT         1 TEMP              0 ****  ****    0 ROOT
