@<TRIPOS>MOLECULE
FIT
   63    66     1     0     0
SMALL
bcc


@<TRIPOS>ATOM
      1 N1          5.3880   -0.2480    0.0480 n         1 FIT     -0.577900
      2 C2          4.8430    1.9300    1.0120 ce        1 FIT     -0.215200
      3 N2         -4.2260    0.5460    0.5640 n         1 FIT     -0.567900
      4 C4          4.0090   -0.6160    0.2670 c3        1 FIT      0.116700
      5 C5          3.5800   -1.8610   -0.5130 c3        1 FIT     -0.085400
      6 C6          2.2050   -2.2870   -0.0430 c3        1 FIT     -0.073400
      7 O1          7.0720    1.2480    0.4250 o         1 FIT     -0.640500
      8 O2         -4.4450   -1.2790   -0.8190 o         1 FIT     -0.613100
      9 C1          3.5350    1.7450    0.7970 c2        1 FIT     -0.114200
     10 C3          5.8570    0.9760    0.4900 c         1 FIT      0.694700
     11 C7          1.1890   -1.1720   -0.2230 c3        1 FIT     -0.050700
     12 C8          1.6350    0.1210    0.4860 c3        1 FIT     -0.045700
     13 C9          3.0250    0.5720    0.0030 c3        1 FIT     -0.030800
     14 C10         0.5770    1.2100    0.3380 c3        1 FIT     -0.073400
     15 C11        -0.8120    0.7750    0.7830 c3        1 FIT     -0.068400
     16 C12        -1.2350   -0.4970    0.0670 c3        1 FIT     -0.047000
     17 C13        -0.1530   -1.5650    0.3570 c3        1 FIT     -0.062700
     18 C14        -0.8030   -2.8760   -0.0640 c3        1 FIT     -0.074400
     19 C15        -2.2870   -2.6920    0.2720 c3        1 FIT     -0.075400
     20 C16        -2.4930   -1.2070    0.6210 c3        1 FIT     -0.135700
     21 C17        -1.4400   -0.2270   -1.4150 c3        1 FIT     -0.092100
     22 C18         3.0120    0.9870   -1.4630 c3        1 FIT     -0.085100
     23 C19        -3.7920   -0.6580    0.0440 c         1 FIT      0.670100
     24 C20        -5.3660    1.2960    0.0420 c3        1 FIT      0.123400
     25 C21        -6.6780    0.5090    0.1960 c3        1 FIT     -0.108100
     26 C22        -5.5190    2.6200    0.8140 c3        1 FIT     -0.108100
     27 C23        -5.1920    1.6410   -1.4480 c3        1 FIT     -0.108100
     28 HN1         6.0190   -0.9260   -0.3030 hn        1 FIT      0.324500
     29 H2          5.2560    2.7890    1.5590 ha        1 FIT      0.159000
     30 HN2        -3.6090    1.0470    1.1590 hn        1 FIT      0.304500
     31 H4          3.9000   -0.8650    1.3730 h1        1 FIT      0.039700
     32 H5          3.5690   -1.6490   -1.6130 hc        1 FIT      0.052200
     33 H5A         4.3070   -2.6960   -0.3360 hc        1 FIT      0.052200
     34 H6          1.8710   -3.1850   -0.6270 hc        1 FIT      0.047700
     35 H6A         2.2510   -2.5870    1.0370 hc        1 FIT      0.047700
     36 H1          2.7900    2.4670    1.1610 ha        1 FIT      0.136000
     37 H7          1.0790   -0.9750   -1.3250 hc        1 FIT      0.060700
     38 H8          1.7300   -0.1110    1.5870 hc        1 FIT      0.050700
     39 H10         0.8690    2.1020    0.9530 hc        1 FIT      0.044700
     40 H10A        0.5320    1.5430   -0.7320 hc        1 FIT      0.044700
     41 H11        -0.8180    0.6040    1.8910 hc        1 FIT      0.039700
     42 H11A       -1.5340    1.6040    0.5620 hc        1 FIT      0.039700
     43 H13        -0.0250   -1.6140    1.4800 hc        1 FIT      0.046700
     44 H14        -0.6630   -3.0590   -1.1580 hc        1 FIT      0.046700
     45 H14A       -0.3640   -3.7410    0.4880 hc        1 FIT      0.046700
     46 H15        -2.9260   -2.9830   -0.6000 hc        1 FIT      0.063700
     47 H15A       -2.5800   -3.3300    1.1410 hc        1 FIT      0.063700
     48 H16        -2.5130   -1.0950    1.7390 hc        1 FIT      0.063700
     49 H17        -0.5080    0.1490   -1.8990 hc        1 FIT      0.044033
     50 H17A       -1.7620   -1.1620   -1.9360 hc        1 FIT      0.044033
     51 H17B       -2.2390    0.5440   -1.5550 hc        1 FIT      0.044033
     52 H18         2.5400    0.2020   -2.0990 hc        1 FIT      0.044700
     53 H18A        2.4370    1.9370   -1.5870 hc        1 FIT      0.044700
     54 H18B        4.0530    1.1600   -1.8290 hc        1 FIT      0.044700
     55 H21        -6.8800    0.2850    1.2700 hc        1 FIT      0.045256
     56 H21A       -7.5180    1.1220   -0.2080 hc        1 FIT      0.045256
     57 H21B       -6.6220   -0.4510   -0.3720 hc        1 FIT      0.045256
     58 H22        -4.6150    3.2630    0.6910 hc        1 FIT      0.045256
     59 H22A       -6.4020    3.1700    0.4100 hc        1 FIT      0.045256
     60 H22B       -5.6860    2.4300    1.9010 hc        1 FIT      0.045256
     61 H23        -5.1150    0.7050   -2.0530 hc        1 FIT      0.045256
     62 H23A       -6.0770    2.2240   -1.7960 hc        1 FIT      0.045256
     63 H23B       -4.2740    2.2530   -1.6090 hc        1 FIT      0.045256
@<TRIPOS>BOND
     1    1    4 1   
     2    1   10 1   
     3    1   28 1   
     4    2    9 2   
     5    2   10 1   
     6    2   29 1   
     7    3   23 1   
     8    3   24 1   
     9    3   30 1   
    10    4    5 1   
    11    4   13 1   
    12    4   31 1   
    13    5    6 1   
    14    5   32 1   
    15    5   33 1   
    16    6   11 1   
    17    6   34 1   
    18    6   35 1   
    19    7   10 2   
    20    8   23 2   
    21    9   13 1   
    22    9   36 1   
    23   11   12 1   
    24   11   17 1   
    25   11   37 1   
    26   12   13 1   
    27   12   14 1   
    28   12   38 1   
    29   13   22 1   
    30   14   15 1   
    31   14   39 1   
    32   14   40 1   
    33   15   16 1   
    34   15   41 1   
    35   15   42 1   
    36   16   17 1   
    37   16   20 1   
    38   16   21 1   
    39   17   18 1   
    40   17   43 1   
    41   18   19 1   
    42   18   44 1   
    43   18   45 1   
    44   19   20 1   
    45   19   46 1   
    46   19   47 1   
    47   20   23 1   
    48   20   48 1   
    49   21   49 1   
    50   21   50 1   
    51   21   51 1   
    52   22   52 1   
    53   22   53 1   
    54   22   54 1   
    55   24   25 1   
    56   24   26 1   
    57   24   27 1   
    58   25   55 1   
    59   25   56 1   
    60   25   57 1   
    61   26   58 1   
    62   26   59 1   
    63   26   60 1   
    64   27   61 1   
    65   27   62 1   
    66   27   63 1   
@<TRIPOS>SUBSTRUCTURE
     1 FIT         1 TEMP              0 ****  ****    0 ROOT
