@<TRIPOS>MOLECULE
FIT
   63    64     1     0     0
SMALL
bcc


@<TRIPOS>ATOM
      1 N1         -0.1380   -1.4390   -0.5700 n3        1 FIT     -0.344000
      2 C2          0.1630   -0.9480   -3.4330 c1        1 FIT     -0.140000
      3 N2         -2.1190   -0.0340   -0.4940 n         1 FIT     -0.288000
      4 C4          0.9900   -1.4830   -0.4760 c3        1 FIT      0.026000
      5 C5          1.3980   -1.2910    1.5610 c3        1 FIT     -0.014000
      6 C6          1.4300   -1.2890    1.5660 c3        1 FIT     -0.286000
      7 O1         -1.6980   -2.4060   -2.4500 o         1 FIT     -0.377000
      8 O2         -0.7030   -1.4740    0.7920 o         1 FIT     -0.180000
      9 C1          1.4850   -0.3160   -3.0560 c1        1 FIT     -0.140000
     10 C3         -0.7880   -1.5410   -2.1850 c1        1 FIT      0.324000
     11 C7          2.3240    0.4270    0.4620 c3        1 FIT     -0.069000
     12 C8          1.8300    0.4670   -1.0680 c3        1 FIT     -0.105000
     13 C9          1.8750   -0.3610   -1.4270 c2        1 FIT     -0.053000
     14 C10         0.1250    1.1690   -1.1860 c3        1 FIT     -0.151000
     15 C11        -0.0020    1.0810   -1.0530 c3        1 FIT     -0.158000
     16 C12         0.5480    1.1170    0.3420 c3        1 FIT      0.029000
     17 C13         2.3150    0.4840    0.4910 c3        1 FIT     -0.142000
     18 C14         2.5680    0.3930    1.8730 c3        1 FIT     -0.166000
     19 C15         1.4870    0.2650    2.3630 c3        1 FIT     -0.209000
     20 C16         0.1150    0.7880    0.8450 c3        1 FIT     -0.237000
     21 C17         0.5720    3.0870    0.8470 c3        1 FIT     -0.202000
     22 C18         3.5740   -0.8750   -1.3610 c3        1 FIT     -0.199000
     23 C19        -0.7990   -0.4120    0.3020 c2        1 FIT      0.108000
     24 C20        -3.4860   -0.1360    0.1960 c3        1 FIT      0.036000
     25 C21        -3.3670   -1.0240    1.4180 c3        1 FIT     -0.221000
     26 C22        -3.9900    1.3480    0.6630 c3        1 FIT     -0.221000
     27 C23        -4.4740   -0.7270   -0.7590 c3        1 FIT     -0.221000
     28 HN1        -0.6950   -1.6980    0.1890 hn        1 FIT      0.229000
     29 H2         -0.1950   -0.8940   -4.3960 ha        1 FIT      0.146500
     30 HN2        -2.0560    0.3470   -1.3460 hn        1 FIT      0.185000
     31 H4          1.3160   -2.5710   -0.8040 h1        1 FIT      0.108000
     32 H5          0.9190   -0.3990    1.9300 hc        1 FIT      0.111500
     33 H5A         0.9030   -2.3650    2.1890 hc        1 FIT      0.111500
     34 H6          1.6250   -1.1580    2.6860 hc        1 FIT      0.126500
     35 H6A         2.0460   -2.4670    1.1300 hc        1 FIT      0.126500
     36 H1          2.1800   -0.2280   -3.7150 ha        1 FIT      0.146500
     37 H7          3.3870    0.2470    0.4390 hc        1 FIT      0.073000
     38 H8          2.5650    1.1680   -1.6840 hc        1 FIT      0.106000
     39 H10        -0.2090    1.0340   -2.0610 hc        1 FIT      0.086500
     40 H10A        0.1670    2.2780   -0.9670 hc        1 FIT      0.086500
     41 H11        -0.1620    0.0710   -1.3510 hc        1 FIT      0.088000
     42 H11A       -1.0390    1.6540   -1.0740 hc        1 FIT      0.088000
     43 H13         3.1240    1.3330   -0.0180 hc        1 FIT      0.092000
     44 H14         3.1430   -0.3970    2.0840 hc        1 FIT      0.086000
     45 H14A        3.0630    1.3680    2.2580 hc        1 FIT      0.086000
     46 H15         1.3340   -0.7070    2.6520 hc        1 FIT      0.070500
     47 H15A        1.3720    0.9680    3.2680 hc        1 FIT      0.070500
     48 H16        -0.7320    1.5550    1.2650 hc        1 FIT      0.139000
     49 H17         0.4980    3.1860    1.8780 hc        1 FIT      0.081667
     50 H17A       -0.2600    3.5860    0.3860 hc        1 FIT      0.081667
     51 H17B        1.3730    3.4830    0.5500 hc        1 FIT      0.081667
     52 H18         4.1320   -0.2240   -1.8170 hc        1 FIT      0.082667
     53 H18A        3.6810   -1.8400   -1.8470 hc        1 FIT      0.082667
     54 H18B        3.8380   -0.9440   -0.5020 hc        1 FIT      0.082667
     55 H21        -4.3590   -1.2210    1.8240 hc        1 FIT      0.082778
     56 H21A       -2.9130   -1.9240    1.1540 hc        1 FIT      0.082778
     57 H21B       -2.7490   -0.5090    2.1860 hc        1 FIT      0.082778
     58 H22        -5.0560    1.3020    0.9510 hc        1 FIT      0.082778
     59 H22A       -3.4840    1.6290    1.3940 hc        1 FIT      0.082778
     60 H22B       -3.8760    2.0000   -0.0930 hc        1 FIT      0.082778
     61 H23        -4.2200   -1.6540   -0.9620 hc        1 FIT      0.082778
     62 H23A       -5.4120   -0.7110   -0.3370 hc        1 FIT      0.082778
     63 H23B       -4.4820   -0.1690   -1.6420 hc        1 FIT      0.082778
@<TRIPOS>BOND
     1    1    4 1   
     2    1   10 1   
     3    1   28 1   
     4    2    9 1   
     5    2   29 1   
     6    3   23 1   
     7    3   24 1   
     8    3   30 1   
     9    4    5 1   
    10    4   13 1   
    11    4   31 1   
    12    5    6 1   
    13    5   32 1   
    14    5   33 1   
    15    6   11 1   
    16    6   34 1   
    17    6   35 1   
    18    7   10 1   
    19    8   23 1   
    20    9   36 1   
    21   11   12 1   
    22   11   17 1   
    23   11   37 1   
    24   12   13 1   
    25   12   14 1   
    26   12   38 1   
    27   13   22 1   
    28   14   15 1   
    29   14   39 1   
    30   14   40 1   
    31   15   16 1   
    32   15   41 1   
    33   15   42 1   
    34   16   17 1   
    35   16   20 1   
    36   16   21 1   
    37   17   18 1   
    38   17   43 1   
    39   18   19 1   
    40   18   44 1   
    41   18   45 1   
    42   19   20 1   
    43   19   46 1   
    44   19   47 1   
    45   20   23 1   
    46   20   48 1   
    47   21   49 1   
    48   21   50 1   
    49   21   51 1   
    50   22   52 1   
    51   22   53 1   
    52   22   54 1   
    53   24   25 1   
    54   24   26 1   
    55   24   27 1   
    56   25   55 1   
    57   25   56 1   
    58   25   57 1   
    59   26   58 1   
    60   26   59 1   
    61   26   60 1   
    62   27   61 1   
    63   27   62 1   
    64   27   63 1   
@<TRIPOS>SUBSTRUCTURE
     1 FIT         1 TEMP              0 ****  ****    0 ROOT
