@<TRIPOS>MOLECULE
FIV
   20    21     1     0     0
SMALL
bcc


@<TRIPOS>ATOM
      1 O2         -3.1770   -1.5220    0.0000 o         1 FIV     -0.828800
      2 C11        -2.8720   -0.2960    0.0000 c         1 FIV      0.907200
      3 O1         -3.7120    0.6470    0.0000 o         1 FIV     -0.828800
      4 C7         -1.3940    0.0710    0.0010 ca        1 FIV     -0.121600
      5 C8         -1.0170    1.4390    0.0010 ca        1 FIV     -0.080000
      6 C3          0.3070    1.8050    0.0010 ca        1 FIV     -0.173000
      7 C5         -0.4190   -0.9020    0.0010 ca        1 FIV     -0.112000
      8 C2          0.9580   -0.5540    0.0010 ca        1 FIV     -0.047000
      9 C6          1.9810   -1.5410    0.0010 ca        1 FIV     -0.109000
     10 C10         3.3070   -1.1810    0.0010 ca        1 FIV     -0.161000
     11 C9          3.6740    0.1860    0.0010 ca        1 FIV     -0.155000
     12 C4          2.7070    1.1610    0.0010 ca        1 FIV     -0.121000
     13 C1          1.3280    0.8180    0.0010 ca        1 FIV     -0.043000
     14 H2         -1.8290    2.1850    0.0010 ha        1 FIV      0.156000
     15 H3          0.6000    2.8650    0.0010 ha        1 FIV      0.109000
     16 H4         -0.7190   -1.9620    0.0000 ha        1 FIV      0.153000
     17 H5          1.6840   -2.6010    0.0010 ha        1 FIV      0.124000
     18 H6          4.0960   -1.9450    0.0010 ha        1 FIV      0.110000
     19 H7          4.7400    0.4520    0.0010 ha        1 FIV      0.108000
     20 H8          2.9830    2.2260    0.0010 ha        1 FIV      0.114000
@<TRIPOS>BOND
     1    1    2 1   
     2    2    3 1   
     3    2    4 1   
     4    4    5 ar  
     5    4    7 ar  
     6    5    6 ar  
     7    5   14 1   
     8    6   13 ar  
     9    6   15 1   
    10    7    8 ar  
    11    7   16 1   
    12    8    9 ar  
    13    8   13 ar  
    14    9   10 ar  
    15    9   17 1   
    16   10   11 ar  
    17   10   18 1   
    18   11   12 ar  
    19   11   19 1   
    20   12   13 ar  
    21   12   20 1   
@<TRIPOS>SUBSTRUCTURE
     1 FIV         1 TEMP              0 ****  ****    0 ROOT
