@<TRIPOS>MOLECULE
FIV
   20    16     1     0     0
SMALL
bcc


@<TRIPOS>ATOM
      1 O2         -1.4230    0.9580    3.9920 o         1 FIV     -0.566000
      2 C11        -1.2920   -0.0680    3.2750 c1        1 FIV      0.356000
      3 O1         -1.7700   -1.1690    3.6570 os        1 FIV     -0.561000
      4 C7         -0.5670    0.0220    1.9510 c2        1 FIV     -0.101000
      5 C8          0.8230   -0.0180    1.9860 c2        1 FIV     -0.080000
      6 C3          1.5480   -0.0330    0.8020 c1        1 FIV     -0.173000
      7 C5         -1.2310    0.0470    0.7320 c1        1 FIV     -0.112000
      8 C2         -0.4980    0.0310   -0.4700 c1        1 FIV     -0.047000
      9 C6         -1.1690    0.0650   -1.7060 c2        1 FIV     -0.109000
     10 C10        -0.4450    0.0580   -2.8910 c1        1 FIV     -0.161000
     11 C9          0.9460    0.0180   -2.8560 c1        1 FIV     -0.138000
     12 C4          1.6100   -0.0150   -1.6360 c1        1 FIV     -0.138000
     13 C1          0.8760   -0.0090   -0.4350 c1        1 FIV     -0.043000
     14 H2          1.2900   -0.0300    2.8440 ha        1 FIV      0.156000
     15 H3          2.5230   -0.0490    0.8270 ha        1 FIV      0.109000
     16 H4         -2.2060    0.0860    0.7080 ha        1 FIV      0.153000
     17 H5         -2.1450    0.0740   -1.7310 ha        1 FIV      0.124000
     18 H6         -0.9110    0.0820   -3.7480 ha        1 FIV      0.110000
     19 H7          1.4550    0.0140   -3.6890 ha        1 FIV      0.111000
     20 H8          2.5850   -0.0630   -1.6120 ha        1 FIV      0.111000
@<TRIPOS>BOND
     1    1    2 1   
     2    2    4 1   
     3    4    5 1   
     4    4    7 1   
     5    5    6 1   
     6    5   14 1   
     7    6   15 1   
     8    7   16 1   
     9    8    9 1   
    10    8   13 1   
    11    9   10 1   
    12    9   17 1   
    13   10   18 1   
    14   11   12 1   
    15   11   19 1   
    16   12   20 1   
@<TRIPOS>SUBSTRUCTURE
     1 FIV         1 TEMP              0 ****  ****    0 ROOT
