@<TRIPOS>MOLECULE
FIX
   20    19     1     0     0
SMALL
bcc


@<TRIPOS>ATOM
      1 O1A        -2.7020    1.3780   -1.9360 o         1 FIX     -0.820300
      2 C1         -1.4540    1.2620   -2.0530 c         1 FIX      0.895600
      3 O1B        -0.9360    1.1580   -3.1950 o         1 FIX     -0.820300
      4 C2         -0.5780    1.2480   -0.8210 c3        1 FIX     -0.026900
      5 O2         -1.1180    2.1130    0.1490 oh        1 FIX     -0.655800
      6 C3         -0.5140   -0.1560   -0.2640 c3        1 FIX      0.137100
      7 O3         -0.8660   -1.0760   -1.2700 oh        1 FIX     -0.645800
      8 C4          0.8900   -0.4450    0.2140 c3        1 FIX      0.054100
      9 O4          1.6550   -0.9510   -0.8540 oh        1 FIX     -0.583800
     10 C5          0.8430   -1.4660    1.3280 c         1 FIX      0.437100
     11 O5          0.5480   -2.6190    1.0830 o         1 FIX     -0.509100
     12 C6          1.1620   -1.0530    2.7480 c         1 FIX      0.480900
     13 O6          0.2920   -1.0700    3.5980 o         1 FIX     -0.517100
     14 H2          0.3230    1.5450   -1.0580 h1        1 FIX      0.054700
     15 HO2        -0.6380    2.8610    0.1800 ho        1 FIX      0.437000
     16 H3         -1.1370   -0.2380    0.4850 h1        1 FIX      0.034700
     17 HO3        -1.6060   -1.5080   -1.0320 ho        1 FIX      0.468000
     18 H4          1.2980    0.3800    0.5460 h1        1 FIX      0.101700
     19 HO4         2.4690   -0.5930   -0.8310 ho        1 FIX      0.425000
     20 H6          2.0690   -0.7720    2.9830 h4        1 FIX      0.052200
@<TRIPOS>BOND
     1    1    2 1   
     2    2    3 1   
     3    2    4 1   
     4    4    5 1   
     5    4    6 1   
     6    4   14 1   
     7    5   15 1   
     8    6    7 1   
     9    6    8 1   
    10    6   16 1   
    11    7   17 1   
    12    8    9 1   
    13    8   10 1   
    14    8   18 1   
    15    9   19 1   
    16   10   11 2   
    17   10   12 1   
    18   12   13 2   
    19   12   20 1   
@<TRIPOS>SUBSTRUCTURE
     1 FIX         1 TEMP              0 ****  ****    0 ROOT
