@<TRIPOS>MOLECULE
FIX
   20    19     1     0     0
SMALL
bcc


@<TRIPOS>ATOM
      1 O1A        -2.9800   -0.7790   -0.9570 o         1 FIX     -0.822300
      2 C1         -2.6500   -0.3590    0.1870 c         1 FIX      0.894600
      3 O1B        -3.2130   -0.6670    1.2730 o         1 FIX     -0.822300
      4 C2         -1.4440    0.6140    0.2800 c3        1 FIX     -0.020900
      5 O2         -1.2060    1.0320    1.6110 oh        1 FIX     -0.639800
      6 C3         -0.1710   -0.0620   -0.2540 c3        1 FIX      0.131100
      7 O3         -0.2660   -0.4050   -1.6240 oh        1 FIX     -0.652800
      8 C4          1.0400    0.8910   -0.1310 c3        1 FIX      0.050100
      9 O4          1.0910    1.8260   -1.1850 oh        1 FIX     -0.584800
     10 C5          2.3290    0.0960   -0.0680 c         1 FIX      0.445100
     11 O5          3.1420    0.0330   -0.9920 o         1 FIX     -0.508100
     12 C6          2.5440   -0.6580    1.2160 c         1 FIX      0.482900
     13 O6          3.2730   -0.2570    2.1210 o         1 FIX     -0.511100
     14 H2         -1.6500    1.5380   -0.3250 h1        1 FIX      0.061700
     15 HO2        -1.8020    0.5180    2.1830 ho        1 FIX      0.433000
     16 H3          0.0250   -0.9970    0.3410 h1        1 FIX      0.030700
     17 HO3        -1.2010   -0.6000   -1.8210 ho        1 FIX      0.469000
     18 H4          0.9340    1.5090    0.8090 h1        1 FIX      0.118700
     19 HO4         0.9900    1.3310   -2.0110 ho        1 FIX      0.425000
     20 H6          1.9760   -1.6130    1.2890 h4        1 FIX      0.019200
@<TRIPOS>BOND
     1    1    2 1   
     2    2    3 1   
     3    2    4 1   
     4    4    5 1   
     5    4    6 1   
     6    4   14 1   
     7    5   15 1   
     8    6    7 1   
     9    6    8 1   
    10    6   16 1   
    11    7   17 1   
    12    8    9 1   
    13    8   10 1   
    14    8   18 1   
    15    9   19 1   
    16   10   11 2   
    17   10   12 1   
    18   12   13 2   
    19   12   20 1   
@<TRIPOS>SUBSTRUCTURE
     1 FIX         1 TEMP              0 ****  ****    0 ROOT
