@<TRIPOS>MOLECULE
FJ1
   27    28     1     0     0
SMALL
bcc


@<TRIPOS>ATOM
      1 C01         0.0390   -0.1110   -0.0930 c3        1 FJ1     -0.173400
      2 C02         1.5650   -0.0190   -0.0560 c3        1 FJ1     -0.039000
      3 C03         2.0940   -0.0810    1.3860 c3        1 FJ1     -0.020100
      4 C04        -0.5380   -1.3360    0.5750 c         1 FJ1      0.609700
      5 C05         0.1770   -1.7440    1.7730 cc        1 FJ1     -0.296900
      6 C06         1.4120   -1.1530    2.1340 cd        1 FJ1     -0.049600
      7 N07         1.8140   -1.7800    3.3120 na        1 FJ1      0.006400
      8 N08         0.9450   -2.7040    3.7170 nd        1 FJ1     -0.461800
      9 C09        -0.0750   -2.7200    2.8080 cc        1 FJ1      0.274600
     10 C10         1.9840    1.3160   -0.6590 c3        1 FJ1     -0.094600
     11 C11         2.1720   -1.1470   -0.8770 c3        1 FJ1     -0.094600
     12 O12        -1.5430   -1.9030    0.1380 o         1 FJ1     -0.510100
     13 C13        -1.2730   -3.6480    2.9090 c3        1 FJ1      0.633600
     14 F14        -1.3170   -4.5950    1.9180 f         1 FJ1     -0.223633
     15 F15        -1.3490   -4.3760    4.0710 f         1 FJ1     -0.223633
     16 F16        -2.4790   -3.0000    2.8430 f         1 FJ1     -0.223633
     17 H1         -0.4000    0.7850    0.4250 hc        1 FJ1      0.077700
     18 H2         -0.3020   -0.0870   -1.1620 hc        1 FJ1      0.077700
     19 H3          1.8990    0.9020    1.8980 hc        1 FJ1      0.067200
     20 H4          3.2050   -0.2410    1.3680 hc        1 FJ1      0.067200
     21 H5          2.6420   -1.6100    3.8360 hn        1 FJ1      0.334700
     22 H6          3.0950    1.4200   -0.6270 hc        1 FJ1      0.043533
     23 H7          1.6510    1.3770   -1.7220 hc        1 FJ1      0.043533
     24 H8          1.5290    2.1640   -0.0940 hc        1 FJ1      0.043533
     25 H9          3.2850   -1.0640   -0.8900 hc        1 FJ1      0.043533
     26 H10         1.8000   -1.1010   -1.9290 hc        1 FJ1      0.043533
     27 H11         1.8900   -2.1370   -0.4430 hc        1 FJ1      0.043533
@<TRIPOS>BOND
     1    1    2 1   
     2    1    4 1   
     3    1   17 1   
     4    1   18 1   
     5    2    3 1   
     6    2   10 1   
     7    2   11 1   
     8    3    6 1   
     9    3   19 1   
    10    3   20 1   
    11    4    5 1   
    12    4   12 2   
    13    5    6 2   
    14    5    9 1   
    15    6    7 1   
    16    7    8 1   
    17    7   21 1   
    18    8    9 2   
    19    9   13 1   
    20   10   22 1   
    21   10   23 1   
    22   10   24 1   
    23   11   25 1   
    24   11   26 1   
    25   11   27 1   
    26   13   14 1   
    27   13   15 1   
    28   13   16 1   
@<TRIPOS>SUBSTRUCTURE
     1 FJ1         1 TEMP              0 ****  ****    0 ROOT
