@<TRIPOS>MOLECULE
FJ1
   27    28     1     0     0
SMALL
bcc


@<TRIPOS>ATOM
      1 C01        -2.0820    1.2550   -0.5710 c3        1 FJ1     -0.173400
      2 C02        -2.8940    0.1600    0.1210 c3        1 FJ1     -0.039000
      3 C03        -2.3650   -1.2390   -0.2350 c3        1 FJ1     -0.020100
      4 C04        -0.5990    1.2190   -0.2880 c         1 FJ1      0.609700
      5 C05        -0.0530   -0.1240   -0.1840 cc        1 FJ1     -0.296900
      6 C06        -0.8930   -1.2630   -0.1520 cd        1 FJ1     -0.049600
      7 N07        -0.0480   -2.3660   -0.0410 na        1 FJ1      0.006400
      8 N08         1.2370   -2.0190   -0.0020 nd        1 FJ1     -0.461800
      9 C09         1.2870   -0.6570   -0.0860 cc        1 FJ1      0.274600
     10 C10        -4.3390    0.2550   -0.3530 c3        1 FJ1     -0.094600
     11 C11        -2.8520    0.3590    1.6290 c3        1 FJ1     -0.094600
     12 O12         0.0690    2.2520   -0.1860 o         1 FJ1     -0.510100
     13 C13         2.5810    0.1370   -0.0700 c3        1 FJ1      0.633600
     14 F14         2.7380    0.9070    1.0540 f         1 FJ1     -0.223633
     15 F15         3.7270   -0.6180   -0.1220 f         1 FJ1     -0.223633
     16 F16         2.7080    1.0060   -1.1240 f         1 FJ1     -0.223633
     17 H1         -2.2070    1.1630   -1.6840 hc        1 FJ1      0.077700
     18 H2         -2.4850    2.2570   -0.2650 hc        1 FJ1      0.077700
     19 H3         -2.8230   -1.9970    0.4550 hc        1 FJ1      0.067200
     20 H4         -2.6750   -1.5000   -1.2840 hc        1 FJ1      0.067200
     21 H5         -0.3080   -3.3250    0.0140 hn        1 FJ1      0.334700
     22 H6         -4.3990    0.1420   -1.4620 hc        1 FJ1      0.043533
     23 H7         -4.9540   -0.5460    0.1230 hc        1 FJ1      0.043533
     24 H8         -4.7690    1.2470   -0.0720 hc        1 FJ1      0.043533
     25 H9         -3.2460    1.3690    1.8950 hc        1 FJ1      0.043533
     26 H10        -3.4760   -0.4120    2.1410 hc        1 FJ1      0.043533
     27 H11        -1.8020    0.2770    2.0010 hc        1 FJ1      0.043533
@<TRIPOS>BOND
     1    1    2 1   
     2    1    4 1   
     3    1   17 1   
     4    1   18 1   
     5    2    3 1   
     6    2   10 1   
     7    2   11 1   
     8    3    6 1   
     9    3   19 1   
    10    3   20 1   
    11    4    5 1   
    12    4   12 2   
    13    5    6 2   
    14    5    9 1   
    15    6    7 1   
    16    7    8 1   
    17    7   21 1   
    18    8    9 2   
    19    9   13 1   
    20   10   22 1   
    21   10   23 1   
    22   10   24 1   
    23   11   25 1   
    24   11   26 1   
    25   11   27 1   
    26   13   14 1   
    27   13   15 1   
    28   13   16 1   
@<TRIPOS>SUBSTRUCTURE
     1 FJ1         1 TEMP              0 ****  ****    0 ROOT
