@<TRIPOS>MOLECULE
FJ1
   27    28     1     0     0
SMALL
bcc


@<TRIPOS>ATOM
      1 C01         0.0360   -0.1160   -0.0870 c3        1 FJ1     -0.173400
      2 C02         1.5620   -0.0190   -0.0530 c3        1 FJ1     -0.039000
      3 C03         2.0940   -0.0800    1.3880 c3        1 FJ1     -0.020100
      4 C04        -0.5350   -1.3430    0.5820 c         1 FJ1      0.609700
      5 C05         0.1840   -1.7500    1.7780 cc        1 FJ1     -0.296900
      6 C06         1.4170   -1.1550    2.1360 cd        1 FJ1     -0.049600
      7 N07         1.8230   -1.7810    3.3130 na        1 FJ1      0.006400
      8 N08         0.9580   -2.7080    3.7200 nd        1 FJ1     -0.461800
      9 C09        -0.0630   -2.7270    2.8130 cc        1 FJ1      0.274600
     10 C10         1.9760    1.3170   -0.6560 c3        1 FJ1     -0.094600
     11 C11         2.1710   -1.1460   -0.8760 c3        1 FJ1     -0.094600
     12 O12        -1.5400   -1.9130    0.1470 o         1 FJ1     -0.510100
     13 C13        -1.2580   -3.6590    2.9170 c3        1 FJ1      0.633600
     14 F14        -1.3030   -4.6050    1.9240 f         1 FJ1     -0.223633
     15 F15        -1.3290   -4.3880    4.0780 f         1 FJ1     -0.223633
     16 F16        -2.4670   -3.0140    2.8550 f         1 FJ1     -0.223633
     17 H1         -0.4040    0.7780    0.4320 hc        1 FJ1      0.077700
     18 H2         -0.3070   -0.0930   -1.1560 hc        1 FJ1      0.077700
     19 H3          3.2060   -0.2370    1.3670 hc        1 FJ1      0.067200
     20 H4          1.8970    0.9020    1.9010 hc        1 FJ1      0.067200
     21 H5          2.6520   -1.6090    3.8360 hn        1 FJ1      0.334700
     22 H6          1.5190    2.1640   -0.0900 hc        1 FJ1      0.043533
     23 H7          3.0870    1.4250   -0.6270 hc        1 FJ1      0.043533
     24 H8          1.6400    1.3770   -1.7190 hc        1 FJ1      0.043533
     25 H9          1.8930   -2.1360   -0.4410 hc        1 FJ1      0.043533
     26 H10         1.7970   -1.1000   -1.9270 hc        1 FJ1      0.043533
     27 H11         3.2840   -1.0590   -0.8910 hc        1 FJ1      0.043533
@<TRIPOS>BOND
     1    1    2 1   
     2    1    4 1   
     3    1   17 1   
     4    1   18 1   
     5    2    3 1   
     6    2   10 1   
     7    2   11 1   
     8    3    6 1   
     9    3   19 1   
    10    3   20 1   
    11    4    5 1   
    12    4   12 2   
    13    5    6 2   
    14    5    9 1   
    15    6    7 1   
    16    7    8 1   
    17    7   21 1   
    18    8    9 2   
    19    9   13 1   
    20   10   22 1   
    21   10   23 1   
    22   10   24 1   
    23   11   25 1   
    24   11   26 1   
    25   11   27 1   
    26   13   14 1   
    27   13   15 1   
    28   13   16 1   
@<TRIPOS>SUBSTRUCTURE
     1 FJ1         1 TEMP              0 ****  ****    0 ROOT
