@<TRIPOS>MOLECULE
FJ1
   27    25     1     0     0
SMALL
bcc


@<TRIPOS>ATOM
      1 C01        -0.8290    0.7920   -1.3350 c3        1 FJ1     -0.202000
      2 C02         0.6370    0.8310   -1.2800 c3        1 FJ1     -0.039000
      3 C03         1.2410    0.8940    0.0220 c3        1 FJ1     -0.106000
      4 C04        -1.3820   -0.2720   -0.5090 c1        1 FJ1      0.300000
      5 C05        -0.6710   -0.5940    0.8640 c1        1 FJ1     -0.211000
      6 C06         0.5660    0.0500    1.1510 c2        1 FJ1     -0.018000
      7 N07         0.9470   -0.3180    2.3960 n2        1 FJ1     -0.138000
      8 N08        -0.0310   -1.1900    2.9130 n2        1 FJ1     -0.029000
      9 C09        -1.0170   -1.3470    1.9570 c1        1 FJ1     -0.148000
     10 C10         1.0680    2.0840   -2.0210 c3        1 FJ1     -0.212500
     11 C11         1.1340   -0.4480   -1.9280 c3        1 FJ1     -0.212500
     12 O12        -2.4990   -0.6920   -0.7270 o         1 FJ1     -0.271000
     13 C13        -2.0540   -2.1490    2.7510 c2        1 FJ1      0.514000
     14 F14        -2.7970   -2.8860    1.9030 f         1 FJ1     -0.152333
     15 F15        -2.8490   -1.3070    3.4260 f         1 FJ1     -0.152333
     16 F16        -1.4260   -2.9600    3.6140 f         1 FJ1     -0.152333
     17 H1         -1.1580    1.7130   -1.2730 hc        1 FJ1      0.117000
     18 H2         -1.1420    0.5620   -2.2350 hc        1 FJ1      0.117000
     19 H3          1.2000    1.8330    0.3070 hc        1 FJ1      0.106500
     20 H4          2.1570    0.5580   -0.0740 hc        1 FJ1      0.106500
     21 H5          1.7050   -0.0490    2.8260 DU        1 FJ1      0.285000
     22 H6          2.0430    2.1640   -1.9880 hc        1 FJ1      0.082833
     23 H7          0.7760    2.0260   -2.9570 hc        1 FJ1      0.082833
     24 H8          0.6600    2.8710   -1.5990 hc        1 FJ1      0.082833
     25 H9          0.8040   -1.2180   -1.4230 hc        1 FJ1      0.082833
     26 H10         2.1140   -0.4530   -1.9310 hc        1 FJ1      0.082833
     27 H11         0.8040   -0.4960   -2.8500 hc        1 FJ1      0.082833
@<TRIPOS>BOND
     1    1    2 1   
     2    1    4 1   
     3    1   17 1   
     4    1   18 1   
     5    2    3 1   
     6    2   10 1   
     7    2   11 1   
     8    3    6 1   
     9    3   19 1   
    10    3   20 1   
    11    4   12 1   
    12    5    6 1   
    13    5    9 1   
    14    6    7 1   
    15    7    8 1   
    16    8    9 1   
    17   10   22 1   
    18   10   23 1   
    19   10   24 1   
    20   11   25 1   
    21   11   26 1   
    22   11   27 1   
    23   13   14 1   
    24   13   15 1   
    25   13   16 1   
@<TRIPOS>SUBSTRUCTURE
     1 FJ1         1 TEMP              0 ****  ****    0 ROOT
