@<TRIPOS>MOLECULE
FJ2
   41    43     1     0     0
SMALL
bcc


@<TRIPOS>ATOM
      1 C01         0.0850    0.2110   -0.0660 ca        1 FJ2      0.188100
      2 C02         1.0180   -0.7980    0.2110 ca        1 FJ2     -0.253000
      3 C03         1.6900   -0.7900    1.4390 ca        1 FJ2      0.192100
      4 C04         1.4420    0.2180    2.3980 ca        1 FJ2     -0.188500
      5 C05         0.5070    1.2130    2.1030 ca        1 FJ2     -0.022000
      6 C06        -0.1730    1.2170    0.8840 ca        1 FJ2     -0.112600
      7 O07         2.5930   -1.7660    1.7710 oh        1 FJ2     -0.474100
      8 O08        -0.5290    0.1330   -1.2890 oh        1 FJ2     -0.487100
      9 Cl9        -1.3040    2.4480    0.5660 cl        1 FJ2     -0.089400
     10 C10         2.1600    0.2470    3.6630 cc        1 FJ2      0.420800
     11 N11         3.5010    0.3560    3.7800 nd        1 FJ2     -0.348300
     12 O12         3.8400    0.3680    5.0540 os        1 FJ2     -0.083100
     13 C13         2.6720    0.2670    5.8560 cd        1 FJ2      0.391600
     14 C14         1.5650    0.1880    4.9990 cc        1 FJ2     -0.323600
     15 C15         0.1820    0.0520    5.3730 ca        1 FJ2     -0.035000
     16 N16         2.7700    0.2500    7.2250 ns        1 FJ2     -0.546400
     17 C17         3.9650    0.3320    7.9550 c         1 FJ2      0.663100
     18 C18         3.8270    0.2290    9.4530 c3        1 FJ2     -0.176100
     19 O19         5.0550    0.4890    7.3910 o         1 FJ2     -0.531100
     20 C20        -0.6310   -0.9180    4.7610 ca        1 FJ2     -0.094500
     21 C21        -1.9590   -1.0700    5.1300 ca        1 FJ2     -0.178000
     22 C22        -2.4960   -0.2390    6.1330 ca        1 FJ2      0.125100
     23 C23        -1.7020    0.7340    6.7510 ca        1 FJ2     -0.178000
     24 C24        -0.3700    0.8730    6.3650 ca        1 FJ2     -0.094500
     25 O25        -3.8230   -0.4750    6.4340 os        1 FJ2     -0.324900
     26 C26        -4.4110    0.3860    7.4020 c3        1 FJ2      0.112700
     27 H1          1.2100   -1.5770   -0.5400 ha        1 FJ2      0.160000
     28 H2          0.3090    2.0030    2.8460 ha        1 FJ2      0.162000
     29 H3          2.7240   -2.3340    0.9960 ho        1 FJ2      0.427000
     30 H4         -1.1430    0.8810   -1.3740 ho        1 FJ2      0.435000
     31 H5          1.9100    0.1010    7.7070 hn        1 FJ2      0.339500
     32 H6          3.3890   -0.7580    9.7390 hc        1 FJ2      0.073367
     33 H7          3.1790    1.0480    9.8470 hc        1 FJ2      0.073367
     34 H8          4.8440    0.3200    9.9080 hc        1 FJ2      0.073367
     35 H9         -0.2020   -1.5620    3.9760 ha        1 FJ2      0.139000
     36 H10        -2.6000   -1.8260    4.6550 ha        1 FJ2      0.145000
     37 H11        -2.1150    1.3920    7.5270 ha        1 FJ2      0.145000
     38 H12         0.2470    1.6530    6.8360 ha        1 FJ2      0.139000
     39 H13        -3.9050    0.2700    8.3900 h1        1 FJ2      0.045033
     40 H14        -4.3700    1.4490    7.0630 h1        1 FJ2      0.045033
     41 H15        -5.4710    0.0290    7.4570 h1        1 FJ2      0.045033
@<TRIPOS>BOND
     1    1    2 ar  
     2    1    6 ar  
     3    1    8 1   
     4    2    3 ar  
     5    2   27 1   
     6    3    4 ar  
     7    3    7 1   
     8    4    5 ar  
     9    4   10 1   
    10    5    6 ar  
    11    5   28 1   
    12    6    9 1   
    13    7   29 1   
    14    8   30 1   
    15   10   11 2   
    16   10   14 1   
    17   11   12 1   
    18   12   13 1   
    19   13   14 2   
    20   13   16 1   
    21   14   15 1   
    22   15   20 ar  
    23   15   24 ar  
    24   16   17 1   
    25   16   31 1   
    26   17   18 1   
    27   17   19 2   
    28   18   32 1   
    29   18   33 1   
    30   18   34 1   
    31   20   21 ar  
    32   20   35 1   
    33   21   22 ar  
    34   21   36 1   
    35   22   23 ar  
    36   22   25 1   
    37   23   24 ar  
    38   23   37 1   
    39   24   38 1   
    40   25   26 1   
    41   26   39 1   
    42   26   40 1   
    43   26   41 1   
@<TRIPOS>SUBSTRUCTURE
     1 FJ2         1 TEMP              0 ****  ****    0 ROOT
