@<TRIPOS>MOLECULE
FJ2
   42    44     1     0     0
SMALL
bcc


@<TRIPOS>ATOM
      1 C01         0.5040    0.4550    0.0740 ca        1 FJ2      0.218100
      2 C02         1.2380   -0.7070    0.3600 ca        1 FJ2     -0.249000
      3 C03         1.7720   -0.8810    1.6400 ca        1 FJ2      0.207100
      4 C04         1.5790    0.0930    2.6460 ca        1 FJ2     -0.250500
      5 C05         0.8450    1.2450    2.3440 ca        1 FJ2     -0.014000
      6 C06         0.3030    1.4330    1.0750 ca        1 FJ2     -0.114600
      7 O07         2.4790   -2.0010    1.9880 oh        1 FJ2     -0.491100
      8 O08         0.0180    0.5480   -1.1970 oh        1 FJ2     -0.468100
      9 CL9        -0.5830    2.8420    0.7470 cl        1 FJ2     -0.058400
     10 C10         2.1740   -0.0760    3.9590 cc        1 FJ2      0.429800
     11 N11         3.5010   -0.1610    4.1970 nd        1 FJ2     -0.262300
     12 O12         3.7280   -0.3210    5.4790 os        1 FJ2     -0.114100
     13 C13         2.4760   -0.3380    6.1710 cd        1 FJ2      0.177600
     14 C14         1.4480   -0.1850    5.2460 cc        1 FJ2     -0.059600
     15 C15         0.0360   -0.1760    5.4940 ca        1 FJ2     -0.151000
     16 N16         2.5140   -0.5590    7.5810 n4        1 FJ2     -0.625500
     17 C17         2.9600    0.7010    8.3430 c         1 FJ2      0.572100
     18 C18         4.4070    1.0220    8.2610 c3        1 FJ2     -0.186100
     19 O19         2.0570    1.2700    8.9300 o         1 FJ2     -0.404100
     20 C20        -0.8410   -0.8140    4.5940 ca        1 FJ2     -0.060000
     21 C21        -2.2040   -0.8390    4.8320 ca        1 FJ2     -0.183500
     22 C22        -2.7210   -0.2020    5.9820 ca        1 FJ2      0.184100
     23 C23        -1.8590    0.4510    6.8790 ca        1 FJ2     -0.183500
     24 C24        -0.4930    0.4570    6.6310 ca        1 FJ2     -0.060000
     25 O25        -4.0800   -0.2830    6.1250 os        1 FJ2     -0.303900
     26 C26        -4.6540    0.3850    7.2490 c3        1 FJ2      0.105700
     27 H1          1.3870   -1.4590   -0.4300 ha        1 FJ2      0.176000
     28 H2          0.6970    2.0150    3.1200 ha        1 FJ2      0.158000
     29 H3          2.6040   -2.5460    1.1940 ho        1 FJ2      0.445000
     30 H4         -0.4520    1.3940   -1.2970 ho        1 FJ2      0.448000
     31 H5          3.1710   -1.3260    7.7790 hn        1 FJ2      0.476300
     32 H6          4.7850    0.9560    7.2060 hc        1 FJ2      0.122700
     33 H7          4.9930    0.3150    8.9040 hc        1 FJ2      0.122700
     34 H8          4.5620    2.0680    8.6400 hc        1 FJ2      0.122700
     35 H9         -0.4310   -1.2980    3.6910 ha        1 FJ2      0.142000
     36 H10        -2.8960   -1.3410    4.1380 ha        1 FJ2      0.166500
     37 H11        -2.2560    0.9650    7.7670 ha        1 FJ2      0.166500
     38 H12         0.1690    1.0050    7.3220 ha        1 FJ2      0.142000
     39 H13        -4.2740   -0.0570    8.2020 h1        1 FJ2      0.060033
     40 H14        -4.4410    1.4800    7.2050 h1        1 FJ2      0.060033
     41 H15        -5.7500    0.1870    7.1270 h1        1 FJ2      0.060033
     42 H162        1.5600   -0.8270    7.8780 hn        1 FJ2      0.476300
@<TRIPOS>BOND
     1    1    2 ar  
     2    1    6 ar  
     3    1    8 1   
     4    2    3 ar  
     5    2   27 1   
     6    3    4 ar  
     7    3    7 1   
     8    4    5 ar  
     9    4   10 1   
    10    5    6 ar  
    11    5   28 1   
    12    6    9 1   
    13    7   29 1   
    14    8   30 1   
    15   10   11 2   
    16   10   14 1   
    17   11   12 1   
    18   12   13 1   
    19   13   14 2   
    20   13   16 1   
    21   14   15 1   
    22   15   20 ar  
    23   15   24 ar  
    24   16   17 1   
    25   16   31 1   
    26   16   42 1   
    27   17   18 1   
    28   17   19 2   
    29   18   32 1   
    30   18   33 1   
    31   18   34 1   
    32   20   21 ar  
    33   20   35 1   
    34   21   22 ar  
    35   21   36 1   
    36   22   23 ar  
    37   22   25 1   
    38   23   24 ar  
    39   23   37 1   
    40   24   38 1   
    41   25   26 1   
    42   26   39 1   
    43   26   40 1   
    44   26   41 1   
@<TRIPOS>SUBSTRUCTURE
     1 FJ2         1 TEMP              0 ****  ****    0 ROOT
