@<TRIPOS>MOLECULE
FJ3
   31    32     1     0     0
SMALL
bcc


@<TRIPOS>ATOM
      1 C01        -0.0040    0.0230   -0.0230 ca        1 FJ3      0.177100
      2 C02         1.3940   -0.0390   -0.0560 ca        1 FJ3     -0.310000
      3 C03         2.1090   -0.0950    1.1470 ca        1 FJ3      0.184100
      4 C04         1.4380   -0.0920    2.3890 ca        1 FJ3     -0.188500
      5 C05         0.0370   -0.0310    2.3820 ca        1 FJ3     -0.034000
      6 C06        -0.7040    0.0280    1.2010 ca        1 FJ3     -0.133300
      7 C07        -2.1980    0.0940    1.2360 c3        1 FJ3     -0.015400
      8 O08        -0.7450    0.0810   -1.1800 oh        1 FJ3     -0.491100
      9 O09         3.4830   -0.1540    1.1490 oh        1 FJ3     -0.492100
     10 C10         2.1560   -0.1490    3.6500 cc        1 FJ3      0.418800
     11 N11         1.6460   -0.6160    4.8160 nd        1 FJ3     -0.389300
     12 O12         2.5550   -0.5160    5.7640 os        1 FJ3     -0.144100
     13 C13         3.7500    0.0610    5.2260 cd        1 FJ3      0.454600
     14 C14         3.5260    0.3020    3.8750 cc        1 FJ3     -0.397600
     15 N15         4.7800    0.3310    6.0970 nv        1 FJ3     -0.896500
     16 C16        -2.7810   -1.1430    1.8930 c3        1 FJ3     -0.088600
     17 C17        -2.6700    1.3460    1.9510 c3        1 FJ3     -0.088600
     18 H1          1.9270   -0.0450   -1.0170 ha        1 FJ3      0.136000
     19 H2         -0.5060   -0.0290    3.3430 ha        1 FJ3      0.160000
     20 H3         -2.5800    0.1360    0.1740 hc        1 FJ3      0.069700
     21 H4         -0.1330    0.0690   -1.9310 ho        1 FJ3      0.421000
     22 H5          3.7820   -0.2030    0.2280 ho        1 FJ3      0.420000
     23 H6          4.1920    0.7240    3.1320 ha        1 FJ3      0.187000
     24 H7          4.6840   -0.0980    6.9930 hn        1 FJ3      0.409800
     25 H8          5.6830    0.2160    5.6870 hn        1 FJ3      0.409800
     26 H9         -3.8970   -1.0920    1.8770 hc        1 FJ3      0.036367
     27 H10        -2.4580   -2.0620    1.3480 hc        1 FJ3      0.036367
     28 H11        -2.4450   -1.2240    2.9550 hc        1 FJ3      0.036367
     29 H12        -2.2640    2.2570    1.4500 hc        1 FJ3      0.036367
     30 H13        -2.3340    1.3460    3.0160 hc        1 FJ3      0.036367
     31 H14        -3.7860    1.3970    1.9320 hc        1 FJ3      0.036367
@<TRIPOS>BOND
     1    1    2 ar  
     2    1    6 ar  
     3    1    8 1   
     4    2    3 ar  
     5    2   18 1   
     6    3    4 ar  
     7    3    9 1   
     8    4    5 ar  
     9    4   10 1   
    10    5    6 ar  
    11    5   19 1   
    12    6    7 1   
    13    7   16 1   
    14    7   17 1   
    15    7   20 1   
    16    8   21 1   
    17    9   22 1   
    18   10   11 2   
    19   10   14 1   
    20   11   12 1   
    21   12   13 1   
    22   13   14 2   
    23   13   15 1   
    24   14   23 1   
    25   15   24 1   
    26   15   25 1   
    27   16   26 1   
    28   16   27 1   
    29   16   28 1   
    30   17   29 1   
    31   17   30 1   
    32   17   31 1   
@<TRIPOS>SUBSTRUCTURE
     1 FJ3         1 TEMP              0 ****  ****    0 ROOT
