@<TRIPOS>MOLECULE
FJ3
   32    33     1     0     0
SMALL
bcc


@<TRIPOS>ATOM
      1 C01        -0.0160   -0.0490   -0.0210 ca        1 FJ3      0.217100
      2 C02         1.3850   -0.0160   -0.0540 ca        1 FJ3     -0.308000
      3 C03         2.0980    0.0460    1.1480 ca        1 FJ3      0.204100
      4 C04         1.4270    0.0800    2.3890 ca        1 FJ3     -0.252500
      5 C05         0.0180    0.0490    2.3850 ca        1 FJ3     -0.019000
      6 C06        -0.7190   -0.0180    1.2090 ca        1 FJ3     -0.118300
      7 C07        -2.2160   -0.0530    1.2390 c3        1 FJ3     -0.022400
      8 O08        -0.7600   -0.1130   -1.1650 oh        1 FJ3     -0.469100
      9 O09         3.4730    0.0770    1.1560 oh        1 FJ3     -0.526100
     10 C10         2.1410    0.1590    3.6430 cc        1 FJ3      0.445800
     11 N11         1.6250    0.5820    4.8260 nd        1 FJ3     -0.296300
     12 O12         2.5350    0.5180    5.7680 os        1 FJ3     -0.095100
     13 C13         3.7520    0.0300    5.2000 cd        1 FJ3      0.191600
     14 C14         3.5500   -0.2150    3.8570 cc        1 FJ3     -0.188600
     15 N15         4.8580   -0.0920    6.0990 n4        1 FJ3     -0.772300
     16 C16        -2.7140   -1.2840    1.9730 c3        1 FJ3     -0.090600
     17 C17        -2.7750    1.2070    1.8710 c3        1 FJ3     -0.090600
     18 H1          1.9190   -0.0370   -1.0140 ha        1 FJ3      0.153000
     19 H2         -0.5290    0.0750    3.3440 ha        1 FJ3      0.163000
     20 H3         -2.5950   -0.1060    0.1760 hc        1 FJ3      0.081700
     21 H4         -0.1620   -0.1220   -1.9300 ho        1 FJ3      0.437000
     22 H5          3.7840    0.1210    0.2370 ho        1 FJ3      0.445000
     23 H6          4.2320   -0.5900    3.0910 ha        1 FJ3      0.223000
     24 H7          5.0750    0.8320    6.5030 hn        1 FJ3      0.480800
     25 H8          5.6740   -0.4500    5.5870 hn        1 FJ3      0.480800
     26 H9         -3.8310   -1.3120    1.9460 hc        1 FJ3      0.041367
     27 H10        -2.3230   -2.2120    1.4930 hc        1 FJ3      0.041367
     28 H11        -2.3880   -1.2700    3.0410 hc        1 FJ3      0.041367
     29 H12        -2.4280    2.1110    1.3150 hc        1 FJ3      0.041367
     30 H13        -2.4500    1.2970    2.9360 hc        1 FJ3      0.041367
     31 H14        -3.8910    1.1790    1.8440 hc        1 FJ3      0.041367
     32 H153        4.6110   -0.7400    6.8620 hn        1 FJ3      0.480800
@<TRIPOS>BOND
     1    1    2 ar  
     2    1    6 ar  
     3    1    8 1   
     4    2    3 ar  
     5    2   18 1   
     6    3    4 ar  
     7    3    9 1   
     8    4    5 ar  
     9    4   10 1   
    10    5    6 ar  
    11    5   19 1   
    12    6    7 1   
    13    7   16 1   
    14    7   17 1   
    15    7   20 1   
    16    8   21 1   
    17    9   22 1   
    18   10   11 2   
    19   10   14 1   
    20   11   12 1   
    21   12   13 1   
    22   13   14 2   
    23   13   15 1   
    24   14   23 1   
    25   15   24 1   
    26   15   25 1   
    27   15   32 1   
    28   16   26 1   
    29   16   27 1   
    30   16   28 1   
    31   17   29 1   
    32   17   30 1   
    33   17   31 1   
@<TRIPOS>SUBSTRUCTURE
     1 FJ3         1 TEMP              0 ****  ****    0 ROOT
