@<TRIPOS>MOLECULE
FJ4
   33    34     1     0     0
SMALL
bcc


@<TRIPOS>ATOM
      1 C01        -0.6950   -0.3910    0.8470 ca        1 FJ4     -0.254000
      2 C02         0.5470   -0.9810    0.5720 ca        1 FJ4      0.195100
      3 C03         1.6530   -0.7220    1.4050 ca        1 FJ4     -0.116600
      4 C04        -0.8180    0.4600    1.9510 ca        1 FJ4      0.209100
      5 C05         0.2830    0.7250    2.7950 ca        1 FJ4     -0.216600
      6 C06         1.5080    0.1240    2.5060 ca        1 FJ4     -0.025000
      7 C07         0.5720    1.0770    5.2920 c3        1 FJ4     -0.124100
      8 C08         0.1530    1.6390    3.9530 c         1 FJ4      0.599700
      9 O09        -0.2540    2.7970    3.8370 o         1 FJ4     -0.508100
     10 O10        -2.0090    1.0530    2.2740 oh        1 FJ4     -0.471100
     11 O11         0.5880   -1.7970   -0.5270 oh        1 FJ4     -0.485100
     12 C12        -0.5930    0.5580    6.0600 ca        1 FJ4     -0.116300
     13 C13        -1.6770    1.4010    6.3460 ca        1 FJ4     -0.086500
     14 C14        -2.7540    0.9420    7.0920 ca        1 FJ4     -0.179500
     15 C15        -2.7490   -0.3860    7.5610 ca        1 FJ4      0.126100
     16 C16        -1.6750   -1.2370    7.2800 ca        1 FJ4     -0.179500
     17 C17        -0.6030   -0.7570    6.5280 ca        1 FJ4     -0.086500
     18 O18        -3.8630   -0.7460    8.2940 os        1 FJ4     -0.326900
     19 C19        -3.8870   -2.0800    8.7850 c3        1 FJ4      0.113700
     20 CL          3.1690   -1.4260    1.0870 cl        1 FJ4     -0.088400
     21 H1         -1.5500   -0.6020    0.1900 ha        1 FJ4      0.162000
     22 H2          2.3800    0.3290    3.1500 ha        1 FJ4      0.153000
     23 H3          1.0590    1.9010    5.8840 hc        1 FJ4      0.068700
     24 H4          1.3320    0.2660    5.1420 hc        1 FJ4      0.068700
     25 H5         -2.6630    0.8120    1.6000 ho        1 FJ4      0.429000
     26 H6          1.4920   -2.1380   -0.6250 ho        1 FJ4      0.436000
     27 H7         -1.6710    2.4350    5.9620 ha        1 FJ4      0.142500
     28 H8         -3.6090    1.5940    7.3200 ha        1 FJ4      0.144000
     29 H9         -1.6630   -2.2750    7.6410 ha        1 FJ4      0.144000
     30 H10         0.2410   -1.4280    6.3070 ha        1 FJ4      0.142500
     31 H11        -3.0310   -2.2620    9.4790 h1        1 FJ4      0.044033
     32 H12        -3.8690   -2.8120    7.9410 h1        1 FJ4      0.044033
     33 H13        -4.8610   -2.1370    9.3360 h1        1 FJ4      0.044033
@<TRIPOS>BOND
     1    1    2 ar  
     2    1    4 ar  
     3    1   21 1   
     4    2    3 ar  
     5    2   11 1   
     6    3    6 ar  
     7    3   20 1   
     8    4    5 ar  
     9    4   10 1   
    10    5    6 ar  
    11    5    8 1   
    12    6   22 1   
    13    7    8 1   
    14    7   12 1   
    15    7   23 1   
    16    7   24 1   
    17    8    9 2   
    18   10   25 1   
    19   11   26 1   
    20   12   13 ar  
    21   12   17 ar  
    22   13   14 ar  
    23   13   27 1   
    24   14   15 ar  
    25   14   28 1   
    26   15   16 ar  
    27   15   18 1   
    28   16   17 ar  
    29   16   29 1   
    30   17   30 1   
    31   18   19 1   
    32   19   31 1   
    33   19   32 1   
    34   19   33 1   
@<TRIPOS>SUBSTRUCTURE
     1 FJ4         1 TEMP              0 ****  ****    0 ROOT
