@<TRIPOS>MOLECULE
FJ4
   33    34     1     0     0
SMALL
bcc


@<TRIPOS>ATOM
      1 C01        -0.7210    0.3010    0.8140 ca        1 FJ4     -0.254000
      2 C02         0.5330    0.8250    0.4700 ca        1 FJ4      0.195100
      3 C03         1.6650    0.5250    1.2540 ca        1 FJ4     -0.115600
      4 C04        -0.8310   -0.5260    1.9380 ca        1 FJ4      0.209100
      5 C05         0.2960   -0.8330    2.7320 ca        1 FJ4     -0.216600
      6 C06         1.5330   -0.2960    2.3740 ca        1 FJ4     -0.025000
      7 C07         0.6940   -1.1610    5.2170 c3        1 FJ4     -0.124100
      8 C08         0.1800   -1.7210    3.9100 c         1 FJ4      0.599700
      9 O09        -0.2880   -2.8600    3.8350 o         1 FJ4     -0.510100
     10 O10        -2.0330   -1.0550    2.3280 oh        1 FJ4     -0.472100
     11 O11         0.5600    1.6210   -0.6440 oh        1 FJ4     -0.485100
     12 C12        -0.4110   -0.6340    6.0630 ca        1 FJ4     -0.117300
     13 C13        -0.3760    0.6860    6.5300 ca        1 FJ4     -0.086000
     14 C14        -1.3850    1.1750    7.3500 ca        1 FJ4     -0.180000
     15 C15        -2.4500    0.3290    7.7090 ca        1 FJ4      0.126100
     16 C16        -2.5000   -0.9920    7.2460 ca        1 FJ4     -0.180000
     17 C17        -1.4780   -1.4630    6.4250 ca        1 FJ4     -0.086000
     18 O18        -3.4010    0.9080    8.5270 os        1 FJ4     -0.327900
     19 C19        -4.4920    0.0770    8.9060 c3        1 FJ4      0.113700
     20 Cl          3.1950    1.1490    0.8510 cl        1 FJ4     -0.088400
     21 H1         -1.5960    0.5440    0.1950 ha        1 FJ4      0.162000
     22 H2          2.4240   -0.5340    2.9800 ha        1 FJ4      0.154000
     23 H3          1.4470   -0.3550    5.0140 hc        1 FJ4      0.068700
     24 H4          1.2160   -1.9880    5.7730 hc        1 FJ4      0.068700
     25 H5         -2.7060   -0.7900    1.6820 ho        1 FJ4      0.428000
     26 H6          1.4730    1.9190   -0.7890 ho        1 FJ4      0.436000
     27 H7          0.4580    1.3470    6.2470 ha        1 FJ4      0.142500
     28 H8         -1.3650    2.2080    7.7230 ha        1 FJ4      0.144000
     29 H9         -3.3300   -1.6580    7.5170 ha        1 FJ4      0.144000
     30 H10        -1.5110   -2.4980    6.0440 ha        1 FJ4      0.142500
     31 H11        -4.1320   -0.8070    9.4870 h1        1 FJ4      0.044367
     32 H12        -5.0680   -0.2520    8.0080 h1        1 FJ4      0.044367
     33 H13        -5.1160    0.7460    9.5520 h1        1 FJ4      0.044367
@<TRIPOS>BOND
     1    1    2 ar  
     2    1    4 ar  
     3    1   21 1   
     4    2    3 ar  
     5    2   11 1   
     6    3    6 ar  
     7    3   20 1   
     8    4    5 ar  
     9    4   10 1   
    10    5    6 ar  
    11    5    8 1   
    12    6   22 1   
    13    7    8 1   
    14    7   12 1   
    15    7   23 1   
    16    7   24 1   
    17    8    9 2   
    18   10   25 1   
    19   11   26 1   
    20   12   13 ar  
    21   12   17 ar  
    22   13   14 ar  
    23   13   27 1   
    24   14   15 ar  
    25   14   28 1   
    26   15   16 ar  
    27   15   18 1   
    28   16   17 ar  
    29   16   29 1   
    30   17   30 1   
    31   18   19 1   
    32   19   31 1   
    33   19   32 1   
    34   19   33 1   
@<TRIPOS>SUBSTRUCTURE
     1 FJ4         1 TEMP              0 ****  ****    0 ROOT
