@<TRIPOS>MOLECULE
FJ5
   66    70     1     0     0
SMALL
bcc


@<TRIPOS>ATOM
      1 C01         0.0670   -0.0460    0.0280 ca        1 FJ5     -0.195500
      2 C02         1.4370    0.2380    0.0190 ca        1 FJ5     -0.034000
      3 C03         2.1950    0.2630    1.1910 ca        1 FJ5     -0.133300
      4 C04         1.5400   -0.0080    2.4110 ca        1 FJ5      0.176100
      5 C05         0.1710   -0.2990    2.4550 ca        1 FJ5     -0.310000
      6 C06        -0.5620   -0.3160    1.2610 ca        1 FJ5      0.188100
      7 O07        -1.9000   -0.6180    1.2370 oh        1 FJ5     -0.478100
      8 O08         2.3000    0.0220    3.5580 oh        1 FJ5     -0.493100
      9 C09         3.6570    0.5760    1.1520 c3        1 FJ5     -0.014400
     10 C10        -0.6910   -0.0280   -1.2140 cc        1 FJ5      0.427800
     11 C11         4.4120   -0.4550    0.3350 c3        1 FJ5     -0.088100
     12 C12         3.8990    1.9700    0.6020 c3        1 FJ5     -0.088100
     13 N13        -1.6890    0.8390   -1.4880 nd        1 FJ5     -0.353300
     14 O14        -2.1670    0.6070   -2.6960 os        1 FJ5     -0.084100
     15 C15        -1.4570   -0.4710   -3.2860 cd        1 FJ5      0.397600
     16 C16        -0.4940   -0.9110   -2.3650 cc        1 FJ5     -0.333600
     17 C17         0.4320   -2.0010   -2.5250 ca        1 FJ5      0.009000
     18 C18         0.6300   -2.9250   -1.4870 ca        1 FJ5     -0.132500
     19 C19         1.5060   -3.9940   -1.6510 ca        1 FJ5     -0.115000
     20 C20         2.2030   -4.1610   -2.8520 ca        1 FJ5     -0.090300
     21 C21         2.0150   -3.2390   -3.8870 ca        1 FJ5     -0.115000
     22 C22         1.1390   -2.1690   -3.7260 ca        1 FJ5     -0.132500
     23 C23         3.1850   -5.2850   -3.0000 c3        1 FJ5      0.214100
     24 N24         2.9770   -6.0960   -4.1950 n3        1 FJ5     -0.725600
     25 N25        -1.7830   -0.9070   -4.5460 ns        1 FJ5     -0.539400
     26 C26        -2.7910   -0.3610   -5.3540 c         1 FJ5      0.695100
     27 O27        -3.4460    0.6220   -4.9780 o         1 FJ5     -0.540100
     28 C28        -3.0070   -1.0280   -6.6750 cx        1 FJ5     -0.231700
     29 C29        -4.4240   -1.0880   -7.1980 cx        1 FJ5     -0.098400
     30 C30        -3.4410   -0.1550   -7.8300 cx        1 FJ5     -0.098400
     31 C31         1.6990   -6.7970   -4.1840 c3        1 FJ5      0.130300
     32 C32         1.5200   -7.7040   -5.4060 c3        1 FJ5      0.126900
     33 O33         2.6160   -8.5990   -5.5610 os        1 FJ5     -0.415600
     34 C34         3.8610   -7.9140   -5.6410 c3        1 FJ5      0.126900
     35 C35         4.0920   -7.0080   -4.4260 c3        1 FJ5      0.130300
     36 H1          1.9310    0.4520   -0.9430 ha        1 FJ5      0.151000
     37 H2         -0.3250   -0.5060    3.4120 ha        1 FJ5      0.137000
     38 H3         -2.2120   -0.6770    2.1530 ho        1 FJ5      0.421000
     39 H4          1.7160   -0.1580    4.3100 ho        1 FJ5      0.421000
     40 H5          4.0590    0.5460    2.2070 hc        1 FJ5      0.070700
     41 H6          4.2600   -1.4760    0.7600 hc        1 FJ5      0.035867
     42 H7          4.0610   -0.4560   -0.7250 hc        1 FJ5      0.035867
     43 H8          5.5050   -0.2230    0.3470 hc        1 FJ5      0.035867
     44 H9          3.3650    2.7300    1.2190 hc        1 FJ5      0.035867
     45 H10         4.9920    2.2000    0.6180 hc        1 FJ5      0.035867
     46 H11         3.5360    2.0490   -0.4510 hc        1 FJ5      0.035867
     47 H12         0.0870   -2.7940   -0.5380 ha        1 FJ5      0.138000
     48 H13         1.6480   -4.7100   -0.8280 ha        1 FJ5      0.139000
     49 H14         2.5660   -3.3610   -4.8320 ha        1 FJ5      0.139000
     50 H15         1.0230   -1.4360   -4.5380 ha        1 FJ5      0.138000
     51 H16         4.2170   -4.8330   -3.0780 h1        1 FJ5      0.041200
     52 H17         3.1640   -5.9200   -2.0630 h1        1 FJ5      0.041200
     53 H19        -1.2800   -1.7100   -4.8580 hn        1 FJ5      0.341500
     54 H20        -2.3360   -1.8820   -6.8920 hc        1 FJ5      0.091700
     55 H21        -5.2310   -0.6630   -6.5710 hc        1 FJ5      0.087200
     56 H22        -4.7420   -1.9970   -7.7380 hc        1 FJ5      0.087200
     57 H23        -3.5500    0.9320   -7.6520 hc        1 FJ5      0.087200
     58 H24        -3.0390   -0.3810   -8.8330 hc        1 FJ5      0.087200
     59 H25         1.5790   -7.4270   -3.2540 h1        1 FJ5      0.042700
     60 H26         0.8850   -6.0200   -4.1850 h1        1 FJ5      0.042700
     61 H27         1.3990   -7.0950   -6.3400 h1        1 FJ5      0.053200
     62 H28         0.6320   -8.3740   -5.2630 h1        1 FJ5      0.053200
     63 H29         4.6280   -8.7310   -5.6640 h1        1 FJ5      0.053200
     64 H30         3.9010   -7.3190   -6.5910 h1        1 FJ5      0.053200
     65 H31         4.2880   -7.6620   -3.5260 h1        1 FJ5      0.042700
     66 H32         5.0120   -6.3890   -4.6130 h1        1 FJ5      0.042700
@<TRIPOS>BOND
     1    1    2 ar  
     2    1    6 ar  
     3    1   10 1   
     4    2    3 ar  
     5    2   36 1   
     6    3    4 ar  
     7    3    9 1   
     8    4    5 ar  
     9    4    8 1   
    10    5    6 ar  
    11    5   37 1   
    12    6    7 1   
    13    7   38 1   
    14    8   39 1   
    15    9   11 1   
    16    9   12 1   
    17    9   40 1   
    18   10   13 2   
    19   10   16 1   
    20   11   41 1   
    21   11   42 1   
    22   11   43 1   
    23   12   44 1   
    24   12   45 1   
    25   12   46 1   
    26   13   14 1   
    27   14   15 1   
    28   15   16 2   
    29   15   25 1   
    30   16   17 1   
    31   17   18 ar  
    32   17   22 ar  
    33   18   19 ar  
    34   18   47 1   
    35   19   20 ar  
    36   19   48 1   
    37   20   21 ar  
    38   20   23 1   
    39   21   22 ar  
    40   21   49 1   
    41   22   50 1   
    42   23   24 1   
    43   23   51 1   
    44   23   52 1   
    45   24   31 1   
    46   24   35 1   
    47   25   26 1   
    48   25   53 1   
    49   26   27 2   
    50   26   28 1   
    51   28   29 1   
    52   28   30 1   
    53   28   54 1   
    54   29   30 1   
    55   29   55 1   
    56   29   56 1   
    57   30   57 1   
    58   30   58 1   
    59   31   32 1   
    60   31   59 1   
    61   31   60 1   
    62   32   33 1   
    63   32   61 1   
    64   32   62 1   
    65   33   34 1   
    66   34   35 1   
    67   34   63 1   
    68   34   64 1   
    69   35   65 1   
    70   35   66 1   
@<TRIPOS>SUBSTRUCTURE
     1 FJ5         1 TEMP              0 ****  ****    0 ROOT
