@<TRIPOS>MOLECULE
FJ5
   67    71     1     0     0
SMALL
bcc


@<TRIPOS>ATOM
      1 C01         0.1630    0.3220   -0.6000 ca        1 FJ5     -0.253500
      2 C02         1.5360    0.3040   -0.3140 ca        1 FJ5     -0.028000
      3 C03         2.0140    0.2990    0.9930 ca        1 FJ5     -0.123300
      4 C04         1.0700    0.3130    2.0490 ca        1 FJ5      0.205100
      5 C05        -0.3070    0.3270    1.7940 ca        1 FJ5     -0.308000
      6 C06        -0.7570    0.3350    0.4680 ca        1 FJ5      0.206100
      7 O07        -2.0910    0.3250    0.1500 oh        1 FJ5     -0.495100
      8 O08         1.5620    0.3070    3.3260 oh        1 FJ5     -0.476100
      9 C09         3.4830    0.2930    1.2760 c3        1 FJ5     -0.020400
     10 C10        -0.2990    0.3730   -1.9750 cc        1 FJ5      0.439800
     11 C11         4.1380   -0.9600    0.7250 c3        1 FJ5     -0.088600
     12 C12         4.1500    1.5340    0.7110 c3        1 FJ5     -0.088600
     13 N13        -1.0510    1.3640   -2.5020 nd        1 FJ5     -0.271300
     14 O14        -1.3090    1.1210   -3.7660 os        1 FJ5     -0.110100
     15 C15        -0.6970   -0.1160   -4.1330 cd        1 FJ5      0.203600
     16 C16        -0.0320   -0.6320   -3.0270 cc        1 FJ5     -0.085600
     17 C17         0.7170   -1.8580   -2.9510 ca        1 FJ5     -0.099000
     18 C18         0.5210   -2.7470   -1.8850 ca        1 FJ5     -0.104000
     19 C19         1.2240   -3.9490   -1.8380 ca        1 FJ5     -0.112500
     20 C20         2.1420   -4.2740   -2.8420 ca        1 FJ5     -0.034300
     21 C21         2.3540   -3.3770   -3.8980 ca        1 FJ5     -0.112500
     22 C22         1.6460   -2.1830   -3.9560 ca        1 FJ5     -0.104000
     23 C23         2.9360   -5.5460   -2.7450 c3        1 FJ5      0.201100
     24 N24         2.9970   -6.2850   -4.0000 n3        1 FJ5     -0.731600
     25 N25        -0.8800   -0.5680   -5.4750 n4        1 FJ5     -0.624500
     26 C26        -2.2520   -1.2330   -5.6970 c         1 FJ5      0.604100
     27 O27        -2.1740   -2.4070   -6.0180 o         1 FJ5     -0.416100
     28 C28        -3.4200   -0.3630   -5.5190 cx        1 FJ5     -0.275700
     29 C29        -4.5340   -0.4510   -6.5500 cx        1 FJ5     -0.067400
     30 C30        -4.7480   -1.0290   -5.1940 cx        1 FJ5     -0.067400
     31 C31         1.7380   -6.9500   -4.3160 c3        1 FJ5      0.128800
     32 C32         1.8270   -7.7920   -5.5950 c3        1 FJ5      0.126400
     33 O33         2.9140   -8.7050   -5.5430 os        1 FJ5     -0.404600
     34 C34         4.1550   -8.0490   -5.3160 c3        1 FJ5      0.126400
     35 C35         4.1260   -7.2100   -4.0330 c3        1 FJ5      0.128800
     36 H1          2.2590    0.3010   -1.1470 ha        1 FJ5      0.148000
     37 H2         -1.0290    0.3400    2.6240 ha        1 FJ5      0.151000
     38 H3         -2.6010    0.4260    0.9690 ho        1 FJ5      0.438000
     39 H4          0.8180    0.3490    3.9470 ho        1 FJ5      0.434000
     40 H5          3.6330    0.2990    2.3960 hc        1 FJ5      0.082700
     41 H6          3.6680   -1.8710    1.1650 hc        1 FJ5      0.038533
     42 H7          4.0370   -1.0060   -0.3860 hc        1 FJ5      0.038533
     43 H8          5.2250   -0.9610    0.9810 hc        1 FJ5      0.038533
     44 H9          4.0540    1.5670   -0.4010 hc        1 FJ5      0.038533
     45 H10         5.2360    1.5320    0.9730 hc        1 FJ5      0.038533
     46 H11         3.6830    2.4550    1.1360 hc        1 FJ5      0.038533
     47 H12        -0.1910   -2.4910   -1.0840 ha        1 FJ5      0.136000
     48 H13         1.0550   -4.6420   -0.9980 ha        1 FJ5      0.161000
     49 H14         3.0870   -3.6230   -4.6840 ha        1 FJ5      0.161000
     50 H15         1.8540   -1.4710   -4.7690 ha        1 FJ5      0.136000
     51 H16         3.9900   -5.2590   -2.4530 h1        1 FJ5      0.056200
     52 H17         2.5160   -6.1800   -1.9070 h1        1 FJ5      0.056200
     53 H19        -0.7970    0.2370   -6.1120 hn        1 FJ5      0.476300
     54 H20        -3.2080    0.6240   -5.0530 hc        1 FJ5      0.141700
     55 H21        -5.0360    0.4950   -6.8330 hc        1 FJ5      0.108950
     56 H22        -4.4110   -1.1340   -7.4120 hc        1 FJ5      0.108950
     57 H23        -5.4070   -0.5140   -4.4700 hc        1 FJ5      0.108950
     58 H24        -4.7730   -2.1300   -5.0760 hc        1 FJ5      0.108950
     59 H25         1.4010   -7.6220   -3.4730 h1        1 FJ5      0.043950
     60 H26         0.9570   -6.1540   -4.4590 h1        1 FJ5      0.043950
     61 H27         0.9180   -8.4420   -5.6920 h1        1 FJ5      0.058450
     62 H28         1.9290   -7.1330   -6.4970 h1        1 FJ5      0.058450
     63 H29         4.4120   -7.4100   -6.2020 h1        1 FJ5      0.058450
     64 H30         4.8980   -8.8840   -5.2130 h1        1 FJ5      0.058450
     65 H31         4.1120   -7.9100   -3.1480 h1        1 FJ5      0.043950
     66 H32         5.0730   -6.6030   -3.9830 h1        1 FJ5      0.043950
     67 H252       -0.1340   -1.2560   -5.6800 hn        1 FJ5      0.476300
@<TRIPOS>BOND
     1    1    2 ar  
     2    1    6 ar  
     3    1   10 1   
     4    2    3 ar  
     5    2   36 1   
     6    3    4 ar  
     7    3    9 1   
     8    4    5 ar  
     9    4    8 1   
    10    5    6 ar  
    11    5   37 1   
    12    6    7 1   
    13    7   38 1   
    14    8   39 1   
    15    9   11 1   
    16    9   12 1   
    17    9   40 1   
    18   10   13 2   
    19   10   16 1   
    20   11   41 1   
    21   11   42 1   
    22   11   43 1   
    23   12   44 1   
    24   12   45 1   
    25   12   46 1   
    26   13   14 1   
    27   14   15 1   
    28   15   16 2   
    29   15   25 1   
    30   16   17 1   
    31   17   18 ar  
    32   17   22 ar  
    33   18   19 ar  
    34   18   47 1   
    35   19   20 ar  
    36   19   48 1   
    37   20   21 ar  
    38   20   23 1   
    39   21   22 ar  
    40   21   49 1   
    41   22   50 1   
    42   23   24 1   
    43   23   51 1   
    44   23   52 1   
    45   24   31 1   
    46   24   35 1   
    47   25   26 1   
    48   25   53 1   
    49   25   67 1   
    50   26   27 2   
    51   26   28 1   
    52   28   29 1   
    53   28   30 1   
    54   28   54 1   
    55   29   30 1   
    56   29   55 1   
    57   29   56 1   
    58   30   57 1   
    59   30   58 1   
    60   31   32 1   
    61   31   59 1   
    62   31   60 1   
    63   32   33 1   
    64   32   61 1   
    65   32   62 1   
    66   33   34 1   
    67   34   35 1   
    68   34   63 1   
    69   34   64 1   
    70   35   65 1   
    71   35   66 1   
@<TRIPOS>SUBSTRUCTURE
     1 FJ5         1 TEMP              0 ****  ****    0 ROOT
