@<TRIPOS>MOLECULE
FJ6
   54    57     1     0     0
SMALL
bcc


@<TRIPOS>ATOM
      1 C01         0.0400   -0.1140   -0.0090 ca        1 FJ6     -0.194500
      2 C02         1.4170    0.1320   -0.0130 ca        1 FJ6     -0.034000
      3 C03         2.1710    0.1410    1.1620 ca        1 FJ6     -0.133300
      4 C04         1.5040   -0.1050    2.3810 ca        1 FJ6      0.175100
      5 C05         0.1280   -0.3580    2.4200 ca        1 FJ6     -0.310000
      6 C06        -0.6010   -0.3600    1.2230 ca        1 FJ6      0.188100
      7 O07        -1.9460   -0.6270    1.1960 oh        1 FJ6     -0.478100
      8 O08         2.2600   -0.0910    3.5300 oh        1 FJ6     -0.493100
      9 C09         3.6420    0.4140    1.1270 c3        1 FJ6     -0.014400
     10 C10        -0.7120   -0.0790   -1.2540 cc        1 FJ6      0.425800
     11 C11         4.3720   -0.6430    0.3190 c3        1 FJ6     -0.088100
     12 C12         3.9250    1.7960    0.5700 c3        1 FJ6     -0.088100
     13 N13        -1.7030    0.7970   -1.5250 nd        1 FJ6     -0.354300
     14 O14        -2.1750    0.5800   -2.7380 os        1 FJ6     -0.084100
     15 C15        -1.4690   -0.4980   -3.3340 cd        1 FJ6      0.391600
     16 C16        -0.5140   -0.9530   -2.4120 cc        1 FJ6     -0.325600
     17 C17         0.4060   -2.0460   -2.5800 ca        1 FJ6     -0.032000
     18 C18         1.1470   -2.1760   -3.7670 ca        1 FJ6     -0.094500
     19 C19         2.0180   -3.2420   -3.9500 ca        1 FJ6     -0.178500
     20 C20         2.1590   -4.2000   -2.9290 ca        1 FJ6      0.123100
     21 C21         1.4350   -4.0800   -1.7370 ca        1 FJ6     -0.178500
     22 C22         0.5650   -3.0060   -1.5710 ca        1 FJ6     -0.094500
     23 O23         3.0420   -5.2240   -3.2110 os        1 FJ6     -0.327900
     24 C24         3.2330   -6.1890   -2.1840 c3        1 FJ6      0.113700
     25 N25        -1.7880   -0.9210   -4.6010 ns        1 FJ6     -0.539400
     26 C26        -2.7810   -0.3580   -5.4140 c         1 FJ6      0.695100
     27 O27        -3.4270    0.6320   -5.0390 o         1 FJ6     -0.541100
     28 C28        -2.9940   -1.0150   -6.7400 cx        1 FJ6     -0.231700
     29 C29        -3.3560   -0.1230   -7.9060 cx        1 FJ6     -0.098400
     30 C30        -4.3980   -1.0070   -7.3000 cx        1 FJ6     -0.098400
     31 H1          1.9210    0.3260   -0.9750 ha        1 FJ6      0.151000
     32 H2         -0.3780   -0.5460    3.3760 ha        1 FJ6      0.137000
     33 H3         -2.2640   -0.6680    2.1100 ho        1 FJ6      0.421000
     34 H4          1.6680   -0.2480    4.2810 ho        1 FJ6      0.421000
     35 H5          4.0380    0.3780    2.1840 hc        1 FJ6      0.069700
     36 H6          5.4700   -0.4410    0.3340 hc        1 FJ6      0.035867
     37 H7          4.0250   -0.6400   -0.7420 hc        1 FJ6      0.035867
     38 H8          4.1890   -1.6560    0.7490 hc        1 FJ6      0.035867
     39 H9          3.5680    1.8800   -0.4840 hc        1 FJ6      0.035867
     40 H10         5.0230    1.9960    0.5900 hc        1 FJ6      0.035867
     41 H11         3.4090    2.5750    1.1810 hc        1 FJ6      0.035867
     42 H12         1.0550   -1.4140   -4.5550 ha        1 FJ6      0.139500
     43 H13         2.6020   -3.3480   -4.8750 ha        1 FJ6      0.144000
     44 H14         1.5430   -4.8200   -0.9310 ha        1 FJ6      0.144000
     45 H15        -0.0050   -2.9030   -0.6340 ha        1 FJ6      0.139500
     46 H16         3.9840   -6.8930   -2.6240 h1        1 FJ6      0.045033
     47 H17         3.6360   -5.7090   -1.2600 h1        1 FJ6      0.045033
     48 H18         2.2760   -6.7230   -1.9620 h1        1 FJ6      0.045033
     49 H19        -1.2930   -1.7290   -4.9120 hn        1 FJ6      0.340500
     50 H20        -2.3610   -1.9010   -6.9400 hc        1 FJ6      0.091700
     51 H21        -3.4180    0.9680   -7.7310 hc        1 FJ6      0.087200
     52 H22        -2.9390   -0.3690   -8.8990 hc        1 FJ6      0.087200
     53 H23        -4.7460   -1.9000   -7.8480 hc        1 FJ6      0.087200
     54 H24        -5.2000   -0.5430   -6.6940 hc        1 FJ6      0.087200
@<TRIPOS>BOND
     1    1    2 ar  
     2    1    6 ar  
     3    1   10 1   
     4    2    3 ar  
     5    2   31 1   
     6    3    4 ar  
     7    3    9 1   
     8    4    5 ar  
     9    4    8 1   
    10    5    6 ar  
    11    5   32 1   
    12    6    7 1   
    13    7   33 1   
    14    8   34 1   
    15    9   11 1   
    16    9   12 1   
    17    9   35 1   
    18   10   13 2   
    19   10   16 1   
    20   11   36 1   
    21   11   37 1   
    22   11   38 1   
    23   12   39 1   
    24   12   40 1   
    25   12   41 1   
    26   13   14 1   
    27   14   15 1   
    28   15   16 2   
    29   15   25 1   
    30   16   17 1   
    31   17   18 ar  
    32   17   22 ar  
    33   18   19 ar  
    34   18   42 1   
    35   19   20 ar  
    36   19   43 1   
    37   20   21 ar  
    38   20   23 1   
    39   21   22 ar  
    40   21   44 1   
    41   22   45 1   
    42   23   24 1   
    43   24   46 1   
    44   24   47 1   
    45   24   48 1   
    46   25   26 1   
    47   25   49 1   
    48   26   27 2   
    49   26   28 1   
    50   28   29 1   
    51   28   30 1   
    52   28   50 1   
    53   29   30 1   
    54   29   51 1   
    55   29   52 1   
    56   30   53 1   
    57   30   54 1   
@<TRIPOS>SUBSTRUCTURE
     1 FJ6         1 TEMP              0 ****  ****    0 ROOT
