@<TRIPOS>MOLECULE
FJ6
   55    58     1     0     0
SMALL
bcc


@<TRIPOS>ATOM
      1 C01         0.2070    0.2410   -0.6780 ca        1 FJ6     -0.252500
      2 C02         1.5720    0.2350   -0.3540 ca        1 FJ6     -0.028000
      3 C03         2.0140    0.2490    0.9650 ca        1 FJ6     -0.123300
      4 C04         1.0430    0.2710    1.9950 ca        1 FJ6      0.204100
      5 C05        -0.3270    0.2740    1.7030 ca        1 FJ6     -0.308000
      6 C06        -0.7410    0.2630    0.3650 ca        1 FJ6      0.204100
      7 O07        -2.0660    0.2420    0.0120 oh        1 FJ6     -0.496100
      8 O08         1.5010    0.2830    3.2850 oh        1 FJ6     -0.477100
      9 C09         3.4760    0.2540    1.2870 c3        1 FJ6     -0.020400
     10 C10        -0.2180    0.2760   -2.0650 cc        1 FJ6      0.434800
     11 C11         4.1520   -1.0020    0.7690 c3        1 FJ6     -0.088600
     12 C12         4.1510    1.4910    0.7250 c3        1 FJ6     -0.088600
     13 N13        -0.9450    1.2670   -2.6250 nd        1 FJ6     -0.270300
     14 O14        -1.1740    1.0080   -3.8910 os        1 FJ6     -0.112100
     15 C15        -0.5690   -0.2440   -4.2240 cd        1 FJ6      0.195600
     16 C16         0.0640   -0.7500   -3.0940 cc        1 FJ6     -0.073600
     17 C17         0.7970   -1.9790   -2.9740 ca        1 FJ6     -0.143000
     18 C18         1.7330   -2.3490   -3.9590 ca        1 FJ6     -0.061500
     19 C19         2.4260   -3.5420   -3.8650 ca        1 FJ6     -0.180500
     20 C20         2.1860   -4.3990   -2.7660 ca        1 FJ6      0.178100
     21 C21         1.2660   -4.0350   -1.7710 ca        1 FJ6     -0.180500
     22 C22         0.5850   -2.8270   -1.8770 ca        1 FJ6     -0.061500
     23 O23         2.9120   -5.5600   -2.7740 os        1 FJ6     -0.308900
     24 C24         2.7280   -6.4430   -1.6660 c3        1 FJ6      0.105700
     25 N25        -0.7310   -0.7120   -5.5630 n4        1 FJ6     -0.621500
     26 C26        -2.1030   -1.3720   -5.7990 c         1 FJ6      0.604100
     27 O27        -2.0270   -2.5500   -6.1030 o         1 FJ6     -0.416100
     28 C28        -3.2680   -0.4920   -5.6520 cx        1 FJ6     -0.274700
     29 C29        -4.6060   -1.1470   -5.3450 cx        1 FJ6     -0.067400
     30 C30        -4.3640   -0.5840   -6.7030 cx        1 FJ6     -0.067400
     31 H1          2.3170    0.2260   -1.1670 ha        1 FJ6      0.149000
     32 H2         -1.0710    0.2950    2.5130 ha        1 FJ6      0.151000
     33 H3         -2.5980    0.3570    0.8150 ho        1 FJ6      0.438000
     34 H4          0.7400    0.3340    3.8850 ho        1 FJ6      0.434000
     35 H5          3.5960    0.2740    2.4100 hc        1 FJ6      0.081700
     36 H6          3.6760   -1.9110    1.2080 hc        1 FJ6      0.038700
     37 H7          4.0800   -1.0630   -0.3430 hc        1 FJ6      0.038700
     38 H8          5.2320   -0.9940    1.0530 hc        1 FJ6      0.038700
     39 H9          4.0850    1.5090   -0.3900 hc        1 FJ6      0.038700
     40 H10         3.6690    2.4150    1.1250 hc        1 FJ6      0.038700
     41 H11         5.2300    1.4980    1.0150 hc        1 FJ6      0.038700
     42 H12         1.9560   -1.6660   -4.7930 ha        1 FJ6      0.137000
     43 H13         3.1690   -3.8370   -4.6220 ha        1 FJ6      0.164500
     44 H14         1.0810   -4.6900   -0.9070 ha        1 FJ6      0.164500
     45 H15        -0.1290   -2.5310   -1.0900 ha        1 FJ6      0.137000
     46 H16         3.0200   -5.9400   -0.7130 h1        1 FJ6      0.059367
     47 H17         1.6710   -6.8000   -1.6220 h1        1 FJ6      0.059367
     48 H18         3.4250   -7.2890   -1.9000 h1        1 FJ6      0.059367
     49 H19         0.0130   -1.4070   -5.7460 hn        1 FJ6      0.475300
     50 H20        -3.0580    0.4980   -5.1920 hc        1 FJ6      0.141700
     51 H21        -5.2750   -0.6190   -4.6380 hc        1 FJ6      0.108450
     52 H22        -4.6410   -2.2460   -5.2160 hc        1 FJ6      0.108450
     53 H23        -4.8540    0.3610   -7.0050 hc        1 FJ6      0.108450
     54 H24        -4.2290   -1.2770   -7.5550 hc        1 FJ6      0.108450
     55 H252       -0.6330    0.0830   -6.2080 hn        1 FJ6      0.475300
@<TRIPOS>BOND
     1    1    2 ar  
     2    1    6 ar  
     3    1   10 1   
     4    2    3 ar  
     5    2   31 1   
     6    3    4 ar  
     7    3    9 1   
     8    4    5 ar  
     9    4    8 1   
    10    5    6 ar  
    11    5   32 1   
    12    6    7 1   
    13    7   33 1   
    14    8   34 1   
    15    9   11 1   
    16    9   12 1   
    17    9   35 1   
    18   10   13 2   
    19   10   16 1   
    20   11   36 1   
    21   11   37 1   
    22   11   38 1   
    23   12   39 1   
    24   12   40 1   
    25   12   41 1   
    26   13   14 1   
    27   14   15 1   
    28   15   16 2   
    29   15   25 1   
    30   16   17 1   
    31   17   18 ar  
    32   17   22 ar  
    33   18   19 ar  
    34   18   42 1   
    35   19   20 ar  
    36   19   43 1   
    37   20   21 ar  
    38   20   23 1   
    39   21   22 ar  
    40   21   44 1   
    41   22   45 1   
    42   23   24 1   
    43   24   46 1   
    44   24   47 1   
    45   24   48 1   
    46   25   26 1   
    47   25   49 1   
    48   25   55 1   
    49   26   27 2   
    50   26   28 1   
    51   28   29 1   
    52   28   30 1   
    53   28   50 1   
    54   29   30 1   
    55   29   51 1   
    56   29   52 1   
    57   30   53 1   
    58   30   54 1   
@<TRIPOS>SUBSTRUCTURE
     1 FJ6         1 TEMP              0 ****  ****    0 ROOT
