@<TRIPOS>MOLECULE
FJA
   59    61     1     0     0
SMALL
bcc


@<TRIPOS>ATOM
      1 CAA         0.4960    0.3150    0.0330 c3        1 FJA     -0.077700
      2 CAB         1.5860    0.9230    0.9140 c3        1 FJA     -0.030500
      3 CAC         2.1350    0.0200    1.9790 c2        1 FJA     -0.104400
      4 CAD         1.6090   -0.2530    3.1780 c2        1 FJA     -0.178200
      5 CAE         0.3580    0.2610    3.8090 c3        1 FJA     -0.007600
      6 CAF        -0.4930    1.1480    2.9130 c2        1 FJA     -0.149400
      7 CAG        -1.3590    0.5080    1.8830 c3        1 FJA      0.161300
      8 CAH        -0.6860   -0.3280    0.7690 c3        1 FJA      0.120100
      9 CAI         2.8150    1.3540    0.0990 c3        1 FJA     -0.078400
     10 CAJ         3.8700    0.2720    0.2940 c3        1 FJA     -0.072400
     11 CAK         3.5150   -0.4540    1.5950 c3        1 FJA     -0.038500
     12 CAL         0.7500    1.2090    5.0030 c3        1 FJA      0.145100
     13 CAM         0.3970    2.6280    4.5350 c3        1 FJA     -0.084200
     14 CAN        -0.4420    2.4450    3.3040 c2        1 FJA     -0.096400
     15 CAO        -0.4480   -0.9050    4.3650 c3        1 FJA     -0.092100
     16 CAP         3.5890   -1.9710    1.4740 c3        1 FJA      0.134400
     17 CAQ         1.0280   -0.7030   -0.9600 c3        1 FJA     -0.089100
     18 OAR        -0.4230   -1.6420    1.2180 oh        1 FJA     -0.595800
     19 OAS        -2.2620    1.4140    1.2660 oh        1 FJA     -0.590800
     20 OAT         4.9450   -2.3360    1.7340 os        1 FJA     -0.424600
     21 CAU        -1.0970    3.6430    2.7160 c3        1 FJA     -0.014500
     22 CAV        -2.5200    3.7780    3.2310 c3        1 FJA     -0.091100
     23 CAW        -0.3170    4.9140    2.9970 c3        1 FJA     -0.091100
     24 OAX         2.0890    1.0950    5.4260 oh        1 FJA     -0.588800
     25 CAY         5.1570   -3.7340    1.6440 c3        1 FJA      0.115700
     26 HAA         0.0640    1.1770   -0.5560 hc        1 FJA      0.044700
     27 HAB         1.1450    1.8410    1.3990 hc        1 FJA      0.068700
     28 HAD         2.1720   -0.9210    3.8620 ha        1 FJA      0.138000
     29 HAG        -2.0530   -0.2010    2.4420 h1        1 FJA      0.095700
     30 HAH        -1.5010   -0.4920   -0.0070 h1        1 FJA      0.077700
     31 HAI         3.1930    2.3310    0.4940 hc        1 FJA      0.045700
     32 HAIA        2.5700    1.5040   -0.9800 hc        1 FJA      0.045700
     33 HAJ         4.8950    0.7120    0.3560 hc        1 FJA      0.050200
     34 HAJA        3.8590   -0.4390   -0.5710 hc        1 FJA      0.050200
     35 HAK         4.2390   -0.1410    2.4000 hc        1 FJA      0.078700
     36 HAL         0.1570    0.9290    5.9180 h1        1 FJA      0.083700
     37 HAM         1.3220    3.2180    4.3090 hc        1 FJA      0.062700
     38 HAMA       -0.1770    3.1770    5.3240 hc        1 FJA      0.062700
     39 HAO        -0.7040   -1.6350    3.5590 hc        1 FJA      0.047033
     40 HAOA       -1.3970   -0.5330    4.8210 hc        1 FJA      0.047033
     41 HAOB        0.1440   -1.4330    5.1510 hc        1 FJA      0.047033
     42 HAP         2.9210   -2.4610    2.2330 h1        1 FJA      0.031700
     43 HAPA        3.2970   -2.3250    0.4490 h1        1 FJA      0.031700
     44 HAQ         1.7190   -0.2280   -1.6960 hc        1 FJA      0.040700
     45 HAQA        0.1810   -1.1680   -1.5210 hc        1 FJA      0.040700
     46 HAQB        1.5790   -1.5130   -0.4230 hc        1 FJA      0.040700
     47 HOAR        0.4120   -1.6300    1.7060 ho        1 FJA      0.410000
     48 HOAS       -1.7570    1.9420    0.6360 ho        1 FJA      0.397000
     49 H24        -1.1370    3.5250    1.5950 hc        1 FJA      0.043700
     50 HAV        -2.5260    3.8600    4.3450 hc        1 FJA      0.039200
     51 HAVA       -2.9950    4.6940    2.8040 hc        1 FJA      0.039200
     52 HAVB       -3.1190    2.8850    2.9290 hc        1 FJA      0.039200
     53 HAW         0.7380    4.8140    2.6460 hc        1 FJA      0.039200
     54 HAWA       -0.7910    5.7720    2.4610 hc        1 FJA      0.039200
     55 H30        -0.3080    5.1450    4.0890 hc        1 FJA      0.039200
     56 HOAX        2.6570    1.3380    4.6840 ho        1 FJA      0.404000
     57 HAY         4.9250   -4.1040    0.6140 h1        1 FJA      0.033700
     58 HAYA        4.5290   -4.2780    2.3930 h1        1 FJA      0.033700
     59 HAYB        6.2440   -3.8670    1.8730 h1        1 FJA      0.033700
@<TRIPOS>BOND
     1    1    2 1   
     2    1    8 1   
     3    1   17 1   
     4    1   26 1   
     5    2    3 1   
     6    2    9 1   
     7    2   27 1   
     8    3    4 2   
     9    3   11 1   
    10    4    5 1   
    11    4   28 1   
    12    5    6 1   
    13    5   12 1   
    14    5   15 1   
    15    6    7 1   
    16    6   14 2   
    17    7    8 1   
    18    7   19 1   
    19    7   29 1   
    20    8   18 1   
    21    8   30 1   
    22    9   10 1   
    23    9   31 1   
    24    9   32 1   
    25   10   11 1   
    26   10   33 1   
    27   10   34 1   
    28   11   16 1   
    29   11   35 1   
    30   12   13 1   
    31   12   24 1   
    32   12   36 1   
    33   13   14 1   
    34   13   37 1   
    35   13   38 1   
    36   14   21 1   
    37   15   39 1   
    38   15   40 1   
    39   15   41 1   
    40   16   20 1   
    41   16   42 1   
    42   16   43 1   
    43   17   44 1   
    44   17   45 1   
    45   17   46 1   
    46   18   47 1   
    47   19   48 1   
    48   20   25 1   
    49   21   22 1   
    50   21   23 1   
    51   21   49 1   
    52   22   50 1   
    53   22   51 1   
    54   22   52 1   
    55   23   53 1   
    56   23   54 1   
    57   23   55 1   
    58   24   56 1   
    59   25   57 1   
    60   25   58 1   
    61   25   59 1   
@<TRIPOS>SUBSTRUCTURE
     1 FJA         1 TEMP              0 ****  ****    0 ROOT
