@<TRIPOS>MOLECULE
FJA
   59    61     1     0     0
SMALL
bcc


@<TRIPOS>ATOM
      1 CAA        -0.1240    2.1080   -0.2370 c3        1 FJA     -0.069700
      2 CAB        -0.5070    0.7680   -0.8610 c3        1 FJA     -0.030500
      3 CAC        -1.1700   -0.2150    0.0590 c2        1 FJA     -0.102400
      4 CAD        -0.5920   -1.0420    0.9370 c2        1 FJA     -0.182200
      5 CAE         0.8540   -1.2310    1.2560 c3        1 FJA     -0.007600
      6 CAF         1.7890   -0.2470    0.5700 c2        1 FJA     -0.130400
      7 CAG         1.9120    1.1300    1.1200 c3        1 FJA      0.171300
      8 CAH         0.6690    2.0490    1.0740 c3        1 FJA      0.127100
      9 CAI        -1.4950    0.9310   -2.0270 c3        1 FJA     -0.078400
     10 CAJ        -2.8740    0.5810   -1.4820 c3        1 FJA     -0.072400
     11 CAK        -2.6450   -0.3000   -0.2510 c3        1 FJA     -0.039500
     12 CAL         1.3220   -2.6250    0.6940 c3        1 FJA      0.146100
     13 CAM         2.2050   -2.3040   -0.5230 c3        1 FJA     -0.087200
     14 CAN         2.4980   -0.8360   -0.4210 c2        1 FJA     -0.076400
     15 CAO         1.0380   -1.2230    2.7670 c3        1 FJA     -0.090100
     16 CAP        -3.5040    0.1010    0.9410 c3        1 FJA      0.134400
     17 CAQ        -1.3130    3.0260   -0.0100 c3        1 FJA     -0.091100
     18 OAR        -0.1400    1.8210    2.2140 oh        1 FJA     -0.604800
     19 OAS         2.9900    1.8010    0.4710 oh        1 FJA     -0.597800
     20 OAT        -4.7630   -0.5530    0.7780 os        1 FJA     -0.424600
     21 CAU         3.4790   -0.2300   -1.3580 c3        1 FJA     -0.024500
     22 CAV         4.8880   -0.3450   -0.8020 c3        1 FJA     -0.085100
     23 CAW         3.4020   -0.8670   -2.7340 c3        1 FJA     -0.085100
     24 OAX         0.2730   -3.5120    0.3860 oh        1 FJA     -0.589800
     25 CAY        -5.6700   -0.2510    1.8230 c3        1 FJA      0.115700
     26 HAA         0.5630    2.6040   -0.9850 hc        1 FJA      0.059700
     27 HAB         0.4420    0.3120   -1.2660 hc        1 FJA      0.075700
     28 HAD        -1.2360   -1.7410    1.5080 ha        1 FJA      0.136000
     29 HAG         2.1710    1.0150    2.2210 h1        1 FJA      0.053700
     30 HAH         1.0570    3.1020    1.2560 h1        1 FJA      0.059700
     31 HAI        -1.4670    1.9590   -2.4600 hc        1 FJA      0.045700
     32 HAIA       -1.2160    0.2180   -2.8440 hc        1 FJA      0.045700
     33 HAJ        -3.4290    1.5130   -1.2030 hc        1 FJA      0.049200
     34 HAJA       -3.4860    0.0400   -2.2450 hc        1 FJA      0.049200
     35 HAK        -2.8980   -1.3680   -0.5100 hc        1 FJA      0.077700
     36 HAL         1.9110   -3.1700    1.4830 h1        1 FJA      0.081700
     37 HAM         3.1510   -2.9000   -0.5000 hc        1 FJA      0.062700
     38 HAMA        1.6710   -2.5420   -1.4780 hc        1 FJA      0.062700
     39 HAO         0.6410   -0.2770    3.2080 hc        1 FJA      0.045033
     40 HAOA        0.4910   -2.0860    3.2190 hc        1 FJA      0.045033
     41 HAOB        2.1210   -1.3110    3.0240 hc        1 FJA      0.045033
     42 HAP        -3.0300   -0.2410    1.9010 h1        1 FJA      0.031200
     43 HAPA       -3.6630    1.2110    0.9890 h1        1 FJA      0.031200
     44 HAQ        -0.9840    3.9570    0.5120 hc        1 FJA      0.038700
     45 HAQA       -1.7910    3.3170   -0.9750 hc        1 FJA      0.038700
     46 HAQB       -2.0750    2.5180    0.6280 hc        1 FJA      0.038700
     47 HOAR       -0.6930    1.0490    2.0370 ho        1 FJA      0.412000
     48 HOAS        3.2000    2.5700    1.0140 ho        1 FJA      0.401000
     49 H24         3.2360    0.8670   -1.4750 hc        1 FJA      0.078700
     50 HAV         5.6200    0.0810   -1.5280 hc        1 FJA      0.034367
     51 HAVA        4.9600    0.2240    0.1570 hc        1 FJA      0.034367
     52 HAVB        5.1520   -1.4120   -0.6120 hc        1 FJA      0.034367
     53 HAW         2.3600   -0.8160   -3.1300 hc        1 FJA      0.034367
     54 HAWA        4.0790   -0.3260   -3.4380 hc        1 FJA      0.034367
     55 H30         3.7170   -1.9380   -2.6960 hc        1 FJA      0.034367
     56 HOAX       -0.2700   -3.1030   -0.3010 ho        1 FJA      0.404000
     57 HAY        -6.5940   -0.8280    1.5670 h1        1 FJA      0.033033
     58 HAYA       -5.2620   -0.5840    2.8090 h1        1 FJA      0.033033
     59 HAYB       -5.8880    0.8450    1.8530 h1        1 FJA      0.033033
@<TRIPOS>BOND
     1    1    2 1   
     2    1    8 1   
     3    1   17 1   
     4    1   26 1   
     5    2    3 1   
     6    2    9 1   
     7    2   27 1   
     8    3    4 2   
     9    3   11 1   
    10    4    5 1   
    11    4   28 1   
    12    5    6 1   
    13    5   12 1   
    14    5   15 1   
    15    6    7 1   
    16    6   14 2   
    17    7    8 1   
    18    7   19 1   
    19    7   29 1   
    20    8   18 1   
    21    8   30 1   
    22    9   10 1   
    23    9   31 1   
    24    9   32 1   
    25   10   11 1   
    26   10   33 1   
    27   10   34 1   
    28   11   16 1   
    29   11   35 1   
    30   12   13 1   
    31   12   24 1   
    32   12   36 1   
    33   13   14 1   
    34   13   37 1   
    35   13   38 1   
    36   14   21 1   
    37   15   39 1   
    38   15   40 1   
    39   15   41 1   
    40   16   20 1   
    41   16   42 1   
    42   16   43 1   
    43   17   44 1   
    44   17   45 1   
    45   17   46 1   
    46   18   47 1   
    47   19   48 1   
    48   20   25 1   
    49   21   22 1   
    50   21   23 1   
    51   21   49 1   
    52   22   50 1   
    53   22   51 1   
    54   22   52 1   
    55   23   53 1   
    56   23   54 1   
    57   23   55 1   
    58   24   56 1   
    59   25   57 1   
    60   25   58 1   
    61   25   59 1   
@<TRIPOS>SUBSTRUCTURE
     1 FJA         1 TEMP              0 ****  ****    0 ROOT
