@<TRIPOS>MOLECULE
FJA
   59    61     1     0     0
SMALL
bcc


@<TRIPOS>ATOM
      1 CAA         0.5210    0.2790    0.0220 c3        1 FJA     -0.078700
      2 CAB         1.6050    0.8810    0.9140 c3        1 FJA     -0.028500
      3 CAC         2.1200   -0.0040    2.0100 c2        1 FJA     -0.115400
      4 CAD         1.5710   -0.2450    3.2060 c2        1 FJA     -0.144200
      5 CAE         0.3050    0.2800    3.7980 c3        1 FJA      0.031400
      6 CAF        -0.5060    1.1720    2.8680 c2        1 FJA     -0.146400
      7 CAG        -1.3650    0.5310    1.8330 c3        1 FJA      0.161300
      8 CAH        -0.6840   -0.3340    0.7470 c3        1 FJA      0.121100
      9 CAI         2.8560    1.2770    0.1140 c3        1 FJA     -0.077400
     10 CAJ         3.8900    0.1840    0.3530 c3        1 FJA     -0.071400
     11 CAK         3.5060   -0.4940    1.6710 c3        1 FJA     -0.034500
     12 CAL         0.6540    1.2380    4.9930 c3        1 FJA      0.141100
     13 CAM         0.4100    2.6600    4.4670 c3        1 FJA     -0.087200
     14 CAN        -0.4170    2.4760    3.2270 c2        1 FJA     -0.094400
     15 CAO        -0.5250   -0.8760    4.3400 c3        1 FJA     -0.096100
     16 CAP         3.5750   -2.0140    1.6000 c3        1 FJA      0.134400
     17 CAQ         1.0520   -0.7600   -0.9490 c3        1 FJA     -0.089100
     18 OAR        -0.4440   -1.6420    1.2280 oh        1 FJA     -0.597800
     19 OAS        -2.2390    1.4440    1.1850 oh        1 FJA     -0.591800
     20 OAT         4.9510   -2.3720    1.7300 os        1 FJA     -0.423600
     21 CAU        -1.0150    3.6810    2.5940 c3        1 FJA     -0.014500
     22 CAV        -2.4420    3.8850    3.0750 c3        1 FJA     -0.090600
     23 CAW        -0.1900    4.9280    2.8550 c3        1 FJA     -0.090600
     24 OAX         1.9890    1.0250    5.4120 oh        1 FJA     -0.589800
     25 CAY         5.1510   -3.7740    1.6880 c3        1 FJA      0.116700
     26 HAA         0.1130    1.1400   -0.5860 hc        1 FJA      0.042700
     27 HAB         1.1730    1.8170    1.3720 hc        1 FJA      0.066700
     28 HAD         2.1300   -0.8750    3.9260 ha        1 FJA      0.140000
     29 HAG        -2.0820   -0.1560    2.3880 h1        1 FJA      0.094700
     30 HAH        -1.4870   -0.5030   -0.0410 h1        1 FJA      0.076700
     31 HAI         3.2410    2.2560    0.4980 hc        1 FJA      0.044200
     32 HAIA        2.6350    1.4100   -0.9720 hc        1 FJA      0.044200
     33 HAJ         4.9210    0.6080    0.4130 hc        1 FJA      0.048700
     34 HAJA        3.8760   -0.5550   -0.4880 hc        1 FJA      0.048700
     35 HAK         4.2160   -0.1570    2.4790 hc        1 FJA      0.080700
     36 HAL        -0.0340    1.0230    5.8570 h1        1 FJA      0.041700
     37 HAM        -0.1360    3.2810    5.2190 hc        1 FJA      0.060700
     38 HAMA        1.3790    3.1670    4.2250 hc        1 FJA      0.060700
     39 HAO        -0.7610   -1.6100    3.5320 hc        1 FJA      0.047367
     40 HAOA       -1.4850   -0.4950    4.7640 hc        1 FJA      0.047367
     41 HAOB        0.0420   -1.4010    5.1460 hc        1 FJA      0.047367
     42 HAP         2.9890   -2.4720    2.4430 h1        1 FJA      0.029700
     43 HAPA        3.1780   -2.4050    0.6260 h1        1 FJA      0.029700
     44 HAQ         1.5810   -1.5720   -0.3940 hc        1 FJA      0.040367
     45 HAQA        0.2060   -1.2200   -1.5170 hc        1 FJA      0.040367
     46 HAQB        1.7610   -0.3060   -1.6800 hc        1 FJA      0.040367
     47 HOAR        0.3980   -1.6350    1.7030 ho        1 FJA      0.412000
     48 HOAS       -1.7140    1.9500    0.5530 ho        1 FJA      0.397000
     49 H24        -1.0370    3.5310    1.4760 hc        1 FJA      0.044700
     50 HAV        -3.0690    3.0070    2.7840 hc        1 FJA      0.038700
     51 HAVA       -2.4670    3.9980    4.1850 hc        1 FJA      0.038700
     52 HAVB       -2.8720    4.8050    2.6130 hc        1 FJA      0.038700
     53 HAW        -0.6150    5.7870    2.2800 hc        1 FJA      0.038700
     54 HAWA       -0.1990    5.1940    3.9390 hc        1 FJA      0.038700
     55 H30         0.8680    4.7730    2.5340 hc        1 FJA      0.038700
     56 HOAX        2.1900    1.7250    6.0460 ho        1 FJA      0.401000
     57 HAY         6.2560   -3.9020    1.8030 h1        1 FJA      0.032367
     58 HAYA        4.8080   -4.1930    0.7100 h1        1 FJA      0.032367
     59 HAYB        4.6090   -4.2760    2.5270 h1        1 FJA      0.032367
@<TRIPOS>BOND
     1    1    2 1   
     2    1    8 1   
     3    1   17 1   
     4    1   26 1   
     5    2    3 1   
     6    2    9 1   
     7    2   27 1   
     8    3    4 2   
     9    3   11 1   
    10    4    5 1   
    11    4   28 1   
    12    5    6 1   
    13    5   12 1   
    14    5   15 1   
    15    6    7 1   
    16    6   14 2   
    17    7    8 1   
    18    7   19 1   
    19    7   29 1   
    20    8   18 1   
    21    8   30 1   
    22    9   10 1   
    23    9   31 1   
    24    9   32 1   
    25   10   11 1   
    26   10   33 1   
    27   10   34 1   
    28   11   16 1   
    29   11   35 1   
    30   12   13 1   
    31   12   24 1   
    32   12   36 1   
    33   13   14 1   
    34   13   37 1   
    35   13   38 1   
    36   14   21 1   
    37   15   39 1   
    38   15   40 1   
    39   15   41 1   
    40   16   20 1   
    41   16   42 1   
    42   16   43 1   
    43   17   44 1   
    44   17   45 1   
    45   17   46 1   
    46   18   47 1   
    47   19   48 1   
    48   20   25 1   
    49   21   22 1   
    50   21   23 1   
    51   21   49 1   
    52   22   50 1   
    53   22   51 1   
    54   22   52 1   
    55   23   53 1   
    56   23   54 1   
    57   23   55 1   
    58   24   56 1   
    59   25   57 1   
    60   25   58 1   
    61   25   59 1   
@<TRIPOS>SUBSTRUCTURE
     1 FJA         1 TEMP              0 ****  ****    0 ROOT
