@<TRIPOS>MOLECULE
FJD
   59    63     1     0     0
SMALL
bcc


@<TRIPOS>ATOM
      1 Cl1         0.1560   -0.4430   -0.3550 cl        1 FJD     -0.004400
      2 C25         1.8020   -0.3170   -0.1140 cc        1 FJD     -0.033700
      3 C24         2.4260   -0.3080    1.1260 cd        1 FJD     -0.152000
      4 C22         3.8340   -0.1890    0.9950 cd        1 FJD     -0.120000
      5 S1          2.9040   -0.1850   -1.3670 ss        1 FJD      0.140200
      6 C20         4.2290   -0.1120   -0.3400 cc        1 FJD     -0.198600
      7 C17         5.5840    0.0140   -0.7480 cc        1 FJD      0.288900
      8 O16         5.8870    0.0190   -2.1190 os        1 FJD     -0.374800
      9 C10         6.7910    0.1490   -0.0600 cd        1 FJD      0.218900
     10 N9          7.8450    0.2380   -0.9770 nd        1 FJD     -0.682000
     11 C4          7.2860    0.1640   -2.1850 cc        1 FJD      0.498700
     12 C1          7.8440    0.1430   -3.5790 c3        1 FJD      0.168200
     13 N3          8.6030   -1.1000   -3.7840 n3        1 FJD     -0.696600
     14 C7          9.9780   -0.7710   -4.2240 c3        1 FJD      0.173500
     15 C14        10.2250   -1.3900   -5.6150 c3        1 FJD     -0.092400
     16 C15         8.9750   -2.1940   -5.9490 c3        1 FJD     -0.101400
     17 C8          8.0250   -2.0350   -4.7510 c3        1 FJD      0.148800
     18 C5         10.1550    0.7550   -4.2030 c3        1 FJD     -0.146700
     19 C2          8.7650    1.3540   -3.8690 c3        1 FJD     -0.147700
     20 C6          9.0070    2.2800   -2.6800 c         1 FJD      0.724500
     21 O13         8.2130    3.0700   -2.1670 o         1 FJD     -0.558500
     22 C11        11.0590    1.2160   -3.0630 c         1 FJD      0.715500
     23 O18        12.2190    0.8600   -2.8320 o         1 FJD     -0.594500
     24 N12        10.3600    2.1560   -2.2720 n         1 FJD     -0.515400
     25 C19        10.8940    2.7380   -1.0780 c3        1 FJD      0.116000
     26 C21        11.0990    1.7160    0.0530 c3        1 FJD     -0.144400
     27 C23        11.7170    2.4310    1.2420 c3        1 FJD      0.120800
     28 N29        12.1560    1.5220    2.3660 n4        1 FJD     -0.602800
     29 C32        12.5510    2.3710    3.5310 c3        1 FJD      0.088100
     30 C31        11.0400    0.6190    2.7720 c3        1 FJD      0.088100
     31 C30        13.3310    0.7030    1.9420 c3        1 FJD      0.088100
     32 H24         1.9110   -0.3820    2.0870 ha        1 FJD      0.174000
     33 H22         4.5180   -0.1630    1.8460 ha        1 FJD      0.155000
     34 H10         6.9610    0.1840    1.0140 h4        1 FJD      0.041100
     35 H1          6.9490    0.2090   -4.2730 h1        1 FJD      0.090700
     36 H7         10.6790   -1.2440   -3.4770 h1        1 FJD      0.091700
     37 H82         7.9170   -3.0160   -4.2090 h1        1 FJD      0.063200
     38 H81         7.0030   -1.7220   -5.0950 h1        1 FJD      0.063200
     39 H5         10.5650    1.1440   -5.1680 hc        1 FJD      0.113700
     40 H2          8.3470    1.9570   -4.7140 hc        1 FJD      0.113700
     41 H141       11.1290   -2.0460   -5.5800 hc        1 FJD      0.060200
     42 H142       10.4090   -0.6020   -6.3860 hc        1 FJD      0.060200
     43 H151        8.4940   -1.8150   -6.8840 hc        1 FJD      0.060700
     44 H152        9.2210   -3.2720   -6.1070 hc        1 FJD      0.060700
     45 H191       11.8910    3.2020   -1.3300 h1        1 FJD      0.074700
     46 H192       10.1850    3.5450   -0.7330 h1        1 FJD      0.074700
     47 H211       11.7670    0.8940   -0.3230 hc        1 FJD      0.088200
     48 H212       10.1100    1.2630    0.3310 hc        1 FJD      0.088200
     49 H231       10.9660    3.1540    1.6730 hx        1 FJD      0.097200
     50 H232       12.6290    3.0090    0.9130 hx        1 FJD      0.097200
     51 H321       12.9250    1.7130    4.3600 hx        1 FJD      0.102367
     52 H322       13.3630    3.0790    3.2180 hx        1 FJD      0.102367
     53 H323       11.6600    2.9520    3.8880 hx        1 FJD      0.102367
     54 H311       11.3440    0.0410    3.6840 hx        1 FJD      0.102367
     55 H312       10.8120   -0.0950    1.9350 hx        1 FJD      0.102367
     56 H313       10.1300    1.2340    2.9980 hx        1 FJD      0.102367
     57 H301       14.1690    1.3840    1.6370 hx        1 FJD      0.102367
     58 H302       13.6610    0.0590    2.8000 hx        1 FJD      0.102367
     59 H303       13.0440    0.0510    1.0750 hx        1 FJD      0.102367
@<TRIPOS>BOND
     1    1    2 1   
     2    2    3 2   
     3    2    5 1   
     4    3    4 1   
     5    3   32 1   
     6    4    6 2   
     7    4   33 1   
     8    5    6 1   
     9    6    7 1   
    10    7    8 1   
    11    7    9 2   
    12    8   11 1   
    13    9   10 1   
    14    9   34 1   
    15   10   11 2   
    16   11   12 1   
    17   12   13 1   
    18   12   19 1   
    19   12   35 1   
    20   13   14 1   
    21   13   17 1   
    22   14   15 1   
    23   14   18 1   
    24   14   36 1   
    25   15   16 1   
    26   15   41 1   
    27   15   42 1   
    28   16   17 1   
    29   16   43 1   
    30   16   44 1   
    31   17   37 1   
    32   17   38 1   
    33   18   19 1   
    34   18   22 1   
    35   18   39 1   
    36   19   20 1   
    37   19   40 1   
    38   20   21 2   
    39   20   24 1   
    40   22   23 2   
    41   22   24 1   
    42   24   25 1   
    43   25   26 1   
    44   25   45 1   
    45   25   46 1   
    46   26   27 1   
    47   26   47 1   
    48   26   48 1   
    49   27   28 1   
    50   27   49 1   
    51   27   50 1   
    52   28   29 1   
    53   28   30 1   
    54   28   31 1   
    55   29   51 1   
    56   29   52 1   
    57   29   53 1   
    58   30   54 1   
    59   30   55 1   
    60   30   56 1   
    61   31   57 1   
    62   31   58 1   
    63   31   59 1   
@<TRIPOS>SUBSTRUCTURE
     1 FJD         1 TEMP              0 ****  ****    0 ROOT
