@<TRIPOS>MOLECULE
FJD
   59    63     1     0     0
SMALL
bcc


@<TRIPOS>ATOM
      1 CL1        -7.7000    0.3880    0.0630 cl        1 FJD     -0.004400
      2 C25        -6.0750    0.7210    0.2410 cc        1 FJD     -0.033700
      3 C24        -5.5520    1.9460    0.6330 cd        1 FJD     -0.152000
      4 C22        -4.1350    1.9090    0.6900 cd        1 FJD     -0.120000
      5 S1         -4.8720   -0.4080   -0.0390 ss        1 FJD      0.140200
      6 C20        -3.6310    0.6570    0.3400 cc        1 FJD     -0.198600
      7 C17        -2.2440    0.3520    0.3130 cc        1 FJD      0.288900
      8 O16        -1.8370   -0.9570    0.0080 os        1 FJD     -0.374800
      9 C10        -1.0870    1.1010    0.5300 cd        1 FJD      0.218900
     10 N9          0.0380    0.2840    0.3680 nd        1 FJD     -0.682000
     11 C4         -0.4310   -0.9240    0.0560 cc        1 FJD      0.498700
     12 C1          0.2260   -2.2520   -0.1930 c3        1 FJD      0.168200
     13 N3          0.8330   -2.7400    1.0550 n3        1 FJD     -0.696600
     14 C7          2.2680   -3.0220    0.8280 c3        1 FJD      0.173500
     15 C14         2.5400   -4.5140    1.1070 c3        1 FJD     -0.092400
     16 C15         1.2260   -5.0960    1.6130 c3        1 FJD     -0.101400
     17 C8          0.2150   -3.9390    1.6250 c3        1 FJD      0.148800
     18 C5          2.6370   -2.6000   -0.6030 c3        1 FJD     -0.146700
     19 C2          1.3150   -2.1800   -1.2930 c3        1 FJD     -0.147700
     20 C6          1.5820   -0.7830   -1.8460 c         1 FJD      0.724500
     21 O13         0.8590   -0.1170   -2.5880 o         1 FJD     -0.558500
     22 C11         3.5030   -1.3430   -0.6280 c         1 FJD      0.715500
     23 O18         4.5860   -1.1630   -0.0620 o         1 FJD     -0.594500
     24 N12         2.8720   -0.3650   -1.4300 n         1 FJD     -0.515400
     25 C19         3.3820    0.9600   -1.6110 c3        1 FJD      0.116000
     26 C21         3.3680    1.7950   -0.3190 c3        1 FJD     -0.144400
     27 C23         3.9780    3.1530   -0.6170 c3        1 FJD      0.120800
     28 N29         4.2110    4.0200    0.5990 n4        1 FJD     -0.602800
     29 C32         4.6170    5.3820    0.1360 c3        1 FJD      0.088433
     30 C31         2.9620    4.1290    1.4070 c3        1 FJD      0.088433
     31 C30         5.3020    3.4480    1.4420 c3        1 FJD      0.088433
     32 H24        -6.1450    2.8330    0.8710 ha        1 FJD      0.174000
     33 H22        -3.5210    2.7660    0.9780 ha        1 FJD      0.155000
     34 H10        -0.9970    2.1540    0.7900 h4        1 FJD      0.041100
     35 H1         -0.5960   -2.9420   -0.5590 h1        1 FJD      0.090700
     36 H7          2.8430   -2.3950    1.5680 h1        1 FJD      0.091700
     37 H82        -0.0600   -3.6740    2.6840 h1        1 FJD      0.063200
     38 H81        -0.7290   -4.2330    1.0910 h1        1 FJD      0.063200
     39 H5          3.1680   -3.4140   -1.1570 hc        1 FJD      0.113700
     40 H2          1.0440   -2.8570   -2.1420 hc        1 FJD      0.113700
     41 H141        2.8830   -5.0470    0.1870 hc        1 FJD      0.060200
     42 H142        3.3460   -4.6130    1.8750 hc        1 FJD      0.060200
     43 H151        0.8720   -5.9210    0.9480 hc        1 FJD      0.060700
     44 H152        1.3430   -5.5180    2.6420 hc        1 FJD      0.060700
     45 H191        4.4470    0.8790   -1.9760 h1        1 FJD      0.074700
     46 H192        2.7590    1.4720   -2.3990 h1        1 FJD      0.074700
     47 H211        2.3100    1.9040    0.0430 hc        1 FJD      0.088200
     48 H212        3.9520    1.2470    0.4690 hc        1 FJD      0.088200
     49 H231        4.9780    3.0240   -1.1240 hx        1 FJD      0.097200
     50 H232        3.2930    3.7260   -1.3070 hx        1 FJD      0.097200
     51 H321        3.7810    5.8400   -0.4570 hx        1 FJD      0.102367
     52 H322        4.8410    6.0260    1.0270 hx        1 FJD      0.102367
     53 H323        5.5340    5.2980   -0.5070 hx        1 FJD      0.102367
     54 H311        2.7110    3.1260    1.8480 hx        1 FJD      0.102367
     55 H312        3.1190    4.8720    2.2340 hx        1 FJD      0.102367
     56 H313        2.1210    4.4680    0.7460 hx        1 FJD      0.102367
     57 H301        6.2410    3.3670    0.8320 hx        1 FJD      0.102367
     58 H302        5.4810    4.1220    2.3220 hx        1 FJD      0.102367
     59 H303        5.0040    2.4290    1.8070 hx        1 FJD      0.102367
@<TRIPOS>BOND
     1    1    2 1   
     2    2    3 2   
     3    2    5 1   
     4    3    4 1   
     5    3   32 1   
     6    4    6 2   
     7    4   33 1   
     8    5    6 1   
     9    6    7 1   
    10    7    8 1   
    11    7    9 2   
    12    8   11 1   
    13    9   10 1   
    14    9   34 1   
    15   10   11 2   
    16   11   12 1   
    17   12   13 1   
    18   12   19 1   
    19   12   35 1   
    20   13   14 1   
    21   13   17 1   
    22   14   15 1   
    23   14   18 1   
    24   14   36 1   
    25   15   16 1   
    26   15   41 1   
    27   15   42 1   
    28   16   17 1   
    29   16   43 1   
    30   16   44 1   
    31   17   37 1   
    32   17   38 1   
    33   18   19 1   
    34   18   22 1   
    35   18   39 1   
    36   19   20 1   
    37   19   40 1   
    38   20   21 2   
    39   20   24 1   
    40   22   23 2   
    41   22   24 1   
    42   24   25 1   
    43   25   26 1   
    44   25   45 1   
    45   25   46 1   
    46   26   27 1   
    47   26   47 1   
    48   26   48 1   
    49   27   28 1   
    50   27   49 1   
    51   27   50 1   
    52   28   29 1   
    53   28   30 1   
    54   28   31 1   
    55   29   51 1   
    56   29   52 1   
    57   29   53 1   
    58   30   54 1   
    59   30   55 1   
    60   30   56 1   
    61   31   57 1   
    62   31   58 1   
    63   31   59 1   
@<TRIPOS>SUBSTRUCTURE
     1 FJD         1 TEMP              0 ****  ****    0 ROOT
