@<TRIPOS>MOLECULE
FJD
   59    59     1     0     0
SMALL
bcc


@<TRIPOS>ATOM
      1 CL1        -8.2830   -1.2660    2.7420 cl        1 FJD      0.070000
      2 C25        -6.7260   -1.7760    2.4110 c2        1 FJD     -0.383000
      3 C24        -5.9820   -2.7640    3.1570 c1        1 FJD     -0.151000
      4 C22        -4.5090   -2.8630    2.5380 c1        1 FJD     -0.122000
      5 S1         -5.7890   -1.2070    1.3040 ss        1 FJD      0.670000
      6 C20        -4.4140   -1.9300    1.4370 c2        1 FJD     -0.355000
      7 C17        -3.2550   -1.6440    0.6980 c2        1 FJD      0.040000
      8 O16        -3.1760   -1.5620   -0.6340 os        1 FJD     -0.116000
      9 C10        -1.9680   -1.5740    1.2030 c1        1 FJD     -0.169000
     10 N9         -1.1230   -1.4510    0.1700 n2        1 FJD     -0.150000
     11 C4         -1.8530   -1.4420   -0.9730 c1        1 FJD      0.006000
     12 C1         -1.3090   -1.3660   -2.3490 c2        1 FJD      0.070000
     13 N3         -0.7100   -2.6360   -2.7250 n3        1 FJD     -0.221000
     14 C7          0.6990   -2.5260   -2.3980 c3        1 FJD     -0.022000
     15 C14         1.4210   -2.9330   -3.6150 c3        1 FJD     -0.169000
     16 C15         0.2690   -3.6020   -4.6170 c3        1 FJD     -0.179000
     17 C8         -0.8080   -3.7480   -3.8600 c3        1 FJD     -0.086000
     18 C5          0.9710   -1.0070   -2.0530 c3        1 FJD     -0.139000
     19 C2         -0.1850   -0.3240   -2.4140 c3        1 FJD     -0.141000
     20 C6         -0.4370    0.6860   -1.4110 c2        1 FJD      0.340000
     21 O13        -1.3770    1.5710   -1.4420 o         1 FJD     -0.321000
     22 C11         1.2140   -0.7780   -0.6350 c2        1 FJD      0.324000
     23 O18         2.0950   -1.2740    0.0260 o         1 FJD     -0.292000
     24 N12         0.3920    0.3420   -0.2510 n         1 FJD     -0.344000
     25 C19         0.4850    1.0880    0.9940 c3        1 FJD     -0.005000
     26 C21         1.5150    2.2450    0.8420 c3        1 FJD     -0.211000
     27 C23         2.2210    2.4610    2.1830 c3        1 FJD     -0.118000
     28 N29         2.9460    3.7580    2.1700 n4        1 FJD      0.029000
     29 C32         3.4560    4.0360    0.7950 c3        1 FJD     -0.188000
     30 C31         4.0630    3.6930    3.1060 c3        1 FJD     -0.188000
     31 C30         2.0450    4.8150    2.5660 c3        1 FJD     -0.188000
     32 H24        -6.3010   -3.2550    3.8700 DU        1 FJD      0.172667
     33 H22        -3.8280   -3.4260    2.8370 DU        1 FJD      0.172667
     34 H10        -1.7290   -1.6070    2.1050 DU        1 FJD      0.172667
     35 H1         -2.0360   -1.1280   -2.9920 h4        1 FJD      0.130000
     36 H7          0.9290   -3.1110   -1.6350 h1        1 FJD      0.139000
     37 H82        -0.8180   -4.6770   -3.4420 h1        1 FJD      0.100500
     38 H81        -1.5910   -3.6160   -4.3790 h1        1 FJD      0.100500
     39 H5          1.7410   -0.6700   -2.5870 hc        1 FJD      0.148000
     40 H2         -0.1080    0.0550   -3.2900 hc        1 FJD      0.147000
     41 H141        2.1150   -3.6020   -3.3940 hc        1 FJD      0.100000
     42 H142        1.8180   -2.1720   -4.0320 hc        1 FJD      0.100000
     43 H151        0.5740   -4.4890   -4.9530 hc        1 FJD      0.099500
     44 H152        0.0790   -3.0000   -5.3690 hc        1 FJD      0.099500
     45 H191        0.7910    0.4640    1.7440 h1        1 FJD      0.117500
     46 H192       -0.3770    1.4510    1.2130 h1        1 FJD      0.117500
     47 H211        1.0460    3.0720    0.5780 hc        1 FJD      0.119500
     48 H212        2.1980    2.0010    0.1360 hc        1 FJD      0.119500
     49 H231        1.5440    2.4690    2.9120 hx        1 FJD      0.139000
     50 H232        2.8780    1.7090    2.3420 hx        1 FJD      0.139000
     51 H321        4.1730    4.6830    0.8420 hx        1 FJD      0.141556
     52 H322        3.7900    3.2100    0.3960 hx        1 FJD      0.141556
     53 H323        2.7170    4.4000    0.2370 hx        1 FJD      0.141556
     54 H311        4.4990    4.5520    3.1480 hx        1 FJD      0.141556
     55 H312        3.7300    3.4530    3.9950 hx        1 FJD      0.141556
     56 H313        4.7020    3.0140    2.8030 hx        1 FJD      0.141556
     57 H301        1.2760    4.8020    2.0040 hx        1 FJD      0.141556
     58 H302        2.5180    5.7150    2.4770 hx        1 FJD      0.141556
     59 H303        1.7800    4.6840    3.4690 hx        1 FJD      0.141556
@<TRIPOS>BOND
     1    1    2 1   
     2    2    3 1   
     3    2    5 1   
     4    3    4 1   
     5    4    6 1   
     6    5    6 1   
     7    6    7 1   
     8    7    8 1   
     9    7    9 1   
    10    8   11 1   
    11    9   10 1   
    12   10   11 1   
    13   12   13 1   
    14   12   19 1   
    15   12   35 1   
    16   13   14 1   
    17   13   17 1   
    18   14   15 1   
    19   14   18 1   
    20   14   36 1   
    21   15   16 1   
    22   15   41 1   
    23   15   42 1   
    24   16   17 1   
    25   16   43 1   
    26   16   44 1   
    27   17   37 1   
    28   17   38 1   
    29   18   19 1   
    30   18   22 1   
    31   18   39 1   
    32   19   20 1   
    33   19   40 1   
    34   20   21 1   
    35   20   24 1   
    36   22   23 1   
    37   22   24 1   
    38   24   25 1   
    39   25   26 1   
    40   25   45 1   
    41   25   46 1   
    42   26   27 1   
    43   26   47 1   
    44   26   48 1   
    45   27   28 1   
    46   27   49 1   
    47   27   50 1   
    48   28   29 1   
    49   28   30 1   
    50   28   31 1   
    51   29   51 1   
    52   29   52 1   
    53   29   53 1   
    54   30   54 1   
    55   30   55 1   
    56   30   56 1   
    57   31   57 1   
    58   31   58 1   
    59   31   59 1   
@<TRIPOS>SUBSTRUCTURE
     1 FJD         1 TEMP              0 ****  ****    0 ROOT
