@<TRIPOS>MOLECULE
FJD
   59    63     1     0     0
SMALL
bcc


@<TRIPOS>ATOM
      1 CL1         0.1530   -0.4380   -0.3610 cl        1 FJD     -0.004400
      2 C25         1.8000   -0.3120   -0.1190 cc        1 FJD     -0.033700
      3 C24         2.4230   -0.2980    1.1210 cd        1 FJD     -0.152000
      4 C22         3.8310   -0.1810    0.9920 cd        1 FJD     -0.120000
      5 S1          2.9030   -0.1850   -1.3710 ss        1 FJD      0.140200
      6 C20         4.2270   -0.1090   -0.3430 cc        1 FJD     -0.198600
      7 C17         5.5820    0.0150   -0.7500 cc        1 FJD      0.288900
      8 O16         5.8870    0.0160   -2.1200 os        1 FJD     -0.374800
      9 C10         6.7880    0.1520   -0.0610 cd        1 FJD      0.218900
     10 N9          7.8440    0.2380   -0.9770 nd        1 FJD     -0.682000
     11 C4          7.2860    0.1600   -2.1850 cc        1 FJD      0.498700
     12 C1          7.8460    0.1340   -3.5780 c3        1 FJD      0.168200
     13 N3          8.6060   -1.1100   -3.7780 n3        1 FJD     -0.696600
     14 C7          9.9810   -0.7820   -4.2180 c3        1 FJD      0.173500
     15 C14        10.2290   -1.4060   -5.6060 c3        1 FJD     -0.092400
     16 C15         8.9800   -2.2120   -5.9380 c3        1 FJD     -0.101400
     17 C8          8.0280   -2.0490   -4.7420 c3        1 FJD      0.148800
     18 C5         10.1570    0.7440   -4.2030 c3        1 FJD     -0.146700
     19 C2          8.7670    1.3440   -3.8720 c3        1 FJD     -0.147700
     20 C6          9.0080    2.2750   -2.6860 c         1 FJD      0.724500
     21 O13         8.2130    3.0650   -2.1760 o         1 FJD     -0.558500
     22 C11        11.0600    1.2090   -3.0630 c         1 FJD      0.715500
     23 O18        12.2200    0.8550   -2.8300 o         1 FJD     -0.594500
     24 N12        10.3600    2.1520   -2.2760 n         1 FJD     -0.515400
     25 C19        10.8930    2.7380   -1.0840 c3        1 FJD      0.116000
     26 C21        11.0980    1.7190    0.0510 c3        1 FJD     -0.144400
     27 C23        11.7140    2.4390    1.2380 c3        1 FJD      0.120800
     28 N29        12.1540    1.5340    2.3640 n4        1 FJD     -0.602800
     29 C32        12.5450    2.3860    3.5290 c3        1 FJD      0.088433
     30 C31        11.0400    0.6290    2.7710 c3        1 FJD      0.088433
     31 C30        13.3320    0.7180    1.9440 c3        1 FJD      0.088433
     32 H24         1.9060   -0.3690    2.0820 ha        1 FJD      0.174000
     33 H22         4.5130   -0.1520    1.8440 ha        1 FJD      0.155000
     34 H10         6.9570    0.1920    1.0130 h4        1 FJD      0.041100
     35 H1          6.9520    0.1970   -4.2740 h1        1 FJD      0.090700
     36 H7         10.6810   -1.2520   -3.4690 h1        1 FJD      0.091700
     37 H82         7.0060   -1.7370   -5.0880 h1        1 FJD      0.063200
     38 H81         7.9200   -3.0280   -4.1970 h1        1 FJD      0.063200
     39 H5         10.5690    1.1290   -5.1690 hc        1 FJD      0.113700
     40 H2          8.3500    1.9440   -4.7200 hc        1 FJD      0.113700
     41 H141       10.4140   -0.6210   -6.3800 hc        1 FJD      0.060200
     42 H142       11.1330   -2.0620   -5.5680 hc        1 FJD      0.060200
     43 H151        9.2260   -3.2910   -6.0920 hc        1 FJD      0.060700
     44 H152        8.5000   -1.8370   -6.8750 hc        1 FJD      0.060700
     45 H191       11.8900    3.2020   -1.3360 h1        1 FJD      0.074700
     46 H192       10.1830    3.5460   -0.7420 h1        1 FJD      0.074700
     47 H211       11.7670    0.8970   -0.3220 hc        1 FJD      0.088200
     48 H212       10.1090    1.2660    0.3290 hc        1 FJD      0.088200
     49 H231       10.9610    3.1620    1.6670 hx        1 FJD      0.097200
     50 H232       12.6240    3.0180    0.9080 hx        1 FJD      0.097200
     51 H321       13.3550    3.0960    3.2150 hx        1 FJD      0.102367
     52 H322       12.9210    1.7320    4.3590 hx        1 FJD      0.102367
     53 H323       11.6520    2.9660    3.8840 hx        1 FJD      0.102367
     54 H311       10.1280    1.2420    2.9950 hx        1 FJD      0.102367
     55 H312       11.3450    0.0530    3.6850 hx        1 FJD      0.102367
     56 H313       10.8150   -0.0880    1.9360 hx        1 FJD      0.102367
     57 H301       13.0480    0.0630    1.0770 hx        1 FJD      0.102367
     58 H302       13.6620    0.0760    2.8040 hx        1 FJD      0.102367
     59 H303       14.1680    1.4000    1.6390 hx        1 FJD      0.102367
@<TRIPOS>BOND
     1    1    2 1   
     2    2    3 2   
     3    2    5 1   
     4    3    4 1   
     5    3   32 1   
     6    4    6 2   
     7    4   33 1   
     8    5    6 1   
     9    6    7 1   
    10    7    8 1   
    11    7    9 2   
    12    8   11 1   
    13    9   10 1   
    14    9   34 1   
    15   10   11 2   
    16   11   12 1   
    17   12   13 1   
    18   12   19 1   
    19   12   35 1   
    20   13   14 1   
    21   13   17 1   
    22   14   15 1   
    23   14   18 1   
    24   14   36 1   
    25   15   16 1   
    26   15   41 1   
    27   15   42 1   
    28   16   17 1   
    29   16   43 1   
    30   16   44 1   
    31   17   37 1   
    32   17   38 1   
    33   18   19 1   
    34   18   22 1   
    35   18   39 1   
    36   19   20 1   
    37   19   40 1   
    38   20   21 2   
    39   20   24 1   
    40   22   23 2   
    41   22   24 1   
    42   24   25 1   
    43   25   26 1   
    44   25   45 1   
    45   25   46 1   
    46   26   27 1   
    47   26   47 1   
    48   26   48 1   
    49   27   28 1   
    50   27   49 1   
    51   27   50 1   
    52   28   29 1   
    53   28   30 1   
    54   28   31 1   
    55   29   51 1   
    56   29   52 1   
    57   29   53 1   
    58   30   54 1   
    59   30   55 1   
    60   30   56 1   
    61   31   57 1   
    62   31   58 1   
    63   31   59 1   
@<TRIPOS>SUBSTRUCTURE
     1 FJD         1 TEMP              0 ****  ****    0 ROOT
