@<TRIPOS>MOLECULE
FJP
   45    44     1     0     0
SMALL
bcc


@<TRIPOS>ATOM
      1 CAA         0.7640    3.7620   -0.3680 c3        1 FJP     -0.115400
      2 CAB         1.0530    2.0710    1.4120 c3        1 FJP     -0.115400
      3 CAC         5.8190   -1.1380   -0.4990 c3        1 FJP     -0.047900
      4 CAD        -0.6210   -3.4840    0.9870 c3        1 FJP     -0.018900
      5 OAE        -1.7640    1.9640    0.0870 o         1 FJP     -0.932167
      6 OAF        -3.7600    0.8260    1.1550 o         1 FJP     -0.932167
      7 OAG        -4.0220    2.0080   -1.1130 o         1 FJP     -0.932167
      8 CAH         2.8540    2.4500   -0.3010 c2        1 FJP     -0.298200
      9 CAI         3.7210   -1.9530    0.5110 c2        1 FJP     -0.158200
     10 CAJ        -0.7440   -1.3790   -0.3360 c2        1 FJP     -0.079200
     11 CAK         3.7790    1.3860    0.1510 c3        1 FJP     -0.007200
     12 CAL         2.2830   -1.9100    0.8700 c3        1 FJP     -0.059200
     13 CAM        -2.1980   -1.1120   -0.0770 c3        1 FJP      0.228600
     14 CAN         3.6990    0.1820   -0.7780 c3        1 FJP     -0.046200
     15 CAO         1.4090   -2.5800   -0.1810 c3        1 FJP     -0.002200
     16 OAP        -2.6980   -0.1430   -0.9070 os        1 FJP     -0.563200
     17 CAQ         1.6560    2.7400    0.2360 c2        1 FJP     -0.001400
     18 CAR         4.3680   -1.0210   -0.2070 c2        1 FJP     -0.137400
     19 CAS        -0.0390   -2.4240    0.1330 c2        1 FJP     -0.271400
     20 PAT        -3.1290    1.3420   -0.1100 p5        1 FJP      1.328900
     21 HAA        -0.2550    3.2820   -0.5380 hc        1 FJP      0.068200
     22 HAAA        0.6230    4.6160    0.3390 hc        1 FJP      0.068200
     23 HAAB        1.1660    4.1570   -1.3310 hc        1 FJP      0.068200
     24 HAB         0.9740    2.7960    2.2590 hc        1 FJP      0.068200
     25 HABA       -0.0040    1.7490    1.1320 hc        1 FJP      0.068200
     26 HABB        1.6320    1.1830    1.7550 hc        1 FJP      0.068200
     27 HAC         5.9800   -1.2820   -1.5960 hc        1 FJP      0.023033
     28 HACA        6.3450   -0.1990   -0.1920 hc        1 FJP      0.023033
     29 HACB        6.2850   -1.9980    0.0410 hc        1 FJP      0.023033
     30 HAD         0.0740   -3.7400    1.8260 hc        1 FJP      0.013367
     31 HADA       -1.5970   -3.1560    1.4230 hc        1 FJP      0.013367
     32 HADB       -0.7970   -4.4150    0.3910 hc        1 FJP      0.013367
     33 HAH         3.1950    2.9910   -1.1980 ha        1 FJP      0.091000
     34 HAI         4.2680   -2.8360    0.8820 ha        1 FJP      0.089000
     35 HAJ        -0.2530   -0.6080   -0.9580 ha        1 FJP      0.136000
     36 HAK         4.8330    1.7750    0.1590 hc        1 FJP      0.020700
     37 HAKA        3.5450    1.0610    1.1990 hc        1 FJP      0.020700
     38 HAL         2.1310   -2.4250    1.8560 hc        1 FJP      0.056200
     39 HALA        1.9390   -0.8460    0.9970 hc        1 FJP      0.056200
     40 HAM        -2.7580   -2.0830   -0.2470 h1        1 FJP      0.015700
     41 HAMA       -2.3270   -0.8180    1.0100 h1        1 FJP      0.015700
     42 HAN         2.6160   -0.0450   -0.9830 hc        1 FJP      0.053200
     43 HANA        4.1730    0.4430   -1.7610 hc        1 FJP      0.053200
     44 HAO         1.6350   -2.1260   -1.1830 hc        1 FJP      0.017200
     45 HAOA        1.6750   -3.6690   -0.2420 hc        1 FJP      0.017200
@<TRIPOS>BOND
     1    1   17 1   
     2    1   21 1   
     3    1   22 1   
     4    1   23 1   
     5    2   17 1   
     6    2   24 1   
     7    2   25 1   
     8    2   26 1   
     9    3   18 1   
    10    3   27 1   
    11    3   28 1   
    12    3   29 1   
    13    4   19 1   
    14    4   30 1   
    15    4   31 1   
    16    4   32 1   
    17    5   20 1   
    18    6   20 1   
    19    7   20 1   
    20    8   11 1   
    21    8   17 2   
    22    8   33 1   
    23    9   12 1   
    24    9   18 2   
    25    9   34 1   
    26   10   13 1   
    27   10   19 2   
    28   10   35 1   
    29   11   14 1   
    30   11   36 1   
    31   11   37 1   
    32   12   15 1   
    33   12   38 1   
    34   12   39 1   
    35   13   16 1   
    36   13   40 1   
    37   13   41 1   
    38   14   18 1   
    39   14   42 1   
    40   14   43 1   
    41   15   19 1   
    42   15   44 1   
    43   15   45 1   
    44   16   20 1   
@<TRIPOS>SUBSTRUCTURE
     1 FJP         1 TEMP              0 ****  ****    0 ROOT
