@<TRIPOS>MOLECULE
FJP
   45    44     1     0     0
SMALL
bcc


@<TRIPOS>ATOM
      1 CAA         0.1570   -0.6790    0.3270 c3        1 FJP     -0.115400
      2 CAB         2.2900   -1.0160    1.5300 c3        1 FJP     -0.115400
      3 CAC         6.4320   -0.6060   -2.8680 c3        1 FJP     -0.047900
      4 CAD         5.3380   -5.9720    1.5140 c3        1 FJP     -0.018900
      5 OAE         0.3260   -3.4110    1.8550 o         1 FJP     -0.932167
      6 OAF         0.5380   -5.1450    3.6910 o         1 FJP     -0.932167
      7 OAG        -1.4020   -5.2910    2.0110 o         1 FJP     -0.932167
      8 CAH         2.2730   -0.1340   -0.8230 c2        1 FJP     -0.298200
      9 CAI         6.3270   -2.2120   -0.9990 c2        1 FJP     -0.158200
     10 CAJ         3.1730   -5.0950    0.6520 c2        1 FJP     -0.079200
     11 CAK         3.7390   -0.0720   -1.0190 c3        1 FJP     -0.007200
     12 CAL         5.6740   -3.0240    0.0560 c3        1 FJP     -0.059200
     13 CAM         2.3050   -5.8020    1.6510 c3        1 FJP      0.228600
     14 CAN         4.2090   -1.2370   -1.8810 c3        1 FJP     -0.046200
     15 CAO         5.2760   -4.4040   -0.4470 c3        1 FJP     -0.002200
     16 OAP         0.9820   -5.7690    1.2970 os        1 FJP     -0.563200
     17 CAQ         1.6370   -0.5610    0.2820 c2        1 FJP     -0.001400
     18 CAR         5.6900   -1.4000   -1.8570 c2        1 FJP     -0.137400
     19 CAS         4.5150   -5.1630    0.5870 c2        1 FJP     -0.271400
     20 PAT        -0.0230   -4.8020    2.3380 p5        1 FJP      1.328900
     21 HAA        -0.1000   -1.7360    0.6660 hc        1 FJP      0.068200
     22 HAAA       -0.2620    0.0310    1.0810 hc        1 FJP      0.068200
     23 HAAB       -0.3130   -0.4690   -0.6630 hc        1 FJP      0.068200
     24 HAB         1.8510   -2.0300    1.8100 hc        1 FJP      0.068200
     25 HABA        2.0570   -0.3040    2.3600 hc        1 FJP      0.068200
     26 HABB        3.3970   -1.1060    1.4380 hc        1 FJP      0.068200
     27 HAC         7.5380   -0.6870   -2.7320 hc        1 FJP      0.023033
     28 HACA        6.1420    0.4720   -2.7910 hc        1 FJP      0.023033
     29 HACB        6.1770   -0.9610   -3.8980 hc        1 FJP      0.023033
     30 HAD         5.6910   -6.9080    1.0110 hc        1 FJP      0.013367
     31 HADA        6.2410   -5.3980    1.8420 hc        1 FJP      0.013367
     32 HADB        4.7520   -6.2600    2.4220 hc        1 FJP      0.013367
     33 HAH         1.6880    0.1550   -1.7120 ha        1 FJP      0.091000
     34 HAI         7.4250   -2.3100   -1.0510 ha        1 FJP      0.089000
     35 HAJ         2.6110   -4.4620   -0.0590 ha        1 FJP      0.136000
     36 HAK         4.0160    0.8930   -1.5230 hc        1 FJP      0.020700
     37 HAKA        4.2820   -0.0960   -0.0380 hc        1 FJP      0.020700
     38 HAL         6.3770   -3.1390    0.9240 hc        1 FJP      0.056200
     39 HALA        4.7550   -2.5030    0.4430 hc        1 FJP      0.056200
     40 HAM         2.6560   -6.8790    1.7060 h1        1 FJP      0.015700
     41 HAMA        2.4620   -5.3290    2.6700 h1        1 FJP      0.015700
     42 HAN         3.8670   -1.0740   -2.9380 hc        1 FJP      0.053200
     43 HANA        3.7150   -2.1790   -1.5150 hc        1 FJP      0.053200
     44 HAO         4.6510   -4.2860   -1.3730 hc        1 FJP      0.017200
     45 HAOA        6.1990   -4.9720   -0.7390 hc        1 FJP      0.017200
@<TRIPOS>BOND
     1    1   17 1   
     2    1   21 1   
     3    1   22 1   
     4    1   23 1   
     5    2   17 1   
     6    2   24 1   
     7    2   25 1   
     8    2   26 1   
     9    3   18 1   
    10    3   27 1   
    11    3   28 1   
    12    3   29 1   
    13    4   19 1   
    14    4   30 1   
    15    4   31 1   
    16    4   32 1   
    17    5   20 1   
    18    6   20 1   
    19    7   20 1   
    20    8   11 1   
    21    8   17 2   
    22    8   33 1   
    23    9   12 1   
    24    9   18 2   
    25    9   34 1   
    26   10   13 1   
    27   10   19 2   
    28   10   35 1   
    29   11   14 1   
    30   11   36 1   
    31   11   37 1   
    32   12   15 1   
    33   12   38 1   
    34   12   39 1   
    35   13   16 1   
    36   13   40 1   
    37   13   41 1   
    38   14   18 1   
    39   14   42 1   
    40   14   43 1   
    41   15   19 1   
    42   15   44 1   
    43   15   45 1   
    44   16   20 1   
@<TRIPOS>SUBSTRUCTURE
     1 FJP         1 TEMP              0 ****  ****    0 ROOT
