@<TRIPOS>MOLECULE
FJP
   45    41     1     0     0
SMALL
bcc


@<TRIPOS>ATOM
      1 CAA        -2.0750   -1.5910    5.6920 c3        1 FJP     -0.173500
      2 CAB         0.0610   -1.7610    7.1990 c3        1 FJP     -0.173500
      3 CAC        -1.0110   -1.9010    0.4140 c3        1 FJP     -0.157000
      4 CAD        -1.2670    2.1880   -3.6540 c3        1 FJP     -0.157000
      5 OAE         1.2080    0.7970   -8.2590 o         1 FJP     -0.933500
      6 OAF         3.6210    1.2800   -8.0980 o         1 FJP     -0.933500
      7 OAG         1.9840    3.1190   -7.9650 o         1 FJP     -0.933500
      8 CAH         0.2100   -1.4080    4.7510 c1        1 FJP     -0.150000
      9 CAI         0.4240    0.1140    0.2690 c1        1 FJP     -0.086000
     10 CAJ         1.1210    1.5720   -3.9010 c1        1 FJP     -0.086000
     11 CAK        -0.4210   -1.2260    3.3880 c2        1 FJP     -0.139000
     12 CAL        -0.1940    0.3950   -1.0830 c2        1 FJP     -0.139000
     13 CAM         0.9330    1.6510   -5.4010 c2        1 FJP      0.036000
     14 CAN         0.6570   -1.2490    2.3260 c3        1 FJP     -0.099000
     15 CAO         0.2720    1.7460   -1.5790 c3        1 FJP     -0.099000
     16 OAP         2.1800    1.5010   -6.0380 os        1 FJP     -0.728000
     17 CAQ        -0.5690   -1.5800    5.8360 c2        1 FJP     -0.143000
     18 CAR         0.0390   -0.9680    0.9740 c2        1 FJP     -0.222000
     19 CAS         0.0840    1.8250   -3.0780 c2        1 FJP     -0.222000
     20 PAT         2.2490    1.6760   -7.6080 p5        1 FJP      1.544500
     21 HAA        -2.4870   -1.6910    6.5760 hc        1 FJP      0.074333
     22 HAAA       -2.3710   -0.7490    5.2870 hc        1 FJP      0.074333
     23 HAAB       -2.3430   -2.3400    5.1200 hc        1 FJP      0.074333
     24 HAB        -0.6310   -2.0020    7.8500 hc        1 FJP      0.074333
     25 HABA        0.4920   -0.9250    7.4740 hc        1 FJP      0.074333
     26 HABB        0.7320   -2.4750    7.1570 hc        1 FJP      0.074333
     27 HAC        -0.8010   -2.1050   -0.5220 hc        1 FJP      0.066500
     28 HACA       -1.8910   -1.4720    0.4650 hc        1 FJP      0.066500
     29 HACB       -1.0220   -2.7310    0.9350 hc        1 FJP      0.066500
     30 HAD        -1.1700    2.9520   -4.2600 hc        1 FJP      0.066500
     31 HADA       -1.6290    1.4230   -4.1470 hc        1 FJP      0.066500
     32 HADB       -1.8790    2.4260   -2.9260 hc        1 FJP      0.066500
     33 HAH         1.1820   -1.4010    4.8440 ha        1 FJP      0.118000
     34 HAI         1.1020    0.7160    0.6300 ha        1 FJP      0.111500
     35 HAJ         1.9920    1.3380   -3.5300 ha        1 FJP      0.111500
     36 HAK        -1.0560   -1.9520    3.2230 ha        1 FJP      0.095250
     37 HAKA       -0.8900   -0.3690    3.3570 ha        1 FJP      0.095250
     38 HAL        -1.1680    0.3950   -1.0020 ha        1 FJP      0.095250
     39 HALA        0.0810   -0.2970   -1.7170 ha        1 FJP      0.095250
     40 HAM         0.5480    2.5200   -5.6360 h4        1 FJP      0.081500
     41 HAMA        0.3290    0.9360   -5.6920 h4        1 FJP      0.081500
     42 HAN         1.3270   -0.5640    2.5270 hc        1 FJP      0.065750
     43 HANA        1.0840   -2.1290    2.3130 hc        1 FJP      0.065750
     44 HAO         1.2180    1.8650   -1.3630 hc        1 FJP      0.065750
     45 HAOA       -0.2520    2.4500   -1.1480 hc        1 FJP      0.065750
@<TRIPOS>BOND
     1    1   17 1   
     2    1   21 1   
     3    1   22 1   
     4    1   23 1   
     5    2   17 1   
     6    2   24 1   
     7    2   25 1   
     8    2   26 1   
     9    3   18 1   
    10    3   27 1   
    11    3   28 1   
    12    3   29 1   
    13    4   19 1   
    14    4   30 1   
    15    4   31 1   
    16    4   32 1   
    17    5   20 1   
    18    6   20 1   
    19    7   20 1   
    20    8   17 1   
    21    8   33 1   
    22    9   18 1   
    23    9   34 1   
    24   10   19 1   
    25   10   35 1   
    26   11   14 1   
    27   11   36 1   
    28   11   37 1   
    29   12   15 1   
    30   12   38 1   
    31   12   39 1   
    32   13   16 1   
    33   13   40 1   
    34   13   41 1   
    35   14   18 1   
    36   14   42 1   
    37   14   43 1   
    38   15   19 1   
    39   15   44 1   
    40   15   45 1   
    41   16   20 1   
@<TRIPOS>SUBSTRUCTURE
     1 FJP         1 TEMP              0 ****  ****    0 ROOT
