@<TRIPOS>MOLECULE
FJP
   45    44     1     0     0
SMALL
bcc


@<TRIPOS>ATOM
      1 CAA         0.0960   -0.7780    0.2960 c3        1 FJP     -0.115400
      2 CAB         2.2240   -1.0570    1.5220 c3        1 FJP     -0.115400
      3 CAC         6.4010   -0.5110   -2.8280 c3        1 FJP     -0.047900
      4 CAD         5.4150   -5.9210    1.5240 c3        1 FJP     -0.018900
      5 OAE         0.3280   -3.5100    1.8170 o         1 FJP     -0.932167
      6 OAF         0.5700   -5.2430    3.6500 o         1 FJP     -0.932167
      7 OAG        -1.3460   -5.4400    1.9480 o         1 FJP     -0.932167
      8 CAH         2.2070   -0.1670   -0.8290 c2        1 FJP     -0.298200
      9 CAI         6.3230   -2.1260   -0.9650 c2        1 FJP     -0.158200
     10 CAJ         3.2360   -5.1050    0.6410 c2        1 FJP     -0.079200
     11 CAK         3.6730   -0.0620   -1.0080 c3        1 FJP     -0.007200
     12 CAL         5.6820   -2.9600    0.0800 c3        1 FJP     -0.059200
     13 CAM         2.3780   -5.8400    1.6280 c3        1 FJP      0.228600
     14 CAN         4.1870   -1.2100   -1.8680 c3        1 FJP     -0.046200
     15 CAO         5.3300   -4.3500   -0.4320 c3        1 FJP     -0.002200
     16 OAP         1.0580   -5.8450    1.2590 os        1 FJP     -0.563200
     17 CAQ         1.5720   -0.6170    0.2670 c2        1 FJP     -0.001400
     18 CAR         5.6710   -1.3300   -1.8280 c2        1 FJP     -0.137400
     19 CAS         4.5800   -5.1330    0.5900 c2        1 FJP     -0.271400
     20 PAT         0.0140   -4.9120    2.2910 p5        1 FJP      1.328900
     21 HAA        -0.1340   -1.8430    0.6290 hc        1 FJP      0.068200
     22 HAAA       -0.3520   -0.0830    1.0470 hc        1 FJP      0.068200
     23 HAAB       -0.3690   -0.5790   -0.6980 hc        1 FJP      0.068200
     24 HAB         1.9610   -0.3550    2.3510 hc        1 FJP      0.068200
     25 HABA        3.3350   -1.1140    1.4420 hc        1 FJP      0.068200
     26 HABB        1.8120   -2.0840    1.7940 hc        1 FJP      0.068200
     27 HAC         7.5070   -0.5600   -2.6800 hc        1 FJP      0.023033
     28 HACA        6.0790    0.5580   -2.7510 hc        1 FJP      0.023033
     29 HACB        6.1680   -0.8700   -3.8620 hc        1 FJP      0.023033
     30 HAD         5.8020   -6.8450    1.0220 hc        1 FJP      0.013367
     31 HADA        6.2980   -5.3230    1.8650 hc        1 FJP      0.013367
     32 HADB        4.8290   -6.2290    2.4250 hc        1 FJP      0.013367
     33 HAH         1.6240    0.1070   -1.7230 ha        1 FJP      0.091000
     34 HAI         7.4230   -2.1920   -1.0050 ha        1 FJP      0.089000
     35 HAJ         2.6630   -4.4870   -0.0740 ha        1 FJP      0.136000
     36 HAK         3.9280    0.9130   -1.5060 hc        1 FJP      0.020700
     37 HAKA        4.2060   -0.0730   -0.0210 hc        1 FJP      0.020700
     38 HAL         6.3780   -3.0580    0.9560 hc        1 FJP      0.056200
     39 HALA        4.7440   -2.4680    0.4580 hc        1 FJP      0.056200
     40 HAM         2.7590   -6.9070    1.6830 h1        1 FJP      0.015700
     41 HAMA        2.5100   -5.3670    2.6500 h1        1 FJP      0.015700
     42 HAN         3.8520   -1.0540   -2.9280 hc        1 FJP      0.053200
     43 HANA        3.7170   -2.1680   -1.5100 hc        1 FJP      0.053200
     44 HAO         4.7120   -4.2460   -1.3640 hc        1 FJP      0.017200
     45 HAOA        6.2730   -4.8890   -0.7160 hc        1 FJP      0.017200
@<TRIPOS>BOND
     1    1   17 1   
     2    1   21 1   
     3    1   22 1   
     4    1   23 1   
     5    2   17 1   
     6    2   24 1   
     7    2   25 1   
     8    2   26 1   
     9    3   18 1   
    10    3   27 1   
    11    3   28 1   
    12    3   29 1   
    13    4   19 1   
    14    4   30 1   
    15    4   31 1   
    16    4   32 1   
    17    5   20 1   
    18    6   20 1   
    19    7   20 1   
    20    8   11 1   
    21    8   17 2   
    22    8   33 1   
    23    9   12 1   
    24    9   18 2   
    25    9   34 1   
    26   10   13 1   
    27   10   19 2   
    28   10   35 1   
    29   11   14 1   
    30   11   36 1   
    31   11   37 1   
    32   12   15 1   
    33   12   38 1   
    34   12   39 1   
    35   13   16 1   
    36   13   40 1   
    37   13   41 1   
    38   14   18 1   
    39   14   42 1   
    40   14   43 1   
    41   15   19 1   
    42   15   44 1   
    43   15   45 1   
    44   16   20 1   
@<TRIPOS>SUBSTRUCTURE
     1 FJP         1 TEMP              0 ****  ****    0 ROOT
