@<TRIPOS>MOLECULE
FJY
   64    58     1     0     0
SMALL
bcc


@<TRIPOS>ATOM
      1 C26         3.6170    1.3730    3.0060 c3        1 FJY     -0.102000
      2 C27         5.1240    1.3960    3.2140 c3        1 FJY     -0.025000
      3 O1          5.5810    0.2880    3.9750 os        1 FJY     -0.273000
      4 C28         5.1260   -0.9540    3.4610 c3        1 FJY     -0.025000
      5 C29         3.6190   -0.9770    3.2530 c3        1 FJY     -0.102000
      6 N4          3.1610    0.1310    2.4920 n3        1 FJY     -0.220000
      7 C22         1.7150    0.1250    2.4540 c1        1 FJY      0.030000
      8 C23         1.0460    0.1680    1.2230 c1        1 FJY     -0.103000
      9 C19        -0.3550    0.1700    1.1850 c1        1 FJY     -0.045500
     10 C21         0.9780    0.0850    3.6550 c1        1 FJY     -0.181000
     11 C20        -0.4230    0.0870    3.6200 c1        1 FJY     -0.103000
     12 C18        -1.0930    0.1300    2.3890 c1        1 FJY     -0.045500
     13 C17        -2.5450    0.2540    2.0430 c2        1 FJY     -0.018000
     14 C24        -3.3040   -0.9970    2.5210 c3        1 FJY     -0.201000
     15 C25        -3.1350    1.5090    2.7120 c3        1 FJY     -0.201000
     16 C16        -2.6520    0.3720    0.5870 c3        1 FJY     -0.058000
     17 N2         -1.3200    0.4330    0.0560 n2        1 FJY     -0.196000
     18 C7         -1.1590   -0.5810   -0.9630 c2        1 FJY      0.060000
     19 C8         -1.1300    0.5160   -1.7960 c2        1 FJY     -0.079000
     20 C11        -1.2950    2.0380   -1.8570 c3        1 FJY     -0.176000
     21 C1         -0.9740   -1.8600   -1.4900 c1        1 FJY     -0.100000
     22 C6         -0.9610   -2.9850   -0.6330 c1        1 FJY     -0.125000
     23 C5         -0.7350   -4.2570   -1.1560 c1        1 FJY     -0.125000
     24 C4         -0.5210   -4.4220   -2.5280 c1        1 FJY      0.096000
     25 F1         -0.3280   -5.6970   -2.9030 f         1 FJY     -0.102000
     26 C3         -0.5340   -3.3140   -3.3740 c1        1 FJY     -0.142000
     27 C2         -0.7630   -2.0230   -2.8460 c1        1 FJY      0.024000
     28 N1         -0.7350   -0.9100   -3.6860 n1        1 FJY     -0.125000
     29 C9         -0.9160    0.3470   -3.1690 c1        1 FJY      0.051000
     30 C10        -0.8280    1.1340   -4.4900 c2        1 FJY     -0.094000
     31 C12        -1.9630    1.3780   -5.2190 c2        1 FJY     -0.059000
     32 C13        -1.8960    2.1460   -6.3520 c1        1 FJY     -0.186000
     33 C14        -0.6770    2.6770   -6.7610 c1        1 FJY     -0.065000
     34 N3          0.4550    2.4340   -6.0330 n1        1 FJY     -0.140000
     35 C15         0.3910    1.6680   -4.9020 c1        1 FJY     -0.050000
     36 H1          3.1740    1.5430    3.8680 h1        1 FJY      0.085000
     37 H2          3.3720    2.0880    2.3750 h1        1 FJY      0.085000
     38 H3          5.3670    2.2250    3.6820 h1        1 FJY      0.095000
     39 H4          5.5660    1.3840    2.3370 h1        1 FJY      0.095000
     40 H5          5.5690   -1.1240    2.6000 h1        1 FJY      0.095000
     41 H6          5.3710   -1.6680    4.0920 h1        1 FJY      0.095000
     42 H7          3.1770   -0.9650    4.1300 h1        1 FJY      0.085000
     43 H8          3.3760   -1.8070    2.7860 h1        1 FJY      0.085000
     44 H9          1.5590    0.2030    0.3870 ha        1 FJY      0.147000
     45 H10         1.4470    0.0710    4.5180 ha        1 FJY      0.137000
     46 H11        -0.9350    0.0590    4.4570 ha        1 FJY      0.147000
     47 H12        -4.1410   -1.0870    2.0120 hc        1 FJY      0.080667
     48 H13        -2.7460   -1.7930    2.3780 hc        1 FJY      0.080667
     49 H14        -3.5100   -0.9090    3.4800 hc        1 FJY      0.080667
     50 H15        -2.5780    2.2900    2.4940 hc        1 FJY      0.080667
     51 H16        -4.0520    1.6570    2.3820 hc        1 FJY      0.080667
     52 H17        -3.1540    1.3820    3.6880 hc        1 FJY      0.080667
     53 H18        -3.1280    1.2030    0.3640 h1        1 FJY      0.096000
     54 H19        -3.1050   -0.4230    0.2310 h1        1 FJY      0.096000
     55 H20        -1.9050    2.2720   -2.5890 hc        1 FJY      0.095000
     56 H21        -1.6640    2.3610   -1.0070 hc        1 FJY      0.095000
     57 H22        -0.4180    2.4560   -2.0140 hc        1 FJY      0.095000
     58 H23        -1.1110   -2.8700    0.3270 ha        1 FJY      0.151000
     59 H24        -0.7630   -5.0430   -0.5660 ha        1 FJY      0.151000
     60 H25        -0.3840   -3.4300   -4.3370 ha        1 FJY      0.168000
     61 H26        -2.8210    1.0030   -4.9300 ha        1 FJY      0.150000
     62 H27        -2.7070    2.3200   -6.8740 ha        1 FJY      0.146000
     63 H28        -0.6300    3.2280   -7.5740 ha        1 FJY      0.161000
     64 H29         1.2020    1.4940   -4.3810 ha        1 FJY      0.166000
@<TRIPOS>BOND
     1    1    2 1   
     2    1    6 1   
     3    1   36 1   
     4    1   37 1   
     5    2    3 1   
     6    2   38 1   
     7    2   39 1   
     8    3    4 1   
     9    4    5 1   
    10    4   40 1   
    11    4   41 1   
    12    5    6 1   
    13    5   42 1   
    14    5   43 1   
    15    6    7 1   
    16    7   10 1   
    17    8    9 1   
    18    8   44 1   
    19    9   12 1   
    20   10   45 1   
    21   11   12 1   
    22   11   46 1   
    23   13   14 1   
    24   13   15 1   
    25   13   16 1   
    26   14   47 1   
    27   14   48 1   
    28   14   49 1   
    29   15   50 1   
    30   15   51 1   
    31   15   52 1   
    32   16   17 1   
    33   16   53 1   
    34   16   54 1   
    35   17   18 1   
    36   18   19 1   
    37   18   21 1   
    38   19   20 1   
    39   19   29 1   
    40   20   55 1   
    41   20   56 1   
    42   20   57 1   
    43   21   27 1   
    44   22   23 1   
    45   22   58 1   
    46   23   59 1   
    47   24   26 1   
    48   26   60 1   
    49   27   28 1   
    50   29   30 1   
    51   30   31 1   
    52   30   35 1   
    53   31   32 1   
    54   31   61 1   
    55   32   62 1   
    56   33   34 1   
    57   33   63 1   
    58   35   64 1   
@<TRIPOS>SUBSTRUCTURE
     1 FJY         1 TEMP              0 ****  ****    0 ROOT
