@<TRIPOS>MOLECULE
FJY
   64    69     1     0     0
SMALL
bcc


@<TRIPOS>ATOM
      1 C26         0.1010    0.0210   -0.2130 c3        1 FJY      0.150800
      2 C27         1.6320   -0.0700   -0.1540 c3        1 FJY      0.122900
      3 O1          2.1290    0.2600    1.1370 os        1 FJY     -0.413600
      4 C28         1.5600   -0.5590    2.1520 c3        1 FJY      0.122900
      5 C29         0.0270   -0.4750    2.1550 c3        1 FJY      0.150800
      6 N4         -0.5350   -0.7550    0.8430 nh        1 FJY     -0.634000
      7 C22        -1.9480   -0.8500    0.7670 ca        1 FJY      0.162600
      8 C23        -2.5330   -1.3280   -0.4360 ca        1 FJY     -0.182000
      9 C19        -3.9110   -1.5150   -0.4890 ca        1 FJY      0.143600
     10 C21        -2.7800   -0.5660    1.8700 ca        1 FJY     -0.211000
     11 C20        -4.1630   -0.7660    1.8060 ca        1 FJY     -0.062000
     12 C18        -4.7350   -1.2300    0.6410 ca        1 FJY     -0.154300
     13 C17        -6.1730   -1.5420    0.3230 c3        1 FJY     -0.005700
     14 C24        -6.7050   -2.6530    1.2080 c3        1 FJY     -0.083600
     15 C25        -7.0560   -0.3160    0.4360 c3        1 FJY     -0.083600
     16 C16        -6.0920   -2.0300   -1.1650 c3        1 FJY      0.183800
     17 N2         -4.6680   -2.0920   -1.5460 nh        1 FJY     -0.524400
     18 C7         -4.3580   -1.7810   -2.9000 ca        1 FJY      0.158600
     19 C8         -4.1680   -0.4840   -3.3770 ca        1 FJY     -0.201600
     20 C11        -4.3210    0.6940   -2.4960 c3        1 FJY     -0.062800
     21 C1         -4.2410   -2.8870   -3.8200 ca        1 FJY     -0.141300
     22 C6         -4.4180   -4.2410   -3.4280 ca        1 FJY     -0.072000
     23 C5         -4.3100   -5.2630   -4.3340 ca        1 FJY     -0.166000
     24 C4         -4.0140   -4.9720   -5.6990 ca        1 FJY      0.134900
     25 F1         -3.9170   -5.9980   -6.5780 f         1 FJY     -0.136900
     26 C3         -3.8260   -3.6680   -6.1210 ca        1 FJY     -0.214300
     27 C2         -3.9320   -2.5940   -5.1820 ca        1 FJY      0.416600
     28 N1         -3.7190   -1.3100   -5.6330 nb        1 FJY     -0.652000
     29 C9         -3.8190   -0.3070   -4.7660 cp        1 FJY      0.491800
     30 C10        -3.5590    1.0520   -5.2810 cp        1 FJY     -0.265800
     31 C12        -2.5610    1.8640   -4.7270 ca        1 FJY     -0.074000
     32 C13        -2.3410    3.1290   -5.2720 ca        1 FJY     -0.252300
     33 C14        -3.1310    3.5380   -6.3620 ca        1 FJY      0.402200
     34 N3         -4.0900    2.7700   -6.9130 nb        1 FJY     -0.666000
     35 C15        -4.2910    1.5490   -6.3830 ca        1 FJY      0.430200
     36 H1         -0.1940    1.1090   -0.1470 h1        1 FJY      0.047200
     37 H2         -0.2360   -0.3730   -1.2110 h1        1 FJY      0.047200
     38 H3          2.0870    0.6960   -0.8350 h1        1 FJY      0.057200
     39 H4          1.9790   -1.0980   -0.4400 h1        1 FJY      0.057200
     40 H5          1.9000   -1.6190    2.0160 h1        1 FJY      0.057200
     41 H6          1.9660   -0.1410    3.1100 h1        1 FJY      0.057200
     42 H7         -0.2700    0.5500    2.5220 h1        1 FJY      0.047200
     43 H8         -0.3680   -1.2420    2.8780 h1        1 FJY      0.047200
     44 H9         -1.9110   -1.5780   -1.3070 ha        1 FJY      0.148000
     45 H10        -2.3600   -0.1820    2.8110 ha        1 FJY      0.135000
     46 H11        -4.7880   -0.5460    2.6850 ha        1 FJY      0.135000
     47 H12        -6.0720   -3.5670    1.1140 hc        1 FJY      0.041033
     48 H13        -7.7530   -2.9090    0.9170 hc        1 FJY      0.041033
     49 H14        -6.6990   -2.3250    2.2760 hc        1 FJY      0.041033
     50 H15        -7.0670    0.0480    1.4920 hc        1 FJY      0.041033
     51 H16        -8.1010   -0.5650    0.1320 hc        1 FJY      0.041033
     52 H17        -6.6780    0.5070   -0.2170 hc        1 FJY      0.041033
     53 H18        -6.5060   -3.0690   -1.2660 h1        1 FJY      0.055700
     54 H19        -6.6720   -1.3410   -1.8350 h1        1 FJY      0.055700
     55 H20        -5.2010    0.5720   -1.8130 hc        1 FJY      0.055700
     56 H21        -3.4060    0.8160   -1.8600 hc        1 FJY      0.055700
     57 H22        -4.4740    1.6330   -3.0830 hc        1 FJY      0.055700
     58 H23        -4.6410   -4.4750   -2.3740 ha        1 FJY      0.158000
     59 H24        -4.4440   -6.3130   -4.0340 ha        1 FJY      0.152000
     60 H25        -3.5940   -3.4500   -7.1760 ha        1 FJY      0.168000
     61 H26        -1.9640    1.5060   -3.8750 ha        1 FJY      0.142000
     62 H27        -1.5660    3.7920   -4.8660 ha        1 FJY      0.146000
     63 H28        -2.9880    4.5320   -6.8230 h4        1 FJY      0.024100
     64 H29        -5.0730    0.9340   -6.8640 h4        1 FJY      0.036100
@<TRIPOS>BOND
     1    1    2 1   
     2    1    6 1   
     3    1   36 1   
     4    1   37 1   
     5    2    3 1   
     6    2   38 1   
     7    2   39 1   
     8    3    4 1   
     9    4    5 1   
    10    4   40 1   
    11    4   41 1   
    12    5    6 1   
    13    5   42 1   
    14    5   43 1   
    15    6    7 1   
    16    7    8 ar  
    17    7   10 ar  
    18    8    9 ar  
    19    8   44 1   
    20    9   12 ar  
    21    9   17 1   
    22   10   11 ar  
    23   10   45 1   
    24   11   12 ar  
    25   11   46 1   
    26   12   13 1   
    27   13   14 1   
    28   13   15 1   
    29   13   16 1   
    30   14   47 1   
    31   14   48 1   
    32   14   49 1   
    33   15   50 1   
    34   15   51 1   
    35   15   52 1   
    36   16   17 1   
    37   16   53 1   
    38   16   54 1   
    39   17   18 1   
    40   18   19 ar  
    41   18   21 ar  
    42   19   20 1   
    43   19   29 ar  
    44   20   55 1   
    45   20   56 1   
    46   20   57 1   
    47   21   22 ar  
    48   21   27 ar  
    49   22   23 ar  
    50   22   58 1   
    51   23   24 ar  
    52   23   59 1   
    53   24   25 1   
    54   24   26 ar  
    55   26   27 ar  
    56   26   60 1   
    57   27   28 ar  
    58   28   29 ar  
    59   29   30 1   
    60   30   31 ar  
    61   30   35 ar  
    62   31   32 ar  
    63   31   61 1   
    64   32   33 ar  
    65   32   62 1   
    66   33   34 ar  
    67   33   63 1   
    68   34   35 ar  
    69   35   64 1   
@<TRIPOS>SUBSTRUCTURE
     1 FJY         1 TEMP              0 ****  ****    0 ROOT
