@<TRIPOS>MOLECULE
FJY
   64    69     1     0     0
SMALL
bcc


@<TRIPOS>ATOM
      1 C26         2.8820    2.5670   -1.1500 c3        1 FJY      0.150800
      2 C27         3.4560    3.3870   -2.3130 c3        1 FJY      0.122900
      3 O1          4.7950    3.7940   -2.0580 os        1 FJY     -0.413600
      4 C28         5.6460    2.6880   -1.7860 c3        1 FJY      0.122900
      5 C29         5.1300    1.8520   -0.6060 c3        1 FJY      0.150800
      6 N4          3.7450    1.4490   -0.7900 nh        1 FJY     -0.634000
      7 C22         3.2150    0.5500    0.1710 ca        1 FJY      0.162600
      8 C23         1.9450   -0.0380   -0.0770 ca        1 FJY     -0.182000
      9 C19         1.4580   -0.9920    0.8100 ca        1 FJY      0.143600
     10 C21         3.9400    0.1610    1.3160 ca        1 FJY     -0.211000
     11 C20         3.4430   -0.8060    2.1960 ca        1 FJY     -0.062000
     12 C18         2.2120   -1.3790    1.9590 ca        1 FJY     -0.154300
     13 C17         1.4700   -2.4390    2.7300 c3        1 FJY     -0.005700
     14 C24         2.2430   -3.7430    2.7600 c3        1 FJY     -0.083600
     15 C25         1.1490   -1.9900    4.1410 c3        1 FJY     -0.083600
     16 C16         0.1560   -2.6100    1.8910 c3        1 FJY      0.183800
     17 N2          0.2800   -1.7770    0.6790 nh        1 FJY     -0.524400
     18 C7         -0.9200   -1.1900    0.1870 ca        1 FJY      0.158600
     19 C8         -1.4460    0.0150    0.6530 ca        1 FJY     -0.201600
     20 C11        -0.8000    0.7660    1.7530 c3        1 FJY     -0.062800
     21 C1         -1.6220   -1.9000   -0.8560 ca        1 FJY     -0.141300
     22 C6         -1.1650   -3.1330   -1.3940 ca        1 FJY     -0.072000
     23 C5         -1.8660   -3.7830   -2.3760 ca        1 FJY     -0.166000
     24 C4         -3.0780   -3.2180   -2.8730 ca        1 FJY      0.134900
     25 F1         -3.7570   -3.8810   -3.8400 f         1 FJY     -0.136900
     26 C3         -3.5540   -2.0150   -2.3820 ca        1 FJY     -0.214300
     27 C2         -2.8270   -1.3270   -1.3610 ca        1 FJY      0.416600
     28 N1         -3.3190   -0.1220   -0.9090 nb        1 FJY     -0.652000
     29 C9         -2.6500    0.5220    0.0420 cp        1 FJY      0.491800
     30 C10        -3.1950    1.8220    0.4820 cp        1 FJY     -0.265800
     31 C12        -2.4330    2.9950    0.4080 ca        1 FJY     -0.074000
     32 C13        -3.0090    4.2000    0.8120 ca        1 FJY     -0.252300
     33 C14        -4.3380    4.1880    1.2750 ca        1 FJY      0.402200
     34 N3         -5.0890    3.0720    1.3470 nb        1 FJY     -0.666000
     35 C15        -4.5250    1.9160    0.9510 ca        1 FJY      0.430200
     36 H1          2.7270    3.2560   -0.2690 h1        1 FJY      0.047200
     37 H2          1.8790    2.1670   -1.4630 h1        1 FJY      0.047200
     38 H3          3.4160    2.8020   -3.2690 h1        1 FJY      0.057200
     39 H4          2.8860    4.3470   -2.4220 h1        1 FJY      0.057200
     40 H5          5.7480    2.0550   -2.7060 h1        1 FJY      0.057200
     41 H6          6.6330    3.1510   -1.5230 h1        1 FJY      0.057200
     42 H7          5.7600    0.9220   -0.5280 h1        1 FJY      0.047200
     43 H8          5.2630    2.4550    0.3390 h1        1 FJY      0.047200
     44 H9          1.3630    0.2290   -0.9710 ha        1 FJY      0.148000
     45 H10         4.9190    0.6070    1.5430 ha        1 FJY      0.135000
     46 H11         4.0340   -1.0990    3.0760 ha        1 FJY      0.135000
     47 H12         3.2090   -3.6000    3.3020 hc        1 FJY      0.041033
     48 H13         1.6510   -4.5300    3.2850 hc        1 FJY      0.041033
     49 H14         2.4650   -4.0910    1.7230 hc        1 FJY      0.041033
     50 H15         2.0940   -1.8270    4.7130 hc        1 FJY      0.041033
     51 H16         0.5720   -1.0340    4.1320 hc        1 FJY      0.041033
     52 H17         0.5430   -2.7690    4.6640 hc        1 FJY      0.041033
     53 H18         0.0380   -3.6730    1.5510 h1        1 FJY      0.055700
     54 H19        -0.7400   -2.3220    2.5040 h1        1 FJY      0.055700
     55 H20         0.0860    1.3280    1.3600 hc        1 FJY      0.055700
     56 H21        -1.5040    1.4950    2.2250 hc        1 FJY      0.055700
     57 H22        -0.4400    0.0710    2.5540 hc        1 FJY      0.055700
     58 H23        -0.2260   -3.5730   -1.0200 ha        1 FJY      0.158000
     59 H24        -1.5150   -4.7360   -2.7970 ha        1 FJY      0.152000
     60 H25        -4.4890   -1.5820   -2.7730 ha        1 FJY      0.168000
     61 H26        -1.3980    2.9620    0.0380 ha        1 FJY      0.142000
     62 H27        -2.4440    5.1390    0.7660 ha        1 FJY      0.146000
     63 H28        -4.8310    5.1200    1.6040 h4        1 FJY      0.024100
     64 H29        -5.1690    1.0190    1.0050 h4        1 FJY      0.036100
@<TRIPOS>BOND
     1    1    2 1   
     2    1    6 1   
     3    1   36 1   
     4    1   37 1   
     5    2    3 1   
     6    2   38 1   
     7    2   39 1   
     8    3    4 1   
     9    4    5 1   
    10    4   40 1   
    11    4   41 1   
    12    5    6 1   
    13    5   42 1   
    14    5   43 1   
    15    6    7 1   
    16    7    8 ar  
    17    7   10 ar  
    18    8    9 ar  
    19    8   44 1   
    20    9   12 ar  
    21    9   17 1   
    22   10   11 ar  
    23   10   45 1   
    24   11   12 ar  
    25   11   46 1   
    26   12   13 1   
    27   13   14 1   
    28   13   15 1   
    29   13   16 1   
    30   14   47 1   
    31   14   48 1   
    32   14   49 1   
    33   15   50 1   
    34   15   51 1   
    35   15   52 1   
    36   16   17 1   
    37   16   53 1   
    38   16   54 1   
    39   17   18 1   
    40   18   19 ar  
    41   18   21 ar  
    42   19   20 1   
    43   19   29 ar  
    44   20   55 1   
    45   20   56 1   
    46   20   57 1   
    47   21   22 ar  
    48   21   27 ar  
    49   22   23 ar  
    50   22   58 1   
    51   23   24 ar  
    52   23   59 1   
    53   24   25 1   
    54   24   26 ar  
    55   26   27 ar  
    56   26   60 1   
    57   27   28 ar  
    58   28   29 ar  
    59   29   30 1   
    60   30   31 ar  
    61   30   35 ar  
    62   31   32 ar  
    63   31   61 1   
    64   32   33 ar  
    65   32   62 1   
    66   33   34 ar  
    67   33   63 1   
    68   34   35 ar  
    69   35   64 1   
@<TRIPOS>SUBSTRUCTURE
     1 FJY         1 TEMP              0 ****  ****    0 ROOT
