@<TRIPOS>MOLECULE
FJY
   64    69     1     0     0
SMALL
bcc


@<TRIPOS>ATOM
      1 C26         0.0960    0.0340   -0.2080 c3        1 FJY      0.150800
      2 C27         1.6270   -0.0520   -0.1480 c3        1 FJY      0.122900
      3 O1          2.1210    0.2780    1.1440 os        1 FJY     -0.413600
      4 C28         1.5550   -0.5440    2.1580 c3        1 FJY      0.122900
      5 C29         0.0220   -0.4680    2.1590 c3        1 FJY      0.150800
      6 N4         -0.5380   -0.7480    0.8460 nh        1 FJY     -0.634000
      7 C22        -1.9510   -0.8490    0.7690 ca        1 FJY      0.162600
      8 C23        -2.5320   -1.3270   -0.4360 ca        1 FJY     -0.182000
      9 C19        -3.9090   -1.5200   -0.4910 ca        1 FJY      0.143600
     10 C21        -2.7850   -0.5700    1.8710 ca        1 FJY     -0.211000
     11 C20        -4.1670   -0.7760    1.8060 ca        1 FJY     -0.062000
     12 C18        -4.7360   -1.2400    0.6390 ca        1 FJY     -0.154300
     13 C17        -6.1720   -1.5580    0.3190 c3        1 FJY     -0.005700
     14 C24        -6.7010   -2.6720    1.2020 c3        1 FJY     -0.083600
     15 C25        -7.0600   -0.3360    0.4340 c3        1 FJY     -0.083600
     16 C16        -6.0880   -2.0430   -1.1700 c3        1 FJY      0.183800
     17 N2         -4.6620   -2.0980   -1.5490 nh        1 FJY     -0.524400
     18 C7         -4.3530   -1.7840   -2.9030 ca        1 FJY      0.158600
     19 C8         -4.1670   -0.4850   -3.3780 ca        1 FJY     -0.201600
     20 C11        -4.3270    0.6910   -2.4940 c3        1 FJY     -0.062800
     21 C1         -4.2310   -2.8880   -3.8240 ca        1 FJY     -0.141300
     22 C6         -4.4020   -4.2430   -3.4340 ca        1 FJY     -0.072000
     23 C5         -4.2890   -5.2630   -4.3420 ca        1 FJY     -0.166000
     24 C4         -3.9930   -4.9680   -5.7070 ca        1 FJY      0.134900
     25 F1         -3.8910   -5.9930   -6.5870 f         1 FJY     -0.136900
     26 C3         -3.8100   -3.6630   -6.1270 ca        1 FJY     -0.214300
     27 C2         -3.9210   -2.5910   -5.1860 ca        1 FJY      0.416600
     28 N1         -3.7130   -1.3050   -5.6340 nb        1 FJY     -0.652000
     29 C9         -3.8180   -0.3040   -4.7660 cp        1 FJY      0.491800
     30 C10        -3.5630    1.0570   -5.2780 cp        1 FJY     -0.265800
     31 C12        -2.5690    1.8710   -4.7220 ca        1 FJY     -0.074000
     32 C13        -2.3530    3.1380   -5.2640 ca        1 FJY     -0.252300
     33 C14        -3.1440    3.5460   -6.3540 ca        1 FJY      0.402200
     34 N3         -4.1000    2.7750   -6.9070 nb        1 FJY     -0.666000
     35 C15        -4.2960    1.5530   -6.3800 ca        1 FJY      0.430200
     36 H1         -0.2390   -0.3600   -1.2070 h1        1 FJY      0.047200
     37 H2         -0.2040    1.1200   -0.1400 h1        1 FJY      0.047200
     38 H3          2.0800    0.7170   -0.8270 h1        1 FJY      0.057200
     39 H4          1.9790   -1.0780   -0.4350 h1        1 FJY      0.057200
     40 H5          1.9000   -1.6030    2.0200 h1        1 FJY      0.057200
     41 H6          1.9590   -0.1270    3.1170 h1        1 FJY      0.057200
     42 H7         -0.2800    0.5550    2.5280 h1        1 FJY      0.047200
     43 H8         -0.3710   -1.2370    2.8800 h1        1 FJY      0.047200
     44 H9         -1.9080   -1.5730   -1.3070 ha        1 FJY      0.148000
     45 H10        -2.3670   -0.1860    2.8130 ha        1 FJY      0.135000
     46 H11        -4.7930   -0.5600    2.6840 ha        1 FJY      0.135000
     47 H12        -7.7470   -2.9320    0.9090 hc        1 FJY      0.041033
     48 H13        -6.6970   -2.3460    2.2700 hc        1 FJY      0.041033
     49 H14        -6.0630   -3.5840    1.1060 hc        1 FJY      0.041033
     50 H15        -6.6860    0.4890   -0.2180 hc        1 FJY      0.041033
     51 H16        -8.1040   -0.5880    0.1280 hc        1 FJY      0.041033
     52 H17        -7.0740    0.0260    1.4900 hc        1 FJY      0.041033
     53 H18        -6.6700   -1.3550   -1.8390 h1        1 FJY      0.055700
     54 H19        -6.4970   -3.0830   -1.2730 h1        1 FJY      0.055700
     55 H20        -4.4820    1.6300   -3.0800 hc        1 FJY      0.055700
     56 H21        -3.4130    0.8150   -1.8570 hc        1 FJY      0.055700
     57 H22        -5.2070    0.5640   -1.8130 hc        1 FJY      0.055700
     58 H23        -4.6250   -4.4800   -2.3810 ha        1 FJY      0.158000
     59 H24        -4.4200   -6.3140   -4.0440 ha        1 FJY      0.152000
     60 H25        -3.5780   -3.4420   -7.1800 ha        1 FJY      0.168000
     61 H26        -1.9710    1.5140   -3.8700 ha        1 FJY      0.142000
     62 H27        -1.5820    3.8040   -4.8570 ha        1 FJY      0.146000
     63 H28        -3.0050    4.5410   -6.8140 h4        1 FJY      0.024100
     64 H29        -5.0760    0.9350   -6.8630 h4        1 FJY      0.036100
@<TRIPOS>BOND
     1    1    2 1   
     2    1    6 1   
     3    1   36 1   
     4    1   37 1   
     5    2    3 1   
     6    2   38 1   
     7    2   39 1   
     8    3    4 1   
     9    4    5 1   
    10    4   40 1   
    11    4   41 1   
    12    5    6 1   
    13    5   42 1   
    14    5   43 1   
    15    6    7 1   
    16    7    8 ar  
    17    7   10 ar  
    18    8    9 ar  
    19    8   44 1   
    20    9   12 ar  
    21    9   17 1   
    22   10   11 ar  
    23   10   45 1   
    24   11   12 ar  
    25   11   46 1   
    26   12   13 1   
    27   13   14 1   
    28   13   15 1   
    29   13   16 1   
    30   14   47 1   
    31   14   48 1   
    32   14   49 1   
    33   15   50 1   
    34   15   51 1   
    35   15   52 1   
    36   16   17 1   
    37   16   53 1   
    38   16   54 1   
    39   17   18 1   
    40   18   19 ar  
    41   18   21 ar  
    42   19   20 1   
    43   19   29 ar  
    44   20   55 1   
    45   20   56 1   
    46   20   57 1   
    47   21   22 ar  
    48   21   27 ar  
    49   22   23 ar  
    50   22   58 1   
    51   23   24 ar  
    52   23   59 1   
    53   24   25 1   
    54   24   26 ar  
    55   26   27 ar  
    56   26   60 1   
    57   27   28 ar  
    58   28   29 ar  
    59   29   30 1   
    60   30   31 ar  
    61   30   35 ar  
    62   31   32 ar  
    63   31   61 1   
    64   32   33 ar  
    65   32   62 1   
    66   33   34 ar  
    67   33   63 1   
    68   34   35 ar  
    69   35   64 1   
@<TRIPOS>SUBSTRUCTURE
     1 FJY         1 TEMP              0 ****  ****    0 ROOT
