@<TRIPOS>MOLECULE
FJY
   64    69     1     0     0
SMALL
bcc


@<TRIPOS>ATOM
      1 C26         0.0970    0.0280   -0.2070 c3        1 FJY      0.150800
      2 C27         1.6270   -0.0610   -0.1450 c3        1 FJY      0.122900
      3 O1          2.1210    0.2710    1.1470 os        1 FJY     -0.413600
      4 C28         1.5520   -0.5480    2.1620 c3        1 FJY      0.122900
      5 C29         0.0190   -0.4680    2.1610 c3        1 FJY      0.150800
      6 N4         -0.5400   -0.7500    0.8480 nh        1 FJY     -0.634000
      7 C22        -1.9530   -0.8480    0.7700 ca        1 FJY      0.162600
      8 C23        -2.5340   -1.3270   -0.4340 ca        1 FJY     -0.182000
      9 C19        -3.9120   -1.5170   -0.4900 ca        1 FJY      0.143600
     10 C21        -2.7880   -0.5650    1.8710 ca        1 FJY     -0.211000
     11 C20        -4.1700   -0.7680    1.8050 ca        1 FJY     -0.062000
     12 C18        -4.7390   -1.2340    0.6380 ca        1 FJY     -0.154300
     13 C17        -6.1750   -1.5490    0.3170 c3        1 FJY     -0.005700
     14 C24        -6.7070   -2.6610    1.2020 c3        1 FJY     -0.083600
     15 C25        -7.0610   -0.3250    0.4290 c3        1 FJY     -0.083600
     16 C16        -6.0900   -2.0370   -1.1700 c3        1 FJY      0.183800
     17 N2         -4.6650   -2.0950   -1.5480 nh        1 FJY     -0.524400
     18 C7         -4.3540   -1.7840   -2.9020 ca        1 FJY      0.158600
     19 C8         -4.1650   -0.4860   -3.3790 ca        1 FJY     -0.201600
     20 C11        -4.3230    0.6920   -2.4980 c3        1 FJY     -0.062800
     21 C1         -4.2320   -2.8890   -3.8210 ca        1 FJY     -0.141300
     22 C6         -4.4070   -4.2440   -3.4300 ca        1 FJY     -0.072000
     23 C5         -4.2950   -5.2660   -4.3360 ca        1 FJY     -0.166000
     24 C4         -3.9970   -4.9740   -5.7000 ca        1 FJY      0.134900
     25 F1         -3.8960   -6.0000   -6.5790 f         1 FJY     -0.136900
     26 C3         -3.8110   -3.6700   -6.1220 ca        1 FJY     -0.214300
     27 C2         -3.9210   -2.5960   -5.1830 ca        1 FJY      0.416600
     28 N1         -3.7100   -1.3110   -5.6330 nb        1 FJY     -0.652000
     29 C9         -3.8140   -0.3080   -4.7670 cp        1 FJY      0.491800
     30 C10        -3.5560    1.0510   -5.2810 cp        1 FJY     -0.265800
     31 C12        -2.5610    1.8650   -4.7250 ca        1 FJY     -0.074000
     32 C13        -2.3430    3.1310   -5.2700 ca        1 FJY     -0.252300
     33 C14        -3.1320    3.5380   -6.3610 ca        1 FJY      0.402200
     34 N3         -4.0890    2.7680   -6.9140 nb        1 FJY     -0.666000
     35 C15        -4.2870    1.5470   -6.3850 ca        1 FJY      0.430200
     36 H1         -0.2000    1.1150   -0.1420 h1        1 FJY      0.047200
     37 H2         -0.2380   -0.3680   -1.2050 h1        1 FJY      0.047200
     38 H3          2.0830    0.7060   -0.8250 h1        1 FJY      0.057200
     39 H4          1.9770   -1.0880   -0.4290 h1        1 FJY      0.057200
     40 H5          1.8950   -1.6080    2.0270 h1        1 FJY      0.057200
     41 H6          1.9560   -0.1290    3.1200 h1        1 FJY      0.057200
     42 H7         -0.3760   -1.2350    2.8840 h1        1 FJY      0.047200
     43 H8         -0.2810    0.5570    2.5270 h1        1 FJY      0.047200
     44 H9         -1.9100   -1.5750   -1.3050 ha        1 FJY      0.148000
     45 H10        -2.3700   -0.1800    2.8120 ha        1 FJY      0.135000
     46 H11        -4.7970   -0.5500    2.6820 ha        1 FJY      0.135000
     47 H12        -6.7040   -2.3320    2.2690 hc        1 FJY      0.041033
     48 H13        -7.7530   -2.9190    0.9090 hc        1 FJY      0.041033
     49 H14        -6.0710   -3.5740    1.1080 hc        1 FJY      0.041033
     50 H15        -6.6840    0.4990   -0.2230 hc        1 FJY      0.041033
     51 H16        -8.1050   -0.5750    0.1230 hc        1 FJY      0.041033
     52 H17        -7.0750    0.0390    1.4850 hc        1 FJY      0.041033
     53 H18        -6.5020   -3.0760   -1.2720 h1        1 FJY      0.055700
     54 H19        -6.6710   -1.3490   -1.8410 h1        1 FJY      0.055700
     55 H20        -4.4770    1.6300   -3.0850 hc        1 FJY      0.055700
     56 H21        -3.4090    0.8150   -1.8600 hc        1 FJY      0.055700
     57 H22        -5.2040    0.5670   -1.8170 hc        1 FJY      0.055700
     58 H23        -4.6310   -4.4790   -2.3760 ha        1 FJY      0.158000
     59 H24        -4.4270   -6.3160   -4.0360 ha        1 FJY      0.152000
     60 H25        -3.5770   -3.4510   -7.1760 ha        1 FJY      0.168000
     61 H26        -1.9650    1.5090   -3.8720 ha        1 FJY      0.142000
     62 H27        -1.5710    3.7960   -4.8620 ha        1 FJY      0.146000
     63 H28        -2.9910    4.5320   -6.8220 h4        1 FJY      0.024100
     64 H29        -5.0670    0.9290   -6.8680 h4        1 FJY      0.036100
@<TRIPOS>BOND
     1    1    2 1   
     2    1    6 1   
     3    1   36 1   
     4    1   37 1   
     5    2    3 1   
     6    2   38 1   
     7    2   39 1   
     8    3    4 1   
     9    4    5 1   
    10    4   40 1   
    11    4   41 1   
    12    5    6 1   
    13    5   42 1   
    14    5   43 1   
    15    6    7 1   
    16    7    8 ar  
    17    7   10 ar  
    18    8    9 ar  
    19    8   44 1   
    20    9   12 ar  
    21    9   17 1   
    22   10   11 ar  
    23   10   45 1   
    24   11   12 ar  
    25   11   46 1   
    26   12   13 1   
    27   13   14 1   
    28   13   15 1   
    29   13   16 1   
    30   14   47 1   
    31   14   48 1   
    32   14   49 1   
    33   15   50 1   
    34   15   51 1   
    35   15   52 1   
    36   16   17 1   
    37   16   53 1   
    38   16   54 1   
    39   17   18 1   
    40   18   19 ar  
    41   18   21 ar  
    42   19   20 1   
    43   19   29 ar  
    44   20   55 1   
    45   20   56 1   
    46   20   57 1   
    47   21   22 ar  
    48   21   27 ar  
    49   22   23 ar  
    50   22   58 1   
    51   23   24 ar  
    52   23   59 1   
    53   24   25 1   
    54   24   26 ar  
    55   26   27 ar  
    56   26   60 1   
    57   27   28 ar  
    58   28   29 ar  
    59   29   30 1   
    60   30   31 ar  
    61   30   35 ar  
    62   31   32 ar  
    63   31   61 1   
    64   32   33 ar  
    65   32   62 1   
    66   33   34 ar  
    67   33   63 1   
    68   34   35 ar  
    69   35   64 1   
@<TRIPOS>SUBSTRUCTURE
     1 FJY         1 TEMP              0 ****  ****    0 ROOT
