@<TRIPOS>MOLECULE
FJZ
   45    41     1     0     0
SMALL
bcc


@<TRIPOS>ATOM
      1 C1          0.4990   -0.3750   -0.6190 c2        1 FJZ      0.008000
      2 N1          1.6010   -0.2990   -1.2540 n2        1 FJZ     -0.224000
      3 S1         -6.2910   -1.9710    0.6230 ss        1 FJZ      1.492000
      4 C2          1.8340    0.9740    2.2840 c1        1 FJZ     -0.081000
      5 N2          1.0020    0.5660    1.5740 n2        1 FJZ      0.122000
      6 C3          0.1040    0.1020    0.7110 c2        1 FJZ     -0.391000
      7 N3         -4.7650   -1.1560    2.4680 n3        1 FJZ     -0.200000
      8 C4         -1.3220   -0.0110    1.0890 c3        1 FJZ     -0.165000
      9 N4         -5.1200    0.4730    0.6340 n3        1 FJZ     -0.290000
     10 C5         -2.2580    0.5540    0.1730 c2        1 FJZ      0.161000
     11 C6         -1.3520   -3.5170    0.7530 c1        1 FJZ     -0.227500
     12 C7         -5.2250   -0.3670    3.5890 c3        1 FJZ     -0.145000
     13 C8         -2.2280   -3.4140    1.5630 c1        1 FJZ     -0.227500
     14 C10        -6.9790   -1.5330   -0.5620 c1        1 FJZ     -1.046000
     15 C11       -11.6410    0.7160   -1.9610 c3        1 FJZ     -0.199000
     16 C12        -7.6470   -1.2650   -1.6600 c2        1 FJZ      0.176000
     17 C13       -10.5630    0.6650   -2.9650 c2        1 FJZ     -0.132000
     18 C14        -9.0810   -0.8820   -1.6890 c3        1 FJZ     -0.145000
     19 C15        -9.4270   -0.0320   -2.8550 c2        1 FJZ     -0.199000
     20 H1         -0.3320   -0.8980   -1.1440 h4        1 FJZ      0.134000
     21 H2          2.3730    0.1580   -0.8180 hn        1 FJZ      0.146000
     22 HN2         2.5930    1.3390    2.9470 ha        1 FJZ      0.329000
     23 H4         -1.5540    0.2940    2.1550 hc        1 FJZ      0.222000
     24 HN4        -3.3870    0.5410    0.3890 ha        1 FJZ      0.212000
     25 H5         -4.9430    0.7190    3.5350 h1        1 FJZ      0.078333
     26 H5A        -1.9170    0.9620   -0.7970 ha        1 FJZ      0.212000
     27 H6         -1.6160   -1.1460    1.0890 hc        1 FJZ      0.222000
     28 H6A        -0.5700   -3.6390    0.0430 ha        1 FJZ      0.235000
     29 H7         -4.7810   -0.8040    4.5230 h1        1 FJZ      0.078333
     30 H7A        -6.3420   -0.4330    3.6570 h1        1 FJZ      0.078333
     31 H8         -3.7640   -1.0700    2.3860 hn        1 FJZ      0.120000
     32 H8A        -3.0100   -3.3620    2.2830 ha        1 FJZ      0.235000
     33 H10        -5.4610    1.1990    1.2430 hn        1 FJZ      0.155000
     34 H11       -11.5970   -0.1470   -1.2510 hc        1 FJZ      0.089000
     35 H11A      -12.6410    0.7030   -2.4650 hc        1 FJZ      0.089000
     36 H12       -11.5640    1.6630   -1.3670 hc        1 FJZ      0.089000
     37 H12A       -7.1570   -1.3480   -2.6520 ha        1 FJZ      0.125000
     38 H13       -10.7500    0.8100    0.6950 ha        1 FJZ      0.000500
     39 H13A      -10.7430    1.2700   -3.8720 ha        1 FJZ      0.131000
     40 H14       -10.3520    0.6660    1.2230 ha        1 FJZ      0.000500
     41 H14A       -9.6850   -1.8360   -1.7350 hc        1 FJZ      0.122500
     42 H15        -9.3680   -0.3660   -0.7300 hc        1 FJZ      0.122500
     43 H15A       -8.6860   -0.0090   -3.6710 ha        1 FJZ      0.123000
     44 H42        -5.6100    0.5470   -0.2410 hn        1 FJZ      0.155000
     45 C9         -5.3740   -0.8180    1.2120 c2        1 FJZ     -0.792000
@<TRIPOS>BOND
     1    1    2 1   
     2    1    6 1   
     3    1   20 1   
     4    2   21 1   
     5    3   14 1   
     6    3   45 1   
     7    4    5 1   
     8    4   22 1   
     9    5    6 1   
    10    6    8 1   
    11    7   12 1   
    12    7   31 1   
    13    7   45 1   
    14    8   10 1   
    15    8   23 1   
    16    8   27 1   
    17    9   33 1   
    18    9   44 1   
    19    9   45 1   
    20   10   24 1   
    21   10   26 1   
    22   11   13 1   
    23   11   28 1   
    24   12   25 1   
    25   12   29 1   
    26   12   30 1   
    27   13   32 1   
    28   14   16 1   
    29   15   17 1   
    30   15   34 1   
    31   15   35 1   
    32   15   36 1   
    33   16   18 1   
    34   16   37 1   
    35   17   19 1   
    36   17   39 1   
    37   18   19 1   
    38   18   41 1   
    39   18   42 1   
    40   19   43 1   
    41   38   40 1   
@<TRIPOS>SUBSTRUCTURE
     1 FJZ         1 TEMP              0 ****  ****    0 ROOT
