@<TRIPOS>MOLECULE
FJZ
   45    44     1     0     0
SMALL
bcc


@<TRIPOS>ATOM
      1 C1         -1.7130   -0.3030    0.5830 c2        1 FJZ      0.238000
      2 N1         -1.8740   -0.3880   -0.7250 nv        1 FJZ     -0.785600
      3 S1         -4.5470   -0.4380   -2.0880 s         1 FJZ     -0.600300
      4 C2          1.7730   -0.3610    0.2610 c1        1 FJZ      0.373300
      5 N2          0.7030   -0.3180    0.7150 n1        1 FJZ     -0.709500
      6 C3         -0.5070   -0.2620    1.3180 ce        1 FJZ      0.216500
      7 N3         -5.3810    0.0230    0.3860 n2        1 FJZ     -0.384200
      8 C4         -0.5260   -0.1490    2.8040 cy        1 FJZ      0.006700
      9 N4         -7.0410   -0.0470   -1.4800 ny        1 FJZ     -0.656800
     10 C5         -1.8930   -0.2720    3.4770 cv        1 FJZ     -0.204200
     11 C6         -0.1530   -1.4600    3.5970 cy        1 FJZ     -0.078200
     12 C7         -6.3120    0.2990    1.4220 c3        1 FJZ      0.103100
     13 C8         -1.5550   -1.3800    4.1780 cv        1 FJZ     -0.135200
     14 C10        -7.9420   -1.1610   -1.0900 c3        1 FJZ      0.106800
     15 C11        -8.5190    2.9360   -0.8620 cx        1 FJZ     -0.119000
     16 C12        -7.6420   -2.4710   -1.8120 c3        1 FJZ     -0.099400
     17 C13        -9.6180    2.2070   -1.5580 cu        1 FJZ     -0.187200
     18 C14        -8.5600   -3.5530   -1.3050 c3        1 FJZ     -0.099100
     19 C15        -9.8680    3.4570   -1.2220 cu        1 FJZ     -0.187200
     20 H1         -2.6510   -0.2560    1.1910 h4        1 FJZ      0.212000
     21 H2         -1.1070   -0.4370   -1.3540 hn        1 FJZ      0.476800
     22 HN2         2.7580   -0.4040   -0.1690 ha        1 FJZ      0.275500
     23 H4          0.0450    0.7470    3.1500 hc        1 FJZ      0.079700
     24 HN4        -7.4830    0.8440   -1.2240 hn        1 FJZ      0.452800
     25 H5         -5.7530    0.8520    2.2260 h1        1 FJZ      0.050367
     26 H5A        -2.7530    0.3800    3.4070 ha        1 FJZ      0.160000
     27 H6          0.0340   -2.3490    2.9590 hc        1 FJZ      0.069700
     28 H6A         0.6650   -1.3290    4.3350 hc        1 FJZ      0.069700
     29 H7         -6.7020   -0.6590    1.8670 h1        1 FJZ      0.050367
     30 H7A        -7.1910    0.9290    1.1150 h1        1 FJZ      0.050367
     31 H8         -2.8330   -0.4040   -1.1500 hn        1 FJZ      0.476800
     32 H8A        -2.0350   -2.0150    4.9100 ha        1 FJZ      0.169000
     33 H10        -7.8550   -1.3140    0.0240 hx        1 FJZ      0.083700
     34 H11        -9.0010   -0.8440   -1.3190 hx        1 FJZ      0.083700
     35 H11A       -8.2780    2.7170    0.1960 hc        1 FJZ      0.054700
     36 H12        -7.7850   -2.3390   -2.9180 hc        1 FJZ      0.073200
     37 H12A       -6.5710   -2.7660   -1.6480 hc        1 FJZ      0.073200
     38 H13        -7.6270    3.2830   -1.4180 hc        1 FJZ      0.054700
     39 H13A       -9.9210    1.2840   -2.0050 ha        1 FJZ      0.196000
     40 H14        -9.6310   -3.2810   -1.4720 hc        1 FJZ      0.050700
     41 H14A       -8.3510   -4.5070   -1.8470 hc        1 FJZ      0.050700
     42 H15        -8.4060   -3.7280   -0.2130 hc        1 FJZ      0.050700
     43 H15A      -10.5040    4.3180   -1.1790 ha        1 FJZ      0.196000
     44 H42        -6.8930   -0.0670   -2.5040 hn        1 FJZ      0.452800
     45 C9         -5.6330   -0.1410   -0.8640 c2        1 FJZ      0.189300
@<TRIPOS>BOND
     1    1    2 1   
     2    1    6 2   
     3    1   20 1   
     4    2   21 1   
     5    2   31 1   
     6    3   45 1   
     7    4    5 3   
     8    4   22 1   
     9    5    6 1   
    10    6    8 1   
    11    7   12 1   
    12    7   45 2   
    13    8   10 1   
    14    8   11 1   
    15    8   23 1   
    16    9   14 1   
    17    9   24 1   
    18    9   44 1   
    19    9   45 1   
    20   10   13 2   
    21   10   26 1   
    22   11   13 1   
    23   11   27 1   
    24   11   28 1   
    25   12   25 1   
    26   12   29 1   
    27   12   30 1   
    28   13   32 1   
    29   14   16 1   
    30   14   33 1   
    31   14   34 1   
    32   15   17 1   
    33   15   19 1   
    34   15   35 1   
    35   15   38 1   
    36   16   18 1   
    37   16   36 1   
    38   16   37 1   
    39   17   19 2   
    40   17   39 1   
    41   18   40 1   
    42   18   41 1   
    43   18   42 1   
    44   19   43 1   
@<TRIPOS>SUBSTRUCTURE
     1 FJZ         1 TEMP              0 ****  ****    0 ROOT
