@<TRIPOS>MOLECULE
FJZ
   44    46     1     0     0
SMALL
bcc


@<TRIPOS>ATOM
      1 C1         -3.8970   -1.8280   -0.5980 cc        1 FJZ      0.295200
      2 N1         -4.9780   -1.9620   -1.4630 nc        1 FJZ     -0.664000
      3 S1          1.6050    2.5080    0.2480 s         1 FJZ     -0.594400
      4 C2         -5.5460   -0.7370   -1.5340 cd        1 FJZ      0.388400
      5 N2         -4.8660    0.1880   -0.7350 na        1 FJZ     -0.314900
      6 C3         -3.8040   -0.4980   -0.1320 cd        1 FJZ     -0.215900
      7 N3         -0.1450    1.0320    1.5420 n         1 FJZ     -0.392800
      8 C4         -2.8450    0.1160    0.8170 c3        1 FJZ      0.012600
      9 N4          1.6970   -0.1070    0.4800 n         1 FJZ     -0.508900
     10 C5         -1.7260   -0.8670    1.1480 c3        1 FJZ     -0.106400
     11 C6         -2.2690    1.4190    0.2740 c3        1 FJZ     -0.106400
     12 C7         -0.7020   -0.2000    2.0670 c3        1 FJZ      0.053500
     13 C8         -1.1900    1.9890    1.1970 c3        1 FJZ      0.053500
     14 C10         3.0550   -0.1310   -0.0370 c3        1 FJZ      0.077700
     15 C11         4.0670   -0.6190    1.0150 c3        1 FJZ     -0.087900
     16 C12         3.1580   -1.0200   -1.2880 c3        1 FJZ     -0.087900
     17 C13         5.4710   -0.5730    0.4480 c3        1 FJZ     -0.075400
     18 C14         4.5660   -0.9710   -1.8450 c3        1 FJZ     -0.075400
     19 C15         5.5870   -1.4030   -0.8140 c3        1 FJZ     -0.080400
     20 H1         -3.2510   -2.6710   -0.3570 h4        1 FJZ      0.039100
     21 H2         -6.4260   -0.4710   -2.1280 h5        1 FJZ      0.062100
     22 HN2        -5.0680    1.1450   -0.6290 hn        1 FJZ      0.300700
     23 H4         -3.3960    0.3490    1.7760 hc        1 FJZ      0.058700
     24 HN4         1.3510   -0.9830    0.7980 hn        1 FJZ      0.302500
     25 H5         -2.1510   -1.7640    1.6670 hc        1 FJZ      0.057700
     26 H5A        -1.2350   -1.2180    0.2030 hc        1 FJZ      0.057700
     27 H6         -1.8450    1.2460   -0.7490 hc        1 FJZ      0.057700
     28 H6A        -3.0790    2.1880    0.1810 hc        1 FJZ      0.057700
     29 H7          0.1010   -0.9340    2.3460 h1        1 FJZ      0.073200
     30 H7A        -1.2200    0.0830    3.0310 h1        1 FJZ      0.073200
     31 H8         -1.6610    2.3100    2.1690 h1        1 FJZ      0.073200
     32 H8A        -0.7200    2.8960    0.7120 h1        1 FJZ      0.073200
     33 H10         3.3320    0.9330   -0.3320 h1        1 FJZ      0.121700
     34 H11         4.0130    0.0310    1.9260 hc        1 FJZ      0.044950
     35 H11A        3.8210   -1.6680    1.3260 hc        1 FJZ      0.044950
     36 H12         2.8920   -2.0780   -1.0300 hc        1 FJZ      0.044950
     37 H12A        2.4360   -0.6650   -2.0680 hc        1 FJZ      0.044950
     38 H13         5.7480    0.4910    0.2240 hc        1 FJZ      0.046700
     39 H13A        6.1910   -0.9550    1.2170 hc        1 FJZ      0.046700
     40 H14         4.6300   -1.6410   -2.7420 hc        1 FJZ      0.046700
     41 H14A        4.7960    0.0730   -2.1870 hc        1 FJZ      0.046700
     42 H15         6.6190   -1.2970   -1.2390 hc        1 FJZ      0.041200
     43 H15A        5.4340   -2.4860   -0.5650 hc        1 FJZ      0.041200
     44 C9          1.0320    1.0660    0.7610 c         1 FJZ      0.570400
@<TRIPOS>BOND
     1    1    2 1   
     2    1    6 2   
     3    1   20 1   
     4    2    4 2   
     5    3   44 2   
     6    4    5 1   
     7    4   21 1   
     8    5    6 1   
     9    5   22 1   
    10    6    8 1   
    11    7   12 1   
    12    7   13 1   
    13    7   44 1   
    14    8   10 1   
    15    8   11 1   
    16    8   23 1   
    17    9   14 1   
    18    9   24 1   
    19    9   44 1   
    20   10   12 1   
    21   10   25 1   
    22   10   26 1   
    23   11   13 1   
    24   11   27 1   
    25   11   28 1   
    26   12   29 1   
    27   12   30 1   
    28   13   31 1   
    29   13   32 1   
    30   14   15 1   
    31   14   16 1   
    32   14   33 1   
    33   15   17 1   
    34   15   34 1   
    35   15   35 1   
    36   16   18 1   
    37   16   36 1   
    38   16   37 1   
    39   17   19 1   
    40   17   38 1   
    41   17   39 1   
    42   18   19 1   
    43   18   40 1   
    44   18   41 1   
    45   19   42 1   
    46   19   43 1   
@<TRIPOS>SUBSTRUCTURE
     1 FJZ         1 TEMP              0 ****  ****    0 ROOT
