@<TRIPOS>MOLECULE
FJZ
   44    42     1     0     0
SMALL
bcc


@<TRIPOS>ATOM
      1 C1          4.8480    0.0070   -3.4060 c1        1 FJZ     -0.144000
      2 N1          6.1800    0.0330   -3.3120 n2        1 FJZ     -0.169000
      3 S1         -2.4730    0.1340   -1.5830 s         1 FJZ     -0.333000
      4 C2          6.5080    0.0030   -1.9980 c1        1 FJZ     -0.100000
      5 N2          5.3600   -0.0430   -1.2800 n2        1 FJZ     -0.169000
      6 C3          4.3360   -0.0410   -2.1370 c1        1 FJZ     -0.144000
      7 N3          0.1600    0.0070   -1.0950 n         1 FJZ     -0.285000
      8 C4          2.7800   -0.1040   -2.3250 c2        1 FJZ     -0.039000
      9 N4         -1.3450    0.0260    0.8470 n         1 FJZ     -0.325000
     10 C5          2.2530   -1.2490   -1.5580 c3        1 FJZ     -0.161000
     11 C6          2.1900    1.1890   -1.8830 c3        1 FJZ     -0.161000
     12 C7          0.7400   -1.2770   -1.5290 c3        1 FJZ     -0.041500
     13 C8          0.6790    1.1510   -1.8540 c3        1 FJZ     -0.041500
     14 C9         -1.1530    0.0470   -0.5590 c2        1 FJZ      0.175000
     15 C10        -2.6720   -0.0380    1.3880 c3        1 FJZ      0.003000
     16 C11        -2.7440   -1.1860    2.3760 c3        1 FJZ     -0.166500
     17 C12        -3.0050    1.2980    2.0280 c3        1 FJZ     -0.166500
     18 C13        -4.0540   -1.2170    3.1320 c3        1 FJZ     -0.154000
     19 C14        -4.3150    1.2670    2.7840 c3        1 FJZ     -0.154000
     20 C15        -4.3870    0.1180    3.7700 c3        1 FJZ     -0.159000
     21 H1          4.3300    0.0190   -4.2340 DU        1 FJZ      0.210000
     22 H2          7.4130    0.0120   -1.6320 DU        1 FJZ      0.210000
     23 HN2         5.2970   -0.0700   -0.3700 DU        1 FJZ      0.210000
     24 H4          2.5790   -0.2370   -3.2710 ha        1 FJZ      0.110000
     25 HN4        -0.6250    0.0460    1.4060 hn        1 FJZ      0.215000
     26 H5          2.5770   -2.0780   -1.9640 hc        1 FJZ      0.096000
     27 H5A         2.5870   -1.1950   -0.6400 hc        1 FJZ      0.096000
     28 H6          2.4770    1.8940   -2.4970 hc        1 FJZ      0.096000
     29 H6A         2.5190    1.3960   -0.9850 hc        1 FJZ      0.096000
     30 H7          0.4480   -1.9790   -0.9130 h1        1 FJZ      0.098000
     31 H7A         0.4100   -1.4860   -2.4260 h1        1 FJZ      0.098000
     32 H8          0.3500    1.9760   -1.4440 h1        1 FJZ      0.098000
     33 H8A         0.3460    1.0990   -2.7720 h1        1 FJZ      0.098000
     34 H10        -3.3030   -0.2060    0.6610 h1        1 FJZ      0.163000
     35 H11        -2.0110   -1.0980    3.0170 hc        1 FJZ      0.083500
     36 H11A       -2.6400   -2.0280    1.8890 hc        1 FJZ      0.083500
     37 H12        -3.0610    1.9790    1.3270 hc        1 FJZ      0.083500
     38 H12A       -2.2880    1.5400    2.6480 hc        1 FJZ      0.083500
     39 H13        -3.9990   -1.8980    3.8320 hc        1 FJZ      0.086000
     40 H13A       -4.7720   -1.4590    2.5120 hc        1 FJZ      0.086000
     41 H14        -4.4200    2.1090    3.2700 hc        1 FJZ      0.086000
     42 H14A       -5.0490    1.1780    2.1420 hc        1 FJZ      0.086000
     43 H15        -5.2920    0.0750    4.1400 hc        1 FJZ      0.080500
     44 H15A       -3.7560    0.2860    4.4980 hc        1 FJZ      0.080500
@<TRIPOS>BOND
     1    1    2 1   
     2    1    6 1   
     3    2    4 1   
     4    3   14 1   
     5    4    5 1   
     6    5    6 1   
     7    7   12 1   
     8    7   13 1   
     9    7   14 1   
    10    8   10 1   
    11    8   11 1   
    12    8   24 1   
    13    9   14 1   
    14    9   15 1   
    15    9   25 1   
    16   10   12 1   
    17   10   26 1   
    18   10   27 1   
    19   11   13 1   
    20   11   28 1   
    21   11   29 1   
    22   12   30 1   
    23   12   31 1   
    24   13   32 1   
    25   13   33 1   
    26   15   16 1   
    27   15   17 1   
    28   15   34 1   
    29   16   18 1   
    30   16   35 1   
    31   16   36 1   
    32   17   19 1   
    33   17   37 1   
    34   17   38 1   
    35   18   20 1   
    36   18   39 1   
    37   18   40 1   
    38   19   20 1   
    39   19   41 1   
    40   19   42 1   
    41   20   43 1   
    42   20   44 1   
@<TRIPOS>SUBSTRUCTURE
     1 FJZ         1 TEMP              0 ****  ****    0 ROOT
