@<TRIPOS>MOLECULE
FJZ
   45    44     1     0     0
SMALL
bcc


@<TRIPOS>ATOM
      1 C1         -2.8870   -2.1240    0.8430 c2        1 FJZ      0.025000
      2 N1         -3.1900   -2.8370   -0.1750 n2        1 FJZ     -0.299000
      3 S1         -5.5520    0.1040    1.6280 sh        1 FJZ      0.321000
      4 C2          0.4940   -2.9650    0.8390 c1        1 FJZ     -0.155000
      5 N2         -0.4940   -2.4220    1.1510 n2        1 FJZ      0.132000
      6 C3         -1.6170   -1.8080    1.4840 c2        1 FJZ     -0.357000
      7 N3         -4.4350    2.2280    0.5770 n3        1 FJZ     -0.225000
      8 C4         -1.6380   -0.7650    2.5590 c3        1 FJZ     -0.052000
      9 N4         -5.8640    1.0220   -0.9060 n3        1 FJZ     -0.282000
     10 C5         -2.1920    0.5040    2.0140 c2        1 FJZ     -0.063000
     11 C6         -3.3080    1.0830    2.4760 c2        1 FJZ     -0.269000
     12 C7         -4.0910    3.2020   -0.4300 c3        1 FJZ     -0.114000
     13 C8         -3.8530    2.3580    1.9160 c3        1 FJZ     -0.004000
     14 C10        -6.5400   -0.1990   -1.3050 c3        1 FJZ     -0.069000
     15 C11        -9.1300   -1.2090    1.2080 cx        1 FJZ     -0.198000
     16 C12        -6.7870   -0.2710   -2.8120 c3        1 FJZ     -0.169000
     17 C13        -9.9610   -2.3610    0.7580 cu        1 FJZ     -0.184000
     18 C14        -7.4420   -1.5880   -3.1440 c3        1 FJZ     -0.221000
     19 C15        -8.7340   -2.3050    0.2800 cu        1 FJZ     -0.184000
     20 H1         -3.7410   -1.6110    1.3500 h4        1 FJZ      0.134000
     21 H2         -2.4500   -3.3150   -0.6410 hn        1 FJZ      0.137000
     22 HN2         1.3860   -3.5000    0.5990 ha        1 FJZ      0.316000
     23 H4         -0.6110   -0.5570    2.9690 hc        1 FJZ      0.106000
     24 HN4        -8.7460   -1.1770    2.2450 hc        1 FJZ      0.087500
     25 H5         -3.5900    2.7050   -1.3050 h1        1 FJZ      0.116000
     26 H5A        -1.6290    0.9320    1.1670 ha        1 FJZ      0.131000
     27 H6         -2.2640   -1.1420    3.4140 hc        1 FJZ      0.106000
     28 H6A        -3.8480    0.6840    3.3540 ha        1 FJZ      0.157000
     29 H7         -3.3840    3.9620   -0.0010 h1        1 FJZ      0.116000
     30 H7A        -5.0130    3.7420   -0.7820 h1        1 FJZ      0.116000
     31 H8         -3.0280    3.1260    1.8540 h1        1 FJZ      0.129500
     32 H8A        -4.6580    2.7600    2.6000 h1        1 FJZ      0.129500
     33 H10        -5.9150   -1.0890   -0.9950 h1        1 FJZ      0.123500
     34 H11        -7.5370   -0.2560   -0.7710 h1        1 FJZ      0.123500
     35 H11A       -9.3400   -0.1930    0.8230 hc        1 FJZ      0.087500
     36 H12        -7.4500    0.5750   -3.1360 hc        1 FJZ      0.099500
     37 H12A       -5.8180   -0.1800   -3.3710 hc        1 FJZ      0.099500
     38 H13        -6.6240   -0.5670    1.2050 hs        1 FJZ      0.034000
     39 H13A      -10.9230   -2.8230    0.8490 ha        1 FJZ      0.197500
     40 H14        -8.3970   -1.7130   -2.5780 hc        1 FJZ      0.094667
     41 H14A       -6.7670   -2.4420   -2.8920 hc        1 FJZ      0.094667
     42 H15        -7.6700   -1.6300   -4.2370 hc        1 FJZ      0.094667
     43 H15A       -7.9410   -2.7030   -0.3190 ha        1 FJZ      0.197500
     44 H42        -5.7070    1.6940   -1.6330 hn        1 FJZ      0.259000
     45 C9         -5.2780    1.1840    0.3090 c2        1 FJZ      0.082000
@<TRIPOS>BOND
     1    1    2 1   
     2    1    6 1   
     3    1   20 1   
     4    2   21 1   
     5    3   38 1   
     6    3   45 1   
     7    4    5 1   
     8    4   22 1   
     9    5    6 1   
    10    6    8 1   
    11    7   12 1   
    12    7   13 1   
    13    7   45 1   
    14    8   10 1   
    15    8   23 1   
    16    8   27 1   
    17    9   14 1   
    18    9   44 1   
    19    9   45 1   
    20   10   11 1   
    21   10   26 1   
    22   11   13 1   
    23   11   28 1   
    24   12   25 1   
    25   12   29 1   
    26   12   30 1   
    27   13   31 1   
    28   13   32 1   
    29   14   16 1   
    30   14   33 1   
    31   14   34 1   
    32   15   17 1   
    33   15   19 1   
    34   15   24 1   
    35   15   35 1   
    36   16   18 1   
    37   16   36 1   
    38   16   37 1   
    39   17   19 1   
    40   17   39 1   
    41   18   40 1   
    42   18   41 1   
    43   18   42 1   
    44   19   43 1   
@<TRIPOS>SUBSTRUCTURE
     1 FJZ         1 TEMP              0 ****  ****    0 ROOT
