@<TRIPOS>MOLECULE
FK9
   43    43     1     0     0
SMALL
bcc


@<TRIPOS>ATOM
      1 O6         -0.0390   -0.0150    0.1010 oh        1 FK9     -0.594800
      2 C6          1.3710    0.0230    0.0900 c3        1 FK9      0.141400
      3 C5          1.9340    0.1040    1.5100 c3        1 FK9      0.101100
      4 O5          1.5650   -1.1270    2.1450 os        1 FK9     -0.460600
      5 C4          3.4610    0.2450    1.5020 c3        1 FK9      0.091100
      6 O4          3.7710    1.4830    0.8890 oh        1 FK9     -0.590800
      7 C3          3.9890    0.1960    2.9480 c3        1 FK9      0.074100
      8 O3          5.3980    0.2910    2.9430 oh        1 FK9     -0.593800
      9 C2          3.5050   -1.0750    3.6580 c3        1 FK9      0.095100
     10 O2          4.1830   -2.2140    3.1650 oh        1 FK9     -0.591800
     11 C1          1.9840   -1.2530    3.4900 c3        1 FK9      0.302900
     12 O1          1.3480   -0.2350    4.2310 os        1 FK9     -0.440600
     13 C7         -0.0660   -0.4210    4.3590 c3        1 FK9      0.135400
     14 C8         -0.5780    0.7600    5.1670 c3        1 FK9     -0.074400
     15 C9         -2.0770    0.6880    5.2930 c3        1 FK9     -0.012300
     16 C13        -4.3450    1.8740    6.2720 c3        1 FK9     -0.010300
     17 C14        -4.9250    2.9710    7.1280 c3        1 FK9     -0.072400
     18 C15        -6.4320    2.9240    7.1270 c3        1 FK9     -0.092100
     19 S1         -2.5820    2.0170    6.3450 ss        1 FK9     -0.301200
     20 H6         -0.2970   -0.7860    0.6220 ho        1 FK9      0.406000
     21 H61C        1.6450    0.9600   -0.4660 h1        1 FK9      0.063200
     22 H62C        1.7820   -0.8780   -0.4370 h1        1 FK9      0.063200
     23 H5          1.4690    0.9610    2.0700 h1        1 FK9      0.085700
     24 H4          3.9260   -0.5880    0.9020 h1        1 FK9      0.039700
     25 H1          1.6540   -2.2870    3.7940 h2        1 FK9      0.089700
     26 HA          4.6780    1.7010    1.1490 ho        1 FK9      0.424000
     27 H3          3.6320    1.1040    3.5120 h1        1 FK9      0.109700
     28 HB          5.7500   -0.5890    2.7480 ho        1 FK9      0.417000
     29 H2          3.7710   -1.0310    4.7510 h1        1 FK9      0.111700
     30 HC          3.8470   -2.3900    2.2750 ho        1 FK9      0.411000
     31 H71C       -0.5270   -0.4470    3.3360 h1        1 FK9      0.038200
     32 H72C       -0.2670   -1.3920    4.8840 h1        1 FK9      0.038200
     33 H81C       -0.0980    0.7500    6.1810 hc        1 FK9      0.071200
     34 H82C       -0.2720    1.7140    4.6620 hc        1 FK9      0.071200
     35 H91C       -2.5620    0.7800    4.2900 h1        1 FK9      0.059700
     36 H92C       -2.3910   -0.2900    5.7320 h1        1 FK9      0.059700
     37 H151       -6.7970    1.9480    7.5280 hc        1 FK9      0.035700
     38 H152       -6.8300    3.0500    6.0920 hc        1 FK9      0.035700
     39 H153       -6.8420    3.7440    7.7660 hc        1 FK9      0.035700
     40 H141       -4.5790    3.9690    6.7460 hc        1 FK9      0.055200
     41 H142       -4.5450    2.8680    8.1800 hc        1 FK9      0.055200
     42 H131       -4.6670    0.8720    6.6460 h1        1 FK9      0.058700
     43 H132       -4.6980    1.9710    5.2170 h1        1 FK9      0.058700
@<TRIPOS>BOND
     1    1    2 1   
     2    1   20 1   
     3    2    3 1   
     4    2   21 1   
     5    2   22 1   
     6    3    4 1   
     7    3    5 1   
     8    3   23 1   
     9    4   11 1   
    10    5    6 1   
    11    5    7 1   
    12    5   24 1   
    13    6   26 1   
    14    7    8 1   
    15    7    9 1   
    16    7   27 1   
    17    8   28 1   
    18    9   10 1   
    19    9   11 1   
    20    9   29 1   
    21   10   30 1   
    22   11   12 1   
    23   11   25 1   
    24   12   13 1   
    25   13   14 1   
    26   13   31 1   
    27   13   32 1   
    28   14   15 1   
    29   14   33 1   
    30   14   34 1   
    31   15   19 1   
    32   15   35 1   
    33   15   36 1   
    34   16   17 1   
    35   16   19 1   
    36   16   42 1   
    37   16   43 1   
    38   17   18 1   
    39   17   40 1   
    40   17   41 1   
    41   18   37 1   
    42   18   38 1   
    43   18   39 1   
@<TRIPOS>SUBSTRUCTURE
     1 FK9         1 TEMP              0 ****  ****    0 ROOT
