@<TRIPOS>MOLECULE
FK9
   43    43     1     0     0
SMALL
bcc


@<TRIPOS>ATOM
      1 O6         -1.3090    3.2250    0.3050 oh        1 FK9     -0.600800
      2 C6         -2.5900    2.6150    0.2680 c3        1 FK9      0.134400
      3 C5         -2.3680    1.1410   -0.0760 c3        1 FK9      0.145100
      4 O5         -2.0690    0.4840    1.1610 os        1 FK9     -0.429600
      5 C4         -3.6320    0.5140   -0.6830 c3        1 FK9      0.086100
      6 O4         -3.9350    1.2130   -1.8780 oh        1 FK9     -0.596800
      7 C3         -3.3640   -0.9740   -0.9670 c3        1 FK9      0.116100
      8 O3         -4.5060   -1.5720   -1.5450 oh        1 FK9     -0.596800
      9 C2         -2.9270   -1.6930    0.3160 c3        1 FK9      0.094100
     10 O2         -4.0840   -1.8130    1.1290 oh        1 FK9     -0.600800
     11 C1         -1.8310   -0.9010    1.0580 c3        1 FK9      0.305900
     12 O1         -0.6350   -1.0760    0.3230 os        1 FK9     -0.451600
     13 C7          0.5140   -0.4970    0.9510 c3        1 FK9      0.134400
     14 C8          1.6990   -0.8400    0.0640 c3        1 FK9     -0.074400
     15 C9          2.9460   -0.1830    0.5950 c3        1 FK9     -0.010300
     16 C13         5.6330    0.2280    0.2530 c3        1 FK9     -0.009300
     17 C14         6.8780   -0.1350   -0.5180 c3        1 FK9     -0.071400
     18 C15         8.0700    0.6470   -0.0280 c3        1 FK9     -0.092100
     19 S1          4.3020   -0.7420   -0.3950 ss        1 FK9     -0.305200
     20 H6         -1.4560    4.1490    0.5390 ho        1 FK9      0.401000
     21 H61C       -3.0960    2.7110    1.2640 h1        1 FK9      0.047200
     22 H62C       -3.2190    3.0850   -0.5350 h1        1 FK9      0.047200
     23 H5         -1.4970    1.0300   -0.7780 h1        1 FK9      0.084700
     24 H4         -4.4950    0.6100    0.0330 h1        1 FK9      0.059700
     25 H1         -1.7250   -1.2450    2.1270 h2        1 FK9      0.071700
     26 HA         -4.5050    0.6320   -2.4010 ho        1 FK9      0.421000
     27 H3         -2.5540   -1.0800   -1.7440 h1        1 FK9      0.104700
     28 HB         -5.1780   -1.6450   -0.8530 ho        1 FK9      0.421000
     29 H2         -2.5300   -2.7140    0.0580 h1        1 FK9      0.072700
     30 HC         -3.8330   -2.3250    1.9070 ho        1 FK9      0.414000
     31 H71C        0.3680    0.6130    1.0300 h1        1 FK9      0.043700
     32 H72C        0.6350   -0.9320    1.9780 h1        1 FK9      0.043700
     33 H81C        1.8280   -1.9540    0.0280 hc        1 FK9      0.068700
     34 H82C        1.4900   -0.4940   -0.9830 hc        1 FK9      0.068700
     35 H91C        2.8580    0.9290    0.5430 h1        1 FK9      0.060200
     36 H92C        3.1140   -0.4600    1.6650 h1        1 FK9      0.060200
     37 H151        8.9800    0.3650   -0.6100 hc        1 FK9      0.035367
     38 H152        7.9000    1.7440   -0.1480 hc        1 FK9      0.035367
     39 H153        8.2630    0.4380    1.0530 hc        1 FK9      0.035367
     40 H141        7.0790   -1.2340   -0.4110 hc        1 FK9      0.055200
     41 H142        6.7170    0.0700   -1.6100 hc        1 FK9      0.055200
     42 H131        5.7710    0.0180    1.3410 h1        1 FK9      0.058200
     43 H132        5.4070    1.3170    0.1440 h1        1 FK9      0.058200
@<TRIPOS>BOND
     1    1    2 1   
     2    1   20 1   
     3    2    3 1   
     4    2   21 1   
     5    2   22 1   
     6    3    4 1   
     7    3    5 1   
     8    3   23 1   
     9    4   11 1   
    10    5    6 1   
    11    5    7 1   
    12    5   24 1   
    13    6   26 1   
    14    7    8 1   
    15    7    9 1   
    16    7   27 1   
    17    8   28 1   
    18    9   10 1   
    19    9   11 1   
    20    9   29 1   
    21   10   30 1   
    22   11   12 1   
    23   11   25 1   
    24   12   13 1   
    25   13   14 1   
    26   13   31 1   
    27   13   32 1   
    28   14   15 1   
    29   14   33 1   
    30   14   34 1   
    31   15   19 1   
    32   15   35 1   
    33   15   36 1   
    34   16   17 1   
    35   16   19 1   
    36   16   42 1   
    37   16   43 1   
    38   17   18 1   
    39   17   40 1   
    40   17   41 1   
    41   18   37 1   
    42   18   38 1   
    43   18   39 1   
@<TRIPOS>SUBSTRUCTURE
     1 FK9         1 TEMP              0 ****  ****    0 ROOT
