@<TRIPOS>MOLECULE
FK9
   43    43     1     0     0
SMALL
bcc


@<TRIPOS>ATOM
      1 O6         -0.0800    0.2270    0.2620 oh        1 FK9     -0.598800
      2 C6          1.2860   -0.1390    0.1610 c3        1 FK9      0.135400
      3 C5          1.8890    0.0080    1.5580 c3        1 FK9      0.141100
      4 O5          1.5980   -1.2110    2.2520 os        1 FK9     -0.443600
      5 C4          3.4140    0.1910    1.4910 c3        1 FK9      0.086100
      6 O4          3.6750    1.3970    0.7960 oh        1 FK9     -0.592800
      7 C3          3.9830    0.2390    2.9210 c3        1 FK9      0.075100
      8 O3          5.3880    0.3840    2.8660 oh        1 FK9     -0.595800
      9 C2          3.5670   -1.0080    3.7120 c3        1 FK9      0.094100
     10 O2          4.2770   -2.1460    3.2600 oh        1 FK9     -0.592800
     11 C1          2.0490   -1.2490    3.5920 c3        1 FK9      0.300900
     12 O1          1.3960   -0.2200    4.3010 os        1 FK9     -0.443600
     13 C7         -0.0170   -0.4200    4.4240 c3        1 FK9      0.132400
     14 C8         -0.5440    0.7650    5.2150 c3        1 FK9     -0.074400
     15 C9         -2.0440    0.6820    5.3290 c3        1 FK9     -0.010300
     16 C13        -4.3320    1.8500    6.2810 c3        1 FK9     -0.009300
     17 C14        -4.9330    2.9500    7.1190 c3        1 FK9     -0.072400
     18 C15        -6.4390    2.8800    7.1120 c3        1 FK9     -0.092100
     19 S1         -2.5720    2.0200    6.3590 ss        1 FK9     -0.304200
     20 H6         -0.4520    0.1390   -0.6230 ho        1 FK9      0.402000
     21 H61C        1.8240    0.5550   -0.5400 h1        1 FK9      0.045700
     22 H62C        1.3780   -1.1990   -0.1970 h1        1 FK9      0.045700
     23 H5          1.4150    0.8720    2.1000 h1        1 FK9      0.091700
     24 H4          3.8830   -0.6630    0.9260 h1        1 FK9      0.037700
     25 H1          1.7650   -2.2770    3.9570 h2        1 FK9      0.089700
     26 HA          4.5740    1.6660    1.0370 ho        1 FK9      0.424000
     27 H3          3.6100    1.1630    3.4470 h1        1 FK9      0.108700
     28 HB          5.7660   -0.4940    2.7130 ho        1 FK9      0.417000
     29 H2          3.8590   -0.8940    4.7930 h1        1 FK9      0.110700
     30 HC          3.9120   -2.3920    2.3990 ho        1 FK9      0.411000
     31 H71C       -0.2090   -1.3860    4.9620 h1        1 FK9      0.044200
     32 H72C       -0.4720   -0.4650    3.3990 h1        1 FK9      0.044200
     33 H81C       -0.2440    1.7160    4.7000 hc        1 FK9      0.069700
     34 H82C       -0.0730    0.7730    6.2330 hc        1 FK9      0.069700
     35 H91C       -2.3530   -0.2940    5.7790 h1        1 FK9      0.060200
     36 H92C       -2.5210    0.7550    4.3210 h1        1 FK9      0.060200
     37 H151       -6.7920    1.9040    7.5240 hc        1 FK9      0.035700
     38 H152       -6.8650    3.7020    7.7370 hc        1 FK9      0.035700
     39 H153       -6.8340    2.9860    6.0720 hc        1 FK9      0.035700
     40 H141       -4.6000    3.9470    6.7250 hc        1 FK9      0.055200
     41 H142       -4.5580    2.8670    8.1740 hc        1 FK9      0.055200
     42 H131       -4.6410    0.8490    6.6680 h1        1 FK9      0.058200
     43 H132       -4.6820    1.9270    5.2230 h1        1 FK9      0.058200
@<TRIPOS>BOND
     1    1    2 1   
     2    1   20 1   
     3    2    3 1   
     4    2   21 1   
     5    2   22 1   
     6    3    4 1   
     7    3    5 1   
     8    3   23 1   
     9    4   11 1   
    10    5    6 1   
    11    5    7 1   
    12    5   24 1   
    13    6   26 1   
    14    7    8 1   
    15    7    9 1   
    16    7   27 1   
    17    8   28 1   
    18    9   10 1   
    19    9   11 1   
    20    9   29 1   
    21   10   30 1   
    22   11   12 1   
    23   11   25 1   
    24   12   13 1   
    25   13   14 1   
    26   13   31 1   
    27   13   32 1   
    28   14   15 1   
    29   14   33 1   
    30   14   34 1   
    31   15   19 1   
    32   15   35 1   
    33   15   36 1   
    34   16   17 1   
    35   16   19 1   
    36   16   42 1   
    37   16   43 1   
    38   17   18 1   
    39   17   40 1   
    40   17   41 1   
    41   18   37 1   
    42   18   38 1   
    43   18   39 1   
@<TRIPOS>SUBSTRUCTURE
     1 FK9         1 TEMP              0 ****  ****    0 ROOT
