@<TRIPOS>MOLECULE
FKD
   33    33     1     0     0
SMALL
bcc


@<TRIPOS>ATOM
      1 O2          1.2200   -0.0290   -0.0190 oh        1 FKD     -0.655800
      2 C1         -0.8510   -0.1700    1.3390 c         1 FKD      0.932600
      3 F1         -1.9480    1.4610   -0.9310 f         1 FKD     -0.229300
      4 C2         -0.1860   -0.0230   -0.0910 c3        1 FKD      0.181600
      5 C3         -0.5800    1.2750   -0.8460 c3        1 FKD      0.142600
      6 C4          0.0380    1.2300   -2.2620 c3        1 FKD      0.069100
      7 O4         -0.3440    2.3480   -3.0450 oh        1 FKD     -0.615800
      8 C5         -0.3760   -0.0670   -2.9760 c3        1 FKD      0.088100
      9 O5          0.2620   -0.1730   -4.2400 oh        1 FKD     -0.603800
     10 C6          0.0380   -1.2820   -2.1340 c3        1 FKD      0.119100
     11 O6         -0.5180   -1.1910   -0.8230 os        1 FKD     -0.430600
     12 C7         -0.5440   -2.5780   -2.7260 c3        1 FKD      0.163100
     13 O7         -1.9560   -2.5980   -2.6550 oh        1 FKD     -0.616800
     14 C8          0.0460   -3.7920   -1.9820 c3        1 FKD      0.071100
     15 O8          1.3450   -4.0090   -2.5200 oh        1 FKD     -0.599800
     16 C9         -0.8160   -5.0430   -2.1630 c3        1 FKD      0.093400
     17 O9         -0.2710   -6.1280   -1.4310 oh        1 FKD     -0.619800
     18 O1A        -2.0930   -0.0930    1.4370 o         1 FKD     -0.792800
     19 O1B        -0.0150   -0.3470    2.2670 o         1 FKD     -0.792800
     20 HO2         1.4610   -0.3780    0.8570 ho        1 FKD      0.448000
     21 H3         -0.1410    2.1470   -0.2810 h1        1 FKD      0.070700
     22 H4          1.1580    1.2910   -2.1810 h1        1 FKD      0.105700
     23 HO4        -1.3020    2.4390   -2.9570 ho        1 FKD      0.407000
     24 H5         -1.4930   -0.0760   -3.1260 h1        1 FKD      0.056700
     25 HO5         0.2410    0.7120   -4.6280 ho        1 FKD      0.406000
     26 H6          1.1570   -1.3530   -2.0760 h1        1 FKD      0.082700
     27 H7         -0.2950   -2.6310   -3.8220 h1        1 FKD      0.092700
     28 HO7        -2.2080   -2.2740   -1.7770 ho        1 FKD      0.433000
     29 H8          0.1350   -3.5500   -0.8840 h1        1 FKD      0.065700
     30 HO8         1.6510   -4.8450   -2.1470 ho        1 FKD      0.403000
     31 H9         -0.8010   -5.3830   -3.2320 h1        1 FKD      0.062200
     32 H9A        -1.8700   -4.8350   -1.8420 h1        1 FKD      0.062200
     33 HO9        -0.3130   -5.8880   -0.4970 ho        1 FKD      0.400000
@<TRIPOS>BOND
     1    1    4 1   
     2    1   20 1   
     3    2    4 1   
     4    2   18 1   
     5    2   19 1   
     6    3    5 1   
     7    4    5 1   
     8    4   11 1   
     9    5    6 1   
    10    5   21 1   
    11    6    7 1   
    12    6    8 1   
    13    6   22 1   
    14    7   23 1   
    15    8    9 1   
    16    8   10 1   
    17    8   24 1   
    18    9   25 1   
    19   10   11 1   
    20   10   12 1   
    21   10   26 1   
    22   12   13 1   
    23   12   14 1   
    24   12   27 1   
    25   13   28 1   
    26   14   15 1   
    27   14   16 1   
    28   14   29 1   
    29   15   30 1   
    30   16   17 1   
    31   16   31 1   
    32   16   32 1   
    33   17   33 1   
@<TRIPOS>SUBSTRUCTURE
     1 FKD         1 TEMP              0 ****  ****    0 ROOT
