@<TRIPOS>MOLECULE
FKD
   33    33     1     0     0
SMALL
bcc


@<TRIPOS>ATOM
      1 O2          1.3500    1.0710    1.5390 oh        1 FKD     -0.655800
      2 C1          1.8140    2.1840   -0.6300 c         1 FKD      0.933600
      3 F1          2.6490   -0.5930   -1.3980 f         1 FKD     -0.228300
      4 C2          1.4220    0.8610    0.1490 c3        1 FKD      0.181600
      5 C3          2.4140   -0.3140   -0.0640 c3        1 FKD      0.142600
      6 C4          1.8570   -1.5670    0.6490 c3        1 FKD      0.070100
      7 O4          2.6690   -2.7080    0.4350 oh        1 FKD     -0.615800
      8 C5          0.4270   -1.8520    0.1660 c3        1 FKD      0.087100
      9 O5         -0.1420   -2.9400    0.8810 oh        1 FKD     -0.609800
     10 C6         -0.4590   -0.6210    0.4000 c3        1 FKD      0.118100
     11 O6          0.0990    0.5270   -0.2360 os        1 FKD     -0.425600
     12 C7         -1.8380   -0.8180   -0.2530 c3        1 FKD      0.131100
     13 O7         -1.7670   -0.7890   -1.6650 oh        1 FKD     -0.612800
     14 C8         -2.8180    0.2540    0.2590 c3        1 FKD      0.067100
     15 O8         -3.1700    0.0170    1.6130 oh        1 FKD     -0.598800
     16 C9         -4.0880    0.3120   -0.5990 c3        1 FKD      0.098400
     17 O9         -5.2540    0.2060    0.1970 oh        1 FKD     -0.617800
     18 O1A         1.9800    2.1270   -1.8660 o         1 FKD     -0.790800
     19 O1B         1.9320    3.1910    0.1190 o         1 FKD     -0.790800
     20 HO2         1.3030    2.0330    1.6810 ho        1 FKD      0.449000
     21 H3          3.3940   -0.0250    0.4130 h1        1 FKD      0.070700
     22 H4          1.8690   -1.3970    1.7610 h1        1 FKD      0.105700
     23 HO4         2.8550   -2.7480   -0.5130 ho        1 FKD      0.408000
     24 H5          0.4420   -2.1020   -0.9330 h1        1 FKD      0.058700
     25 HO5         0.5610   -3.5960    0.9780 ho        1 FKD      0.408000
     26 H6         -0.5780   -0.4320    1.5010 h1        1 FKD      0.080700
     27 H7         -2.2190   -1.8480    0.0010 h1        1 FKD      0.076700
     28 HO7        -1.1820   -0.0580   -1.9140 ho        1 FKD      0.438000
     29 H8         -2.2980    1.2540    0.2770 h1        1 FKD      0.106700
     30 HO8        -3.5630   -0.8640    1.6540 ho        1 FKD      0.401000
     31 H9         -4.1130    1.2690   -1.1830 h1        1 FKD      0.055200
     32 H9A        -4.1410   -0.5560   -1.3100 h1        1 FKD      0.055200
     33 HO9        -5.1520    0.8200    0.9360 ho        1 FKD      0.407000
@<TRIPOS>BOND
     1    1    4 1   
     2    1   20 1   
     3    2    4 1   
     4    2   18 1   
     5    2   19 1   
     6    3    5 1   
     7    4    5 1   
     8    4   11 1   
     9    5    6 1   
    10    5   21 1   
    11    6    7 1   
    12    6    8 1   
    13    6   22 1   
    14    7   23 1   
    15    8    9 1   
    16    8   10 1   
    17    8   24 1   
    18    9   25 1   
    19   10   11 1   
    20   10   12 1   
    21   10   26 1   
    22   12   13 1   
    23   12   14 1   
    24   12   27 1   
    25   13   28 1   
    26   14   15 1   
    27   14   16 1   
    28   14   29 1   
    29   15   30 1   
    30   16   17 1   
    31   16   31 1   
    32   16   32 1   
    33   17   33 1   
@<TRIPOS>SUBSTRUCTURE
     1 FKD         1 TEMP              0 ****  ****    0 ROOT
