@<TRIPOS>MOLECULE
FKD
   33    33     1     0     0
SMALL
bcc


@<TRIPOS>ATOM
      1 O2          1.2070   -0.0280   -0.0040 oh        1 FKD     -0.655800
      2 C1         -0.8740   -0.1670    1.3410 c         1 FKD      0.932600
      3 F1         -1.9530    1.4640   -0.9380 f         1 FKD     -0.229300
      4 C2         -0.1980   -0.0210   -0.0850 c3        1 FKD      0.181600
      5 C3         -0.5860    1.2770   -0.8430 c3        1 FKD      0.142600
      6 C4          0.0410    1.2310   -2.2550 c3        1 FKD      0.069100
      7 O4         -0.3340    2.3500   -3.0400 oh        1 FKD     -0.615800
      8 C5         -0.3680   -0.0650   -2.9710 c3        1 FKD      0.088100
      9 O5          0.2790   -0.1720   -4.2310 oh        1 FKD     -0.603800
     10 C6          0.0380   -1.2810   -2.1260 c3        1 FKD      0.119100
     11 O6         -0.5260   -1.1890   -0.8190 os        1 FKD     -0.430600
     12 C7         -0.5390   -2.5770   -2.7220 c3        1 FKD      0.163100
     13 O7         -1.9520   -2.5950   -2.6610 oh        1 FKD     -0.616800
     14 C8          0.0450   -3.7900   -1.9750 c3        1 FKD      0.071100
     15 O8          1.3470   -4.0080   -2.5030 oh        1 FKD     -0.599800
     16 C9         -0.8170   -5.0410   -2.1620 c3        1 FKD      0.093400
     17 O9         -0.2780   -6.1270   -1.4260 oh        1 FKD     -0.619800
     18 O1A        -2.1160   -0.0890    1.4300 o         1 FKD     -0.792800
     19 O1B        -0.0450   -0.3450    2.2730 o         1 FKD     -0.792800
     20 HO2         1.4410   -0.3770    0.8740 ho        1 FKD      0.448000
     21 H3         -0.1510    2.1490   -0.2750 h1        1 FKD      0.070700
     22 H4          1.1610    1.2920   -2.1650 h1        1 FKD      0.105700
     23 HO4        -1.2920    2.4420   -2.9590 ho        1 FKD      0.407000
     24 H5         -1.4840   -0.0730   -3.1300 h1        1 FKD      0.056700
     25 HO5         0.2610    0.7130   -4.6190 ho        1 FKD      0.406000
     26 H6          1.1570   -1.3530   -2.0610 h1        1 FKD      0.082700
     27 H7         -0.2830   -2.6290   -3.8170 h1        1 FKD      0.092700
     28 HO7        -2.2100   -2.2710   -1.7850 ho        1 FKD      0.433000
     29 H8          0.1250   -3.5480   -0.8760 h1        1 FKD      0.065700
     30 HO8         1.6500   -4.8440   -2.1270 ho        1 FKD      0.403000
     31 H9         -1.8730   -4.8330   -1.8490 h1        1 FKD      0.062200
     32 H9A        -0.7940   -5.3810   -3.2310 h1        1 FKD      0.062200
     33 HO9        -0.3270   -5.8870   -0.4930 ho        1 FKD      0.400000
@<TRIPOS>BOND
     1    1    4 1   
     2    1   20 1   
     3    2    4 1   
     4    2   18 1   
     5    2   19 1   
     6    3    5 1   
     7    4    5 1   
     8    4   11 1   
     9    5    6 1   
    10    5   21 1   
    11    6    7 1   
    12    6    8 1   
    13    6   22 1   
    14    7   23 1   
    15    8    9 1   
    16    8   10 1   
    17    8   24 1   
    18    9   25 1   
    19   10   11 1   
    20   10   12 1   
    21   10   26 1   
    22   12   13 1   
    23   12   14 1   
    24   12   27 1   
    25   13   28 1   
    26   14   15 1   
    27   14   16 1   
    28   14   29 1   
    29   15   30 1   
    30   16   17 1   
    31   16   31 1   
    32   16   32 1   
    33   17   33 1   
@<TRIPOS>SUBSTRUCTURE
     1 FKD         1 TEMP              0 ****  ****    0 ROOT
