@<TRIPOS>MOLECULE
FKD
   33    32     1     0     0
SMALL
bcc


@<TRIPOS>ATOM
      1 O2          3.6660    0.8190   -0.0050 oh        1 FKD     -0.328000
      2 C1          1.9040    0.8110    1.3520 c1        1 FKD      0.318000
      3 F1          1.9860    3.1230   -0.1240 f         1 FKD     -0.158000
      4 C2          2.2550    0.7760   -0.0680 c2        1 FKD      0.088000
      5 C3          1.6860    1.9920   -0.8240 c3        1 FKD      0.044000
      6 C4          0.2110    1.9230   -1.0090 c3        1 FKD      0.004000
      7 O4         -0.4300    2.0580    0.2890 oh        1 FKD     -0.358000
      8 C5         -0.2290    0.6480   -1.6280 c3        1 FKD     -0.016000
      9 O5          0.2230    0.6210   -3.0120 oh        1 FKD     -0.341000
     10 C6          0.3050   -0.5580   -0.9260 c3        1 FKD      0.028000
     11 O6          1.7600   -0.5150   -0.7430 os        1 FKD     -0.296000
     12 C7         -0.3570   -0.6660    0.4330 c3        1 FKD      0.005000
     13 O7          0.6030   -0.9860    1.3950 oh        1 FKD     -0.358000
     14 C8         -1.4190   -1.7560    0.3940 c3        1 FKD      0.041000
     15 O8         -2.2690   -1.5430   -0.7020 oh        1 FKD     -0.329000
     16 C9         -2.2250   -1.7200    1.6710 c3        1 FKD     -0.057000
     17 O9         -3.0670   -2.8590    1.7300 oh        1 FKD     -0.356000
     18 O1A         1.2500    1.7800    1.8130 o         1 FKD     -0.548500
     19 O1B         2.3440   -0.0790    2.1310 o         1 FKD     -0.548500
     20 HO2         4.0050    0.5940   -0.7930 ho        1 FKD      0.232000
     21 H3          2.1130    2.0440   -1.7080 h1        1 FKD      0.093000
     22 H4         -0.0720    2.6660   -1.5810 h1        1 FKD      0.100000
     23 HO4        -0.8540    2.8380    0.3300 ho        1 FKD      0.256000
     24 H5         -1.2070    0.6130   -1.6140 h1        1 FKD      0.126000
     25 HO5        -0.4630    0.7870   -3.5510 ho        1 FKD      0.197000
     26 H6          0.0790   -1.3480   -1.4480 h1        1 FKD      0.116000
     27 H7         -0.7750    0.1870    0.6610 h1        1 FKD      0.133000
     28 HO7         0.6230   -1.8650    1.5120 ho        1 FKD      0.254000
     29 H8         -0.9880   -2.6260    0.3070 h1        1 FKD      0.085000
     30 HO8        -2.7180   -2.2950   -0.8820 ho        1 FKD      0.205000
     31 H9         -2.7700   -0.9120    1.6880 h1        1 FKD      0.088500
     32 H9A        -1.6200   -1.7210    2.4390 h1        1 FKD      0.088500
     33 HO9        -3.5500   -2.8310    2.4720 ho        1 FKD      0.194000
@<TRIPOS>BOND
     1    1    4 1   
     2    1   20 1   
     3    2   18 1   
     4    2   19 1   
     5    3    5 1   
     6    4    5 1   
     7    4   11 1   
     8    5    6 1   
     9    5   21 1   
    10    6    7 1   
    11    6    8 1   
    12    6   22 1   
    13    7   23 1   
    14    8    9 1   
    15    8   10 1   
    16    8   24 1   
    17    9   25 1   
    18   10   11 1   
    19   10   12 1   
    20   10   26 1   
    21   12   13 1   
    22   12   14 1   
    23   12   27 1   
    24   13   28 1   
    25   14   15 1   
    26   14   16 1   
    27   14   29 1   
    28   15   30 1   
    29   16   17 1   
    30   16   31 1   
    31   16   32 1   
    32   17   33 1   
@<TRIPOS>SUBSTRUCTURE
     1 FKD         1 TEMP              0 ****  ****    0 ROOT
