@<TRIPOS>MOLECULE
FKI
   18    17     1     0     0
SMALL
bcc


@<TRIPOS>ATOM
      1 N           0.1020   -0.5000   -0.2750 n4        1 FKI     -0.835600
      2 CA          1.5400   -0.1610   -0.0070 c3        1 FKI     -0.035500
      3 C           1.9130   -0.2760    1.4980 c         1 FKI      0.445100
      4 O           1.0710   -0.6930    2.2860 o         1 FKI     -0.547100
      5 CB          1.9130    1.2170   -0.5300 c3        1 FKI     -0.157400
      6 CG          1.4410    1.4780   -1.9740 c3        1 FKI      0.375900
      7 F1          0.0930    1.7910   -2.0240 f         1 FKI     -0.261800
      8 F2          1.4850    0.3500   -2.7670 f         1 FKI     -0.261800
      9 CD          3.4130    0.1170    1.7380 c         1 FKI      0.883600
     10 OE1         3.6350    0.8170    2.7390 o         1 FKI     -0.740300
     11 OE2         4.1830   -0.2940    0.8380 o         1 FKI     -0.740300
     12 H2         -0.1730   -1.2560    0.3620 hn        1 FKI      0.452467
     13 H1         -0.4830    0.3190   -0.0910 hn        1 FKI      0.452467
     14 HA          2.1800   -0.9400   -0.5320 hx        1 FKI      0.147700
     15 HB2         3.0420    1.2700   -0.4930 hc        1 FKI      0.130200
     16 HB1         1.5080    2.0270    0.1290 hc        1 FKI      0.130200
     17 HG          2.0490    2.3100   -2.4400 h2        1 FKI      0.107700
     18 HN3        -0.0220   -0.7820   -1.2490 hn        1 FKI      0.452467
@<TRIPOS>BOND
     1    1    2 1   
     2    1   12 1   
     3    1   13 1   
     4    1   18 1   
     5    2    3 1   
     6    2    5 1   
     7    2   14 1   
     8    3    4 2   
     9    3    9 1   
    10    5    6 1   
    11    5   15 1   
    12    5   16 1   
    13    6    7 1   
    14    6    8 1   
    15    6   17 1   
    16    9   10 1   
    17    9   11 1   
@<TRIPOS>SUBSTRUCTURE
     1 FKI         1 TEMP              0 ****  ****    0 ROOT
