@<TRIPOS>MOLECULE
FKI
   18    17     1     0     0
SMALL
bcc


@<TRIPOS>ATOM
      1 N           0.1070   -0.5080   -0.1360 nz        1 FKI     -0.836600
      2 CA          1.5260   -0.0570    0.0660 c3        1 FKI     -0.027500
      3 C           1.8850    0.1110    1.5690 c         1 FKI      0.446100
      4 O           0.9790    0.2040    2.3890 o         1 FKI     -0.547100
      5 CB          1.8190    1.2570   -0.6410 c3        1 FKI     -0.170400
      6 CG          1.5120    1.2220   -2.1500 c3        1 FKI      0.375900
      7 F1          0.1580    1.3770   -2.4000 f         1 FKI     -0.261300
      8 F2          1.7480   -0.0120   -2.7200 f         1 FKI     -0.261300
      9 CD          3.4390    0.1080    1.7840 c         1 FKI      0.892600
     10 OE1         3.8790   -0.9230    2.3230 o         1 FKI     -0.739300
     11 OE2         4.0270    1.1130    1.3280 o         1 FKI     -0.739300
     12 H2         -0.1530   -0.4690   -1.1260 hn        1 FKI      0.451467
     13 H1          0.0090   -1.4620    0.2170 hn        1 FKI      0.451467
     14 HA          2.1920   -0.8710   -0.3550 hx        1 FKI      0.130700
     15 HB2         1.2480    2.1040   -0.1800 hc        1 FKI      0.137200
     16 HB1         2.9220    1.4690   -0.4770 hc        1 FKI      0.137200
     17 HG          2.0990    2.0240   -2.6890 h2        1 FKI      0.107700
     18 HN3        -0.5080    0.1060    0.4080 hn        1 FKI      0.451467
@<TRIPOS>BOND
     1    1    2 1   
     2    1   12 1   
     3    1   13 1   
     4    1   18 1   
     5    2    3 1   
     6    2    5 1   
     7    2   14 1   
     8    3    4 2   
     9    3    9 1   
    10    5    6 1   
    11    5   15 1   
    12    5   16 1   
    13    6    7 1   
    14    6    8 1   
    15    6   17 1   
    16    9   10 1   
    17    9   11 1   
@<TRIPOS>SUBSTRUCTURE
     1 FKI         1 TEMP              0 ****  ****    0 ROOT
