@<TRIPOS>MOLECULE
FKI
   18    17     1     0     0
SMALL
bcc


@<TRIPOS>ATOM
      1 N           0.0260   -0.3540   -0.1360 n4        1 FKI     -0.836600
      2 CA          1.4860   -0.0530    0.0550 c3        1 FKI     -0.027500
      3 C           1.8800    0.0340    1.5560 c         1 FKI      0.446100
      4 O           0.9990    0.1940    2.3930 o         1 FKI     -0.547100
      5 CB          1.8990    1.2450   -0.6200 c3        1 FKI     -0.170400
      6 CG          1.5710    1.2850   -2.1240 c3        1 FKI      0.375900
      7 F1          0.2360    1.5820   -2.3480 f         1 FKI     -0.261300
      8 F2          1.6740    0.0510   -2.7310 f         1 FKI     -0.261300
      9 CD          3.4290   -0.1310    1.7450 c         1 FKI      0.892600
     10 OE1         3.7700   -1.2160    2.2480 o         1 FKI     -0.739300
     11 OE2         4.1080    0.8240    1.3080 o         1 FKI     -0.739300
     12 H2         -0.2440   -0.2570   -1.1190 hn        1 FKI      0.451467
     13 H1         -0.5170    0.3000    0.4380 hn        1 FKI      0.451467
     14 HA          2.0600   -0.9170   -0.3990 hx        1 FKI      0.130700
     15 HB2         1.4220    2.1310   -0.1270 hc        1 FKI      0.137200
     16 HB1         3.0200    1.3410   -0.4680 hc        1 FKI      0.137200
     17 HG          2.2280    2.0400   -2.6500 h2        1 FKI      0.107700
     18 HN3        -0.1620   -1.3040    0.1890 hn        1 FKI      0.451467
@<TRIPOS>BOND
     1    1    2 1   
     2    1   12 1   
     3    1   13 1   
     4    1   18 1   
     5    2    3 1   
     6    2    5 1   
     7    2   14 1   
     8    3    4 2   
     9    3    9 1   
    10    5    6 1   
    11    5   15 1   
    12    5   16 1   
    13    6    7 1   
    14    6    8 1   
    15    6   17 1   
    16    9   10 1   
    17    9   11 1   
@<TRIPOS>SUBSTRUCTURE
     1 FKI         1 TEMP              0 ****  ****    0 ROOT
