@<TRIPOS>MOLECULE
FKI
   17    16     1     0     0
SMALL
bcc


@<TRIPOS>ATOM
      1 N           2.0710    0.7150   -0.5700 n3        1 FKI     -0.901800
      2 CA          0.7440    0.3920   -0.0640 c3        1 FKI      0.034500
      3 C           0.7190   -0.2950    1.3130 c         1 FKI      0.438100
      4 O           1.7450   -0.8140    1.7660 o         1 FKI     -0.589100
      5 CB         -0.0540   -0.4930   -1.0240 c3        1 FKI     -0.123400
      6 CG         -0.3190    0.2250   -2.3590 c3        1 FKI      0.393900
      7 F1         -0.7760   -0.6450   -3.3330 f         1 FKI     -0.265300
      8 F2         -1.3490    1.1400   -2.2900 f         1 FKI     -0.265300
      9 CD         -0.6410   -0.2440    2.0310 c         1 FKI      0.862600
     10 OE1        -0.8120    0.6950    2.8500 o         1 FKI     -0.804800
     11 OE2        -1.4830   -1.1230    1.7100 o         1 FKI     -0.804800
     12 H2          2.6200   -0.1250   -0.6080 hn        1 FKI      0.340800
     13 H1          2.5180    1.3350    0.0800 hn        1 FKI      0.340800
     14 HA          0.1840    1.3690    0.0570 h1        1 FKI      0.087700
     15 HB2         0.4970   -1.4420   -1.2440 hc        1 FKI      0.092700
     16 HB1        -1.0280   -0.7600   -0.5250 hc        1 FKI      0.092700
     17 HG          0.6150    0.7410   -2.7350 h2        1 FKI      0.070700
@<TRIPOS>BOND
     1    1    2 1   
     2    1   12 1   
     3    1   13 1   
     4    2    3 1   
     5    2    5 1   
     6    2   14 1   
     7    3    4 2   
     8    3    9 1   
     9    5    6 1   
    10    5   15 1   
    11    5   16 1   
    12    6    7 1   
    13    6    8 1   
    14    6   17 1   
    15    9   10 1   
    16    9   11 1   
@<TRIPOS>SUBSTRUCTURE
     1 FKI         1 TEMP              0 ****  ****    0 ROOT
