@<TRIPOS>MOLECULE
FKI
   17    16     1     0     0
SMALL
bcc


@<TRIPOS>ATOM
      1 N          -1.8600   -0.0650   -0.1390 n3        1 FKI     -0.901800
      2 CA         -0.4540   -0.1500    0.0600 c3        1 FKI      0.034500
      3 C          -0.1510   -0.1050    1.5400 c         1 FKI      0.438100
      4 O          -0.5370    0.8310    2.2110 o         1 FKI     -0.589100
      5 CB          0.2230    1.0120   -0.6290 c3        1 FKI     -0.123400
      6 CG          0.8680    0.5330   -1.9100 c3        1 FKI      0.393900
      7 F1          1.0810    1.5790   -2.7220 f         1 FKI     -0.265300
      8 F2          2.0370   -0.0600   -1.6280 f         1 FKI     -0.265300
      9 CD          0.6330   -1.2260    2.1860 c         1 FKI      0.862600
     10 OE1         1.8920   -1.2120    2.1580 o         1 FKI     -0.804800
     11 OE2         0.0270   -2.1740    2.7510 o         1 FKI     -0.804800
     12 H2         -2.0870   -0.5060   -0.9080 hn        1 FKI      0.340800
     13 H1         -2.2930   -0.4480    0.5720 hn        1 FKI      0.340800
     14 HA         -0.1230   -0.9890   -0.3150 h1        1 FKI      0.087700
     15 HB2         0.9080    1.3860   -0.0390 hc        1 FKI      0.092700
     16 HB1        -0.4400    1.7010   -0.8350 hc        1 FKI      0.092700
     17 HG          0.2750   -0.1090   -2.3540 h2        1 FKI      0.070700
@<TRIPOS>BOND
     1    1    2 1   
     2    1   12 1   
     3    1   13 1   
     4    2    3 1   
     5    2    5 1   
     6    2   14 1   
     7    3    4 2   
     8    3    9 1   
     9    5    6 1   
    10    5   15 1   
    11    5   16 1   
    12    6    7 1   
    13    6    8 1   
    14    6   17 1   
    15    9   10 1   
    16    9   11 1   
@<TRIPOS>SUBSTRUCTURE
     1 FKI         1 TEMP              0 ****  ****    0 ROOT
