@<TRIPOS>MOLECULE
FKL
   60    59     1     0     0
SMALL
bcc


@<TRIPOS>ATOM
      1 N1          0.2690   -0.2610   -0.2380 n2        1 FKL     -0.229000
      2 N3          0.0130    0.4790    2.1210 n2        1 FKL     -0.296000
      3 C4          1.5780   -0.2440   -0.0740 c2        1 FKL      0.071000
      4 C5          2.2300    0.1150    1.1410 c2        1 FKL     -0.319000
      5 C6          1.3760    0.4830    2.2430 c2        1 FKL      0.235000
      6 C8          3.3620    0.8930    3.6130 c2        1 FKL      0.358000
      7 C10         3.6350    0.1100    1.2960 c2        1 FKL      0.066000
      8 C15         6.2270    1.6080    3.3800 c2        1 FKL     -0.010000
      9 C17         8.4830    0.6470    3.1420 c3        1 FKL     -0.177000
     10 C24        11.9710    1.8680    3.6580 c3        1 FKL     -0.042000
     11 C26        11.8320    2.4940    4.9410 c1        1 FKL      0.270000
     12 C28        -4.2090   -0.7640   -1.5970 c2        1 FKL     -0.171000
     13 O22         9.3270    2.9470    4.6140 o         1 FKL     -0.446000
     14 N23        12.0500    0.4430    3.7150 n8        1 FKL     -0.386000
     15 C25        11.6680    3.0690    6.0680 c2        1 FKL     -0.200000
     16 C16         7.5600    1.7060    3.6150 c2        1 FKL     -0.249000
     17 C18         7.8990   -0.4640    2.4040 c1        1 FKL     -0.073000
     18 C19         6.4830   -0.5340    2.2290 c2        1 FKL     -0.133000
     19 C14         5.6530    0.4730    2.6740 c2        1 FKL      0.075000
     20 C9          4.2110    0.4790    2.4810 c2        1 FKL     -0.232000
     21 O13         3.8230    1.2750    4.7090 o         1 FKL     -0.374000
     22 N7          1.9570    0.8550    3.4570 n         1 FKL     -0.230000
     23 C12         1.1080    1.2110    4.5750 c3        1 FKL     -0.088000
     24 C2         -0.5050    0.1070    0.8910 c2        1 FKL      0.233000
     25 N11        -1.8670    0.0960    0.7510 nv        1 FKL     -0.326000
     26 C27        -4.3310    0.6910   -1.8570 c3        1 FKL     -0.146000
     27 C32        -5.0030    1.4170   -0.7180 c3        1 FKL     -0.213000
     28 C31        -9.4570    0.2610    0.0690 c1        1 FKL      0.215000
     29 O30        -8.2880    0.3310    0.0260 o         1 FKL     -0.215000
     30 C29        -3.1470   -1.4940   -1.9360 c2        1 FKL     -0.239000
     31 H4          2.1830   -0.5330   -0.9570 h4        1 FKL      0.173000
     32 H10         4.2560   -0.1870    0.4330 ha        1 FKL      0.151000
     33 H15         5.5250    2.3850    3.7400 ha        1 FKL      0.170000
     34 H17         9.2800    1.1020    2.4840 hc        1 FKL      0.140000
     35 H20         6.0260   -1.6320    0.4470 hc        1 FKL      0.096000
     36 H20A        6.6500   -2.6270    1.8200 hc        1 FKL      0.096000
     37 H20B        4.9410   -2.0020    1.8610 hc        1 FKL      0.096000
     38 H24        11.0480    2.2610    3.0890 h1        1 FKL      0.187500
     39 H26        12.8020    0.0650    3.1800 hn        1 FKL      0.210500
     40 H26A       12.8760    2.3280    3.1410 h1        1 FKL      0.187500
     41 H28        -3.3210    1.1440   -2.0520 hc        1 FKL      0.091000
     42 H28A       -5.0870   -1.2260   -1.1140 ha        1 FKL      0.128000
     43 HN23        7.3910    3.6080    4.7090 h4        1 FKL      0.123000
     44 H25        10.6520    3.4340    6.3820 ha        1 FKL      0.277000
     45 H25A       12.4610    3.2730    6.8190 ha        1 FKL      0.277000
     46 H18         9.0110    0.1870    4.0320 hc        1 FKL      0.140000
     47 H12         1.7400    1.4540    5.4710 h1        1 FKL      0.109000
     48 H12A        0.4310    0.3510    4.8250 h1        1 FKL      0.109000
     49 H12B        0.4850    2.1060    4.3080 h1        1 FKL      0.109000
     50 HN11       -2.4480    0.3450    1.5160 hn        1 FKL      0.262000
     51 H27        -2.2860   -0.1760   -0.1130 hn        1 FKL      0.262000
     52 H32        -4.4100    1.3120    0.2230 hc        1 FKL      0.076667
     53 H32A       -4.9380    0.8330   -2.7950 hc        1 FKL      0.091000
     54 H31        -5.0960    2.5040   -0.9560 hc        1 FKL      0.076667
     55 H31A       -6.0270    1.0060   -0.5340 hc        1 FKL      0.076667
     56 H29        -3.0990   -2.5760   -1.7550 ha        1 FKL      0.118000
     57 H29A       -2.2620   -1.0680   -2.4290 ha        1 FKL      0.118000
     58 C21         8.1130    2.8330    4.3600 c2        1 FKL      0.282000
     59 H232       11.1820   -0.0180    3.5380 hn        1 FKL      0.210500
     60 C20         5.9900   -1.7610    1.5580 c3        1 FKL     -0.173000
@<TRIPOS>BOND
     1    1    3 1   
     2    1   24 1   
     3    2    5 1   
     4    2   24 1   
     5    3    4 1   
     6    3   31 1   
     7    4    5 1   
     8    4    7 1   
     9    5   22 1   
    10    6   20 1   
    11    6   21 1   
    12    6   22 1   
    13    7   20 1   
    14    7   32 1   
    15    8   16 1   
    16    8   19 1   
    17    8   33 1   
    18    9   16 1   
    19    9   17 1   
    20    9   34 1   
    21    9   46 1   
    22   10   11 1   
    23   10   14 1   
    24   10   38 1   
    25   10   40 1   
    26   11   15 1   
    27   12   26 1   
    28   12   30 1   
    29   12   42 1   
    30   13   58 1   
    31   14   39 1   
    32   14   59 1   
    33   15   44 1   
    34   15   45 1   
    35   16   58 1   
    36   17   18 1   
    37   18   19 1   
    38   18   60 1   
    39   19   20 1   
    40   22   23 1   
    41   23   47 1   
    42   23   48 1   
    43   23   49 1   
    44   24   25 1   
    45   25   50 1   
    46   25   51 1   
    47   26   27 1   
    48   26   41 1   
    49   26   53 1   
    50   27   52 1   
    51   27   54 1   
    52   27   55 1   
    53   28   29 1   
    54   30   56 1   
    55   30   57 1   
    56   35   60 1   
    57   36   60 1   
    58   37   60 1   
    59   43   58 1   
@<TRIPOS>SUBSTRUCTURE
     1 FKL         1 TEMP              0 ****  ****    0 ROOT
