@<TRIPOS>MOLECULE
FKL
   61    60     1     0     0
SMALL
bcc


@<TRIPOS>ATOM
      1 N1         -0.3290   -0.2300    0.2740 n2        1 FKL     -0.268000
      2 N3         -0.2600    0.9700    2.4170 n2        1 FKL     -0.231000
      3 C4          1.0030   -0.3080    0.2990 c2        1 FKL      0.052000
      4 C5          1.8030    0.2220    1.3370 c2        1 FKL     -0.235000
      5 C6          1.1190    0.8950    2.4090 c2        1 FKL      0.207000
      6 C8          3.2670    1.3730    3.4750 c2        1 FKL      0.349000
      7 C10         3.2260    0.0980    1.3690 c2        1 FKL     -0.007000
      8 C15         6.2040    1.6040    2.8720 c2        1 FKL     -0.022000
      9 C17         8.2760    0.3590    2.3660 c3        1 FKL     -0.175000
     10 C24        11.9280    1.3130    4.5330 c3        1 FKL     -0.040000
     11 C26        12.0640    4.0170    4.5850 c2        1 FKL     -0.199000
     12 C28        -4.6250   -2.1100    1.5540 c1        1 FKL     -0.227000
     13 O22         9.5510    2.5470    3.7620 o         1 FKL     -0.434000
     14 N23        11.8520    0.6240    3.2950 n3        1 FKL     -0.348000
     15 C25        12.0300    2.7390    4.5530 c1        1 FKL      0.212000
     16 C16         7.5630    1.5450    2.9040 c2        1 FKL     -0.240000
     17 C18         7.4260   -0.7270    1.9230 c1        1 FKL     -0.032000
     18 C19         6.0270   -0.7260    2.1870 c2        1 FKL     -0.085000
     19 C14         5.3980    0.4730    2.4630 c2        1 FKL     -0.008000
     20 C9          3.9480    0.6330    2.3890 c2        1 FKL     -0.130000
     21 O13         3.8670    1.9250    4.4130 o         1 FKL     -0.326000
     22 N7          1.8490    1.4610    3.4470 n         1 FKL     -0.225000
     23 C12         1.1580    2.1290    4.5320 c3        1 FKL     -0.095000
     24 C2         -0.9230    0.4040    1.3680 c2        1 FKL      0.131000
     25 N11        -2.3590    0.4980    1.3400 nh        1 FKL     -0.334000
     26 C27        -3.9260   -0.1530   -1.4910 c3        1 FKL     -0.266000
     27 C32        -5.3570    0.0710   -1.9300 c3        1 FKL     -0.225000
     28 C31        -3.2650    1.1150   -1.1530 c2        1 FKL      0.323000
     29 O30        -2.0430    1.4170   -1.4680 oh        1 FKL     -0.099000
     30 C29        -3.6870   -2.6610    1.0530 c1        1 FKL     -0.227000
     31 H4          1.4780   -0.8270   -0.5590 h4        1 FKL      0.183000
     32 H10         3.7200   -0.4520    0.5480 ha        1 FKL      0.164000
     33 H15         5.6670    2.5010    3.2340 ha        1 FKL      0.168000
     34 H17         8.9080    0.6630    1.4770 hc        1 FKL      0.167000
     35 H20         4.3050   -1.9920    2.4940 hc        1 FKL      0.101667
     36 H20A        5.2570   -2.3090    0.9730 hc        1 FKL      0.101667
     37 H20B        5.9230   -2.8220    2.5710 hc        1 FKL      0.101667
     38 H24        10.9630    1.0960    5.1280 h1        1 FKL      0.214000
     39 H26        11.1270    4.6270    4.5400 ha        1 FKL      0.271500
     40 H26A       12.9850    4.6380    4.6600 ha        1 FKL      0.271500
     41 H28        -5.4710   -1.6590    2.0140 ha        1 FKL      0.233500
     42 H28A       -3.3570   -0.7190   -2.2810 hc        1 FKL      0.173500
     43 HN23       11.0810    0.9090    2.7250 hn        1 FKL      0.200000
     44 H25        12.7770    0.8860    5.1700 h1        1 FKL      0.214000
     45 H25A       12.7100    0.5810    2.7880 hn        1 FKL      0.200000
     46 H18         9.0020   -0.0530    3.1320 hc        1 FKL      0.167000
     47 H12         0.5640    2.9920    4.1290 h1        1 FKL      0.116000
     48 H12A        1.9050    2.5140    5.2790 h1        1 FKL      0.116000
     49 H12B        0.4670    1.4080    5.0440 h1        1 FKL      0.116000
     50 HN11       -2.7020    1.0690    2.0940 hn        1 FKL      0.204000
     51 H27        -3.8000    1.9520   -0.6380 h4        1 FKL      0.233000
     52 H32        -5.8400   -0.9200   -2.1200 hc        1 FKL      0.117667
     53 H32A       -3.9260   -0.8130   -0.5610 hc        1 FKL      0.173500
     54 H31        -5.9440    0.6030   -1.1430 hc        1 FKL      0.117667
     55 H31A       -5.3980    0.6640   -2.8770 hc        1 FKL      0.117667
     56 H29        -2.8670   -3.1890    0.6300 ha        1 FKL      0.233500
     57 H29A       -1.5390    0.6760   -1.8870 ho        1 FKL      0.310000
     58 C21         8.3390    2.6340    3.4910 c2        1 FKL      0.280000
     59 H232        7.7850    3.5800    3.6940 h4        1 FKL      0.115000
     60 H112       -2.7640   -0.4250    1.3990 hn        1 FKL      0.204000
     61 C20         5.3310   -2.0240    2.0530 c3        1 FKL     -0.180000
@<TRIPOS>BOND
     1    1    3 1   
     2    1   24 1   
     3    2    5 1   
     4    2   24 1   
     5    3    4 1   
     6    3   31 1   
     7    4    5 1   
     8    4    7 1   
     9    5   22 1   
    10    6   20 1   
    11    6   21 1   
    12    6   22 1   
    13    7   20 1   
    14    7   32 1   
    15    8   16 1   
    16    8   19 1   
    17    8   33 1   
    18    9   16 1   
    19    9   17 1   
    20    9   34 1   
    21    9   46 1   
    22   10   14 1   
    23   10   15 1   
    24   10   38 1   
    25   10   44 1   
    26   11   15 1   
    27   11   39 1   
    28   11   40 1   
    29   12   30 1   
    30   12   41 1   
    31   13   58 1   
    32   14   43 1   
    33   14   45 1   
    34   16   58 1   
    35   17   18 1   
    36   18   19 1   
    37   18   61 1   
    38   19   20 1   
    39   22   23 1   
    40   23   47 1   
    41   23   48 1   
    42   23   49 1   
    43   24   25 1   
    44   25   50 1   
    45   25   60 1   
    46   26   27 1   
    47   26   28 1   
    48   26   42 1   
    49   26   53 1   
    50   27   52 1   
    51   27   54 1   
    52   27   55 1   
    53   28   29 1   
    54   28   51 1   
    55   29   57 1   
    56   30   56 1   
    57   35   61 1   
    58   36   61 1   
    59   37   61 1   
    60   58   59 1   
@<TRIPOS>SUBSTRUCTURE
     1 FKL         1 TEMP              0 ****  ****    0 ROOT
