@<TRIPOS>MOLECULE
FKL
   60    58     1     0     0
SMALL
bcc


@<TRIPOS>ATOM
      1 N1          0.2160   -1.0430    0.0590 n2        1 FKL     -0.186000
      2 N3          0.0040    0.5300    2.0020 n2        1 FKL     -0.303000
      3 C4          1.2760   -1.5520    0.6080 c2        1 FKL      0.084000
      4 C5          1.8450   -1.1150    1.8810 c2        1 FKL     -0.268000
      5 C6          1.1080   -0.0210    2.5570 c2        1 FKL      0.276000
      6 C8          2.7180   -0.1350    4.4070 c2        1 FKL      0.305000
      7 C10         2.9690   -1.6500    2.4060 c2        1 FKL      0.081000
      8 C15         5.3130    0.5750    3.4850 c2        1 FKL      0.023000
      9 C17         7.6640    0.0470    2.7230 c3        1 FKL     -0.129000
     10 C24        11.8590    3.6860    4.5510 c2        1 FKL     -0.283000
     11 C26        14.2870    4.0000    4.3030 c1        1 FKL     -0.005000
     12 C28        -3.4660   -0.3140   -2.3770 c2        1 FKL     -0.170000
     13 O22         7.2620    3.4390    3.5730 o         1 FKL     -0.096000
     14 N23         9.7720    2.4420    2.5630 n3        1 FKL     -0.425000
     15 C25        13.1390    3.3440    4.7590 c2        1 FKL     -0.207000
     16 C16         6.6480    1.0250    3.2150 c2        1 FKL     -0.326000
     17 C18         7.2510   -1.3370    2.6550 c1        1 FKL     -0.020000
     18 C19         5.9670   -1.7580    3.1550 c2        1 FKL     -0.134000
     19 C14         4.9610   -0.7350    3.4420 c2        1 FKL     -0.189000
     20 C9          3.5500   -1.1830    3.6870 c3        1 FKL     -0.072000
     21 O13         2.9930    0.2340    5.5520 o         1 FKL     -0.241000
     22 N7          1.5670    0.4340    3.7750 n         1 FKL     -0.236000
     23 C12         0.8480    1.4920    4.4650 c3        1 FKL     -0.102000
     24 C2         -0.4340    0.0300    0.7700 c2        1 FKL      0.263000
     25 N11        -1.5280    0.5750    0.2110 nh        1 FKL     -0.243000
     26 C27        -4.4550    0.7880   -2.4620 c3        1 FKL     -0.150000
     27 C32        -5.1000    1.0760   -1.1290 c3        1 FKL     -0.209000
     28 C31        -3.2760    2.8680    1.2940 c1        1 FKL      0.143000
     29 O30        -3.9470    3.7340    1.6940 o         1 FKL     -0.127000
     30 C29        -2.2510   -0.2680   -2.9220 c2        1 FKL     -0.248000
     31 H4          1.7800   -2.3780    0.0600 h4        1 FKL      0.202000
     32 H10         3.5320   -2.4540    1.8910 ha        1 FKL      0.183000
     33 H15         4.5690    1.3500    3.7420 ha        1 FKL      0.120000
     34 H17         8.0230    0.3430    1.6920 hc        1 FKL      0.158500
     35 H20         3.5830   -2.0660    4.4070 hc        1 FKL      0.180000
     36 H20A        6.6060   -3.7930    3.1100 ha        1 FKL      0.129000
     37 H20B        4.8910   -3.5290    3.7790 ha        1 FKL      0.129000
     38 H24        10.0200    2.3670    1.5990 hn        1 FKL      0.141667
     39 H26        14.6620    3.9090    3.2790 ha        1 FKL      0.094000
     40 H26A       11.5670    4.5050    3.8830 ha        1 FKL      0.113500
     41 H28        -3.9770    1.7230   -2.8610 hc        1 FKL      0.101500
     42 H28A       -3.8220   -1.2170   -1.8520 ha        1 FKL      0.126000
     43 HN23       10.4900    2.0150    3.1140 hn        1 FKL      0.141667
     44 H25        11.0390    3.2210    5.1100 ha        1 FKL      0.113500
     45 H25A       13.3910    2.5410    5.4910 ha        1 FKL      0.175000
     46 H18         8.5880    0.0670    3.3800 hc        1 FKL      0.158500
     47 H12         1.3620    1.7350    5.4340 h1        1 FKL      0.122333
     48 H12A       -0.2020    1.1570    4.6820 h1        1 FKL      0.122333
     49 H12B        0.8200    2.4110    3.8210 h1        1 FKL      0.122333
     50 HN11       -2.0260    1.3270    0.6650 hn        1 FKL      0.294000
     51 H27        -1.8720    0.2400   -0.6750 hn        1 FKL      0.294000
     52 H32        -4.3370    1.4210   -0.3860 hc        1 FKL      0.073333
     53 H32A       -5.2510    0.4890   -3.2000 hc        1 FKL      0.101500
     54 H31        -5.8690    1.8780   -1.2400 hc        1 FKL      0.073333
     55 H31A       -5.5980    0.1630   -0.7220 hc        1 FKL      0.073333
     56 H29        -1.8800    0.6050   -3.4780 ha        1 FKL      0.122000
     57 H29A       -1.5590   -1.1210   -2.8840 ha        1 FKL      0.122000
     58 C21         6.9860    2.3030    3.4020 c1        1 FKL      0.353000
     59 H232        9.7240    3.4120    2.8090 hn        1 FKL      0.141667
     60 C20         5.7990   -3.0840    3.3520 c2        1 FKL     -0.089000
@<TRIPOS>BOND
     1    1    3 1   
     2    1   24 1   
     3    2    5 1   
     4    2   24 1   
     5    3    4 1   
     6    3   31 1   
     7    4    5 1   
     8    4    7 1   
     9    5   22 1   
    10    6   20 1   
    11    6   21 1   
    12    6   22 1   
    13    7   20 1   
    14    7   32 1   
    15    8   16 1   
    16    8   19 1   
    17    8   33 1   
    18    9   16 1   
    19    9   17 1   
    20    9   34 1   
    21    9   46 1   
    22   10   15 1   
    23   10   40 1   
    24   10   44 1   
    25   11   15 1   
    26   11   39 1   
    27   12   26 1   
    28   12   30 1   
    29   12   42 1   
    30   13   58 1   
    31   14   38 1   
    32   14   43 1   
    33   14   59 1   
    34   15   45 1   
    35   16   58 1   
    36   17   18 1   
    37   18   19 1   
    38   18   60 1   
    39   19   20 1   
    40   20   35 1   
    41   22   23 1   
    42   23   47 1   
    43   23   48 1   
    44   23   49 1   
    45   24   25 1   
    46   25   50 1   
    47   25   51 1   
    48   26   27 1   
    49   26   41 1   
    50   26   53 1   
    51   27   52 1   
    52   27   54 1   
    53   27   55 1   
    54   28   29 1   
    55   30   56 1   
    56   30   57 1   
    57   36   60 1   
    58   37   60 1   
@<TRIPOS>SUBSTRUCTURE
     1 FKL         1 TEMP              0 ****  ****    0 ROOT
