@<TRIPOS>MOLECULE
FKL
   59    63     1     0     0
SMALL
bcc


@<TRIPOS>ATOM
      1 N1          3.4900   -0.5970   -0.9890 nb        1 FKL     -0.760000
      2 N3          3.0290    1.1900    0.6540 nb        1 FKL     -0.811000
      3 C4          2.2030   -0.5950   -1.3130 ca        1 FKL      0.518200
      4 C5          1.2370    0.2610   -0.7300 ca        1 FKL     -0.422400
      5 C6          1.7070    1.1660    0.2840 ca        1 FKL      0.621200
      6 C8         -0.5740    2.0280    0.5500 c         1 FKL      0.711700
      7 C10        -0.1410    0.2480   -1.0930 cc        1 FKL      0.014800
      8 C15        -3.1800   -0.0880   -0.5610 ca        1 FKL     -0.062000
      9 C17        -5.1650    0.9150   -1.5140 ca        1 FKL     -0.094000
     10 C24        -7.3350   -2.4250    0.2900 cx        1 FKL      0.054700
     11 C26        -8.8480   -2.4020    0.1960 cx        1 FKL     -0.154900
     12 C28         7.6380   -0.0510    0.0970 c3        1 FKL     -0.131900
     13 O22        -4.7300   -2.5460   -0.7300 o         1 FKL     -0.604100
     14 N23        -6.5560   -1.3050   -0.0940 n         1 FKL     -0.540900
     15 C25        -8.1890   -2.4120    1.5440 cx        1 FKL     -0.154900
     16 C16        -4.5370   -0.1650   -0.8850 ca        1 FKL     -0.153600
     17 C18        -4.4340    2.0620   -1.8060 ca        1 FKL     -0.144000
     18 C19        -3.0760    2.1590   -1.4760 ca        1 FKL     -0.015300
     19 C14        -2.4450    1.0710   -0.8450 ca        1 FKL     -0.049800
     20 C9         -1.0240    1.0920   -0.4980 cd        1 FKL     -0.153400
     21 O13        -1.3290    2.8190    1.1450 o         1 FKL     -0.619500
     22 N7          0.8010    2.0270    0.9070 n         1 FKL     -0.426300
     23 C12         1.2660    2.9260    1.9390 c3        1 FKL      0.069300
     24 C2          3.8820    0.3300   -0.0080 ca        1 FKL      0.918900
     25 N11         5.2400    0.4600    0.2920 nh        1 FKL     -0.822900
     26 C27         6.1970   -0.5780   -0.0410 c3        1 FKL      0.217500
     27 C32         6.0700   -1.8490    0.8170 c3        1 FKL     -0.131900
     28 C31         7.1280   -2.8560    0.4050 c3        1 FKL      0.127900
     29 O30         8.4430   -2.3180    0.5010 os        1 FKL     -0.413600
     30 C29         8.6160   -1.1480   -0.2880 c3        1 FKL      0.127900
     31 H4          1.8970   -1.3240   -2.0890 h4        1 FKL      0.033100
     32 H10        -0.4700   -0.4640   -1.8690 ha        1 FKL      0.151000
     33 H15        -2.6900   -0.9510   -0.0820 ha        1 FKL      0.154000
     34 H17        -6.2270    0.8600   -1.7960 ha        1 FKL      0.136000
     35 H20        -2.0630    3.9270   -0.8390 hc        1 FKL      0.055033
     36 H20A       -1.3820    3.1570   -2.3350 hc        1 FKL      0.055033
     37 H20B       -2.9360    4.0890   -2.4260 hc        1 FKL      0.055033
     38 H24        -6.8140   -3.3780    0.0320 h1        1 FKL      0.121700
     39 H26        -9.3660   -1.4850   -0.1350 hc        1 FKL      0.073700
     40 H26A       -9.3570   -3.3130   -0.1670 hc        1 FKL      0.073700
     41 H28         7.7950    0.8340   -0.5690 hc        1 FKL      0.060200
     42 H28A        7.8320    0.2660    1.1540 hc        1 FKL      0.060200
     43 HN23       -6.9160   -0.4010    0.0990 hn        1 FKL      0.312500
     44 H25        -8.2220   -3.3290    2.1580 hc        1 FKL      0.073700
     45 H25A       -8.2410   -1.5010    2.1660 hc        1 FKL      0.073700
     46 H18        -4.9300    2.9090   -2.3050 ha        1 FKL      0.138000
     47 H12         2.0500    3.6130    1.5210 h1        1 FKL      0.063367
     48 H12A        0.4080    3.5380    2.3250 h1        1 FKL      0.063367
     49 H12B        1.7090    2.3380    2.7860 h1        1 FKL      0.063367
     50 HN11        5.4560    0.9900    1.1110 hn        1 FKL      0.435800
     51 H27         6.0380   -0.8670   -1.1240 h1        1 FKL      0.087700
     52 H32         6.2000   -1.5930    1.9000 hc        1 FKL      0.060200
     53 H32A        5.0570   -2.3060    0.6840 hc        1 FKL      0.060200
     54 H31         7.1430   -3.7330    1.1060 h1        1 FKL      0.052700
     55 H31A        6.9450   -3.2120   -0.6440 h1        1 FKL      0.052700
     56 H29         8.5060   -1.4080   -1.3750 h1        1 FKL      0.052700
     57 H29A        9.6720   -0.8320   -0.0780 h1        1 FKL      0.052700
     58 C20        -2.3300    3.3980   -1.7920 c3        1 FKL     -0.068800
     59 C21        -5.2630   -1.4290   -0.5710 c         1 FKL      0.680700
@<TRIPOS>BOND
     1    1    3 ar  
     2    1   24 ar  
     3    2    5 ar  
     4    2   24 ar  
     5    3    4 ar  
     6    3   31 1   
     7    4    5 ar  
     8    4    7 1   
     9    5   22 1   
    10    6   20 1   
    11    6   21 2   
    12    6   22 1   
    13    7   20 2   
    14    7   32 1   
    15    8   16 ar  
    16    8   19 ar  
    17    8   33 1   
    18    9   16 ar  
    19    9   17 ar  
    20    9   34 1   
    21   10   11 1   
    22   10   14 1   
    23   10   15 1   
    24   10   38 1   
    25   11   15 1   
    26   11   39 1   
    27   11   40 1   
    28   12   26 1   
    29   12   30 1   
    30   12   41 1   
    31   12   42 1   
    32   13   59 2   
    33   14   43 1   
    34   14   59 1   
    35   15   44 1   
    36   15   45 1   
    37   16   59 1   
    38   17   18 ar  
    39   17   46 1   
    40   18   19 ar  
    41   18   58 1   
    42   19   20 1   
    43   22   23 1   
    44   23   47 1   
    45   23   48 1   
    46   23   49 1   
    47   24   25 1   
    48   25   26 1   
    49   25   50 1   
    50   26   27 1   
    51   26   51 1   
    52   27   28 1   
    53   27   52 1   
    54   27   53 1   
    55   28   29 1   
    56   28   54 1   
    57   28   55 1   
    58   29   30 1   
    59   30   56 1   
    60   30   57 1   
    61   35   58 1   
    62   36   58 1   
    63   37   58 1   
@<TRIPOS>SUBSTRUCTURE
     1 FKL         1 TEMP              0 ****  ****    0 ROOT
