@<TRIPOS>MOLECULE
FKL
   59    56     1     0     0
SMALL
bcc


@<TRIPOS>ATOM
      1 N1         -2.7990   -2.6220   -1.1090 n1        1 FKL     -0.235000
      2 N3         -2.8160   -2.5070    1.2850 n1        1 FKL     -0.290000
      3 C4         -1.4480   -2.5000   -1.1100 c1        1 FKL      0.053000
      4 C5         -0.7640   -2.3800    0.0850 c1        1 FKL     -0.282000
      5 C6         -1.4640   -2.3850    1.2880 c1        1 FKL      0.214000
      6 C8          0.5540   -1.3750    2.5140 c1        1 FKL      0.350000
      7 C10         0.6910   -1.9450    0.0530 c2        1 FKL      0.003000
      8 C15         2.4880    0.8160    0.7830 c1        1 FKL     -0.062000
      9 C17         4.8920    0.9270    0.6300 c1        1 FKL     -0.094000
     10 C20         3.9150   -2.6190    1.6440 c3        1 FKL     -0.194000
     11 C21         3.5530    3.0220    0.1380 c1        1 FKL      0.354000
     12 C24         4.6580    5.1660   -0.4790 cx        1 FKL     -0.022000
     13 C26         5.9350    5.7870   -1.0240 cx        1 FKL     -0.233500
     14 C28        -5.2450    0.1120   -1.7590 c3        1 FKL     -0.205500
     15 O22         2.4620    3.5540    0.0280 o         1 FKL     -0.365000
     16 N23         4.7470    3.7780   -0.1050 n2        1 FKL     -0.350000
     17 C25         5.4590    6.1350    0.3780 cx        1 FKL     -0.233500
     18 C16         3.6470    1.5460    0.5420 c1        1 FKL     -0.133000
     19 C18         4.9760   -0.4230    0.9590 c1        1 FKL     -0.144000
     20 C19         3.8170   -1.1540    1.2010 c2        1 FKL     -0.008000
     21 C14         2.5720   -0.5350    1.1130 c2        1 FKL     -0.037000
     22 C9          1.2960   -1.3670    1.2410 c1        1 FKL     -0.146000
     23 O13         1.0560   -0.8920    3.5140 o         1 FKL     -0.344000
     24 N7         -0.8040   -1.8710    2.5540 n3        1 FKL     -0.243000
     25 C12        -1.5000   -1.9540    3.8100 c3        1 FKL     -0.085000
     26 C2         -3.4950   -2.6260    0.0900 c1        1 FKL      0.204000
     27 N11        -4.0290   -1.3120   -0.1790 n3        1 FKL     -0.276000
     28 C27        -5.3710   -1.1400   -1.1670 c3        1 FKL      0.043000
     29 C32        -5.4840   -2.3360   -1.8610 c3        1 FKL     -0.205500
     30 C31        -6.3580   -2.1830   -3.1010 c3        1 FKL     -0.022000
     31 O30        -7.3280   -0.8670   -3.0540 os        1 FKL     -0.276000
     32 C29        -6.1210    0.2360   -2.9990 c3        1 FKL     -0.022000
     33 H4         -0.9570   -2.4970   -1.9600 ha        1 FKL      0.169000
     34 H10         1.1820   -1.9420   -0.7970 ha        1 FKL      0.151000
     35 H15         1.6130    1.2530    0.7210 ha        1 FKL      0.154000
     36 H17         5.7090    1.4420    0.4600 ha        1 FKL      0.136000
     37 H20         3.2610   -3.1550    1.1470 hc        1 FKL      0.094667
     38 H20A        4.8210   -2.9570    1.4620 hc        1 FKL      0.094667
     39 H20B        3.7280   -2.6840    2.6080 hc        1 FKL      0.094667
     40 H24         3.8210    5.5190   -0.8510 h1        1 FKL      0.161000
     41 H26         6.7110    5.1900   -1.0740 hc        1 FKL      0.113000
     42 H26A        5.8130    6.4880   -1.7020 hc        1 FKL      0.113000
     43 H28        -5.5080    0.8020   -1.1090 hc        1 FKL      0.102750
     44 H28A       -4.3070    0.2530   -2.0140 hc        1 FKL      0.102750
     45 HN23        5.5650    3.3670   -0.0620 hn        1 FKL      0.226000
     46 H25         5.9690    5.7310    1.1130 hc        1 FKL      0.113000
     47 H25A        5.0700    7.0290    0.4860 hc        1 FKL      0.113000
     48 H18         5.8540   -0.8580    1.0210 ha        1 FKL      0.138000
     49 H12        -1.5100   -1.0670    4.2390 h1        1 FKL      0.102333
     50 H12A       -1.0420   -2.5960    4.3960 h1        1 FKL      0.102333
     51 H12B       -2.4220   -2.2530    3.6540 h1        1 FKL      0.102333
     52 HN11       -3.6670   -0.5770    0.2330 hn        1 FKL      0.239000
     53 H27        -6.1570   -1.0880   -0.5790 h1        1 FKL      0.105000
     54 H32        -4.5900   -2.6330   -2.1350 hc        1 FKL      0.102750
     55 H32A       -5.8810   -3.0130   -1.2700 hc        1 FKL      0.102750
     56 H31        -6.9190   -2.9840   -3.1900 h1        1 FKL      0.089000
     57 H31A       -5.7760   -2.1170   -3.8900 h1        1 FKL      0.089000
     58 H29        -6.5170    1.1350   -3.0150 h1        1 FKL      0.089000
     59 H29A       -5.5570    0.1260   -3.7950 h1        1 FKL      0.089000
@<TRIPOS>BOND
     1    1    3 1   
     2    2   26 1   
     3    3   33 1   
     4    4    5 1   
     5    4    7 1   
     6    5   24 1   
     7    6   23 1   
     8    6   24 1   
     9    7   22 1   
    10    7   34 1   
    11    8   21 1   
    12    8   35 1   
    13    9   18 1   
    14    9   36 1   
    15   10   20 1   
    16   10   37 1   
    17   10   38 1   
    18   10   39 1   
    19   11   15 1   
    20   11   18 1   
    21   12   13 1   
    22   12   16 1   
    23   12   17 1   
    24   12   40 1   
    25   13   17 1   
    26   13   41 1   
    27   13   42 1   
    28   14   28 1   
    29   14   32 1   
    30   14   43 1   
    31   14   44 1   
    32   16   45 1   
    33   17   46 1   
    34   17   47 1   
    35   19   20 1   
    36   19   48 1   
    37   20   21 1   
    38   21   22 1   
    39   24   25 1   
    40   25   49 1   
    41   25   50 1   
    42   25   51 1   
    43   26   27 1   
    44   27   28 1   
    45   27   52 1   
    46   28   29 1   
    47   28   53 1   
    48   29   30 1   
    49   29   54 1   
    50   29   55 1   
    51   30   31 1   
    52   30   56 1   
    53   30   57 1   
    54   31   32 1   
    55   32   58 1   
    56   32   59 1   
@<TRIPOS>SUBSTRUCTURE
     1 FKL         1 TEMP              0 ****  ****    0 ROOT
