@<TRIPOS>MOLECULE
FKN
   40    43     1     0     0
SMALL
bcc


@<TRIPOS>ATOM
      1 C5         -0.1560    0.0320   -0.0210 ca        1 FKN     -0.460500
      2 C6          1.3040    0.0010   -0.0630 ca        1 FKN      0.464800
      3 C13         0.7980   -1.0030   -6.7590 ca        1 FKN     -0.175000
      4 C15         0.1380    1.3360   -6.4580 ca        1 FKN     -0.205000
      5 C20        -3.4700    0.7330    3.5820 ca        1 FKN     -0.156000
      6 C21        -4.4100   -0.1120    3.0050 ca        1 FKN     -0.006000
      7 C22        -4.0820   -0.9060    1.8980 ca        1 FKN     -0.386500
      8 C28        -6.0060   -0.8580    0.1810 c3        1 FKN     -0.361300
      9 O29        -4.5750   -2.9180    0.4530 o         1 FKN     -0.653300
     10 S26        -5.2210   -1.9390    1.2200 sy        1 FKN      1.398300
     11 O27        -6.1260   -2.3620    2.2020 o         1 FKN     -0.653300
     12 C19        -2.1680    0.7920    3.0630 ca        1 FKN      0.099400
     13 Cl24       -1.0650    1.8560    3.7820 cl        1 FKN     -0.047400
     14 C23        -2.7790   -0.8500    1.3980 ca        1 FKN      0.003000
     15 C18        -1.8110   -0.0110    1.9660 ca        1 FKN     -0.116900
     16 C9         -0.4720   -0.0070    1.3970 cc        1 FKN      0.419500
     17 C1         -0.8120    0.0980   -1.2610 ca        1 FKN      0.533200
     18 N8          0.6810   -0.0610    2.1170 nd        1 FKN     -0.477100
     19 N7          1.7190   -0.0550    1.2760 na        1 FKN     -0.101800
     20 N4          2.0440    0.0270   -1.2130 nb        1 FKN     -0.686000
     21 C3          1.2520    0.0920   -2.3240 ca        1 FKN      0.867300
     22 N2         -0.1360    0.1290   -2.4120 nb        1 FKN     -0.741000
     23 O10         2.0150    0.1320   -3.4900 os        1 FKN     -0.321400
     24 C11         1.3160    0.1390   -4.6980 ca        1 FKN      0.042100
     25 C16         0.7040    1.3210   -5.1720 ca        1 FKN      0.170900
     26 F25         0.6600    2.4310   -4.4050 f         1 FKN     -0.117900
     27 C14         0.1910    0.1720   -7.2430 ca        1 FKN      0.158900
     28 F17        -0.3530    0.1830   -8.4820 f         1 FKN     -0.130900
     29 C12         1.3510   -1.0170   -5.4850 ca        1 FKN     -0.070000
     30 H13         0.8250   -1.9020   -7.3930 ha        1 FKN      0.160000
     31 H15        -0.3400    2.2480   -6.8410 ha        1 FKN      0.170000
     32 H20        -3.7440    1.3520    4.4500 ha        1 FKN      0.160000
     33 H21        -5.4270   -0.1730    3.4330 ha        1 FKN      0.160000
     34 H28        -6.9110   -1.3290   -0.2800 h1        1 FKN      0.115367
     35 H28A       -6.3670    0.0670    0.6940 h1        1 FKN      0.115367
     36 H28B       -5.3630   -0.5220   -0.6690 h1        1 FKN      0.115367
     37 H23        -2.4980   -1.4970    0.5460 ha        1 FKN      0.167000
     38 H1         -1.9150    0.1270   -1.3370 h4        1 FKN      0.037100
     39 HN7         2.6530   -0.0970    1.6160 hn        1 FKN      0.346700
     40 H12         1.8310   -1.9260   -5.0900 ha        1 FKN      0.162000
@<TRIPOS>BOND
     1    1    2 ar  
     2    1   16 1   
     3    1   17 ar  
     4    2   19 1   
     5    2   20 ar  
     6    3   27 ar  
     7    3   29 ar  
     8    3   30 1   
     9    4   25 ar  
    10    4   27 ar  
    11    4   31 1   
    12    5    6 ar  
    13    5   12 ar  
    14    5   32 1   
    15    6    7 ar  
    16    6   33 1   
    17    7   10 1   
    18    7   14 ar  
    19    8   10 1   
    20    8   34 1   
    21    8   35 1   
    22    8   36 1   
    23    9   10 2   
    24   10   11 2   
    25   12   13 1   
    26   12   15 ar  
    27   14   15 ar  
    28   14   37 1   
    29   15   16 1   
    30   16   18 2   
    31   17   22 ar  
    32   17   38 1   
    33   18   19 1   
    34   19   39 1   
    35   20   21 ar  
    36   21   22 ar  
    37   21   23 1   
    38   23   24 1   
    39   24   25 ar  
    40   24   29 ar  
    41   25   26 1   
    42   27   28 1   
    43   29   40 1   
@<TRIPOS>SUBSTRUCTURE
     1 FKN         1 TEMP              0 ****  ****    0 ROOT
