@<TRIPOS>MOLECULE
FKN
   40    43     1     0     0
SMALL
bcc


@<TRIPOS>ATOM
      1 C5          0.1950   -1.2520    0.4160 ca        1 FKN     -0.460500
      2 C6         -0.5410   -2.3650    1.0100 ca        1 FKN      0.464800
      3 C13        -6.0120    1.6580    1.0380 ca        1 FKN     -0.175000
      4 C15        -5.6840    1.1180   -1.3280 ca        1 FKN     -0.205000
      5 C20         4.8500   -0.6670   -1.1470 ca        1 FKN     -0.156000
      6 C21         4.8930    0.6770   -0.8020 ca        1 FKN     -0.006000
      7 C22         3.8580    1.2650   -0.0620 ca        1 FKN     -0.386500
      8 C28         3.2870    3.5830   -1.0360 c3        1 FKN     -0.361300
      9 O29         3.0560    3.1330    1.4360 o         1 FKN     -0.653300
     10 S26         3.9290    2.8880    0.3670 sy        1 FKN      1.398300
     11 O27         5.2640    3.2880    0.5020 o         1 FKN     -0.653300
     12 C19         3.7650   -1.4600   -0.7470 ca        1 FKN      0.099400
     13 CL24        3.7450   -3.0870   -1.2140 cl        1 FKN     -0.047400
     14 C23         2.7890    0.4630    0.3440 ca        1 FKN      0.003000
     15 C18         2.7250   -0.8970    0.0140 ca        1 FKN     -0.116900
     16 C9          1.5850   -1.6740    0.4750 cc        1 FKN      0.419500
     17 C1         -0.5740   -0.1640   -0.0290 ca        1 FKN      0.533200
     18 N8          1.6610   -2.9050    1.0500 nd        1 FKN     -0.477100
     19 N7          0.4290   -3.3150    1.3620 na        1 FKN     -0.101800
     20 N4         -1.9010   -2.4000    1.1570 nb        1 FKN     -0.686000
     21 C3         -2.4920   -1.2670    0.6730 ca        1 FKN      0.867300
     22 N2         -1.9030   -0.1510    0.0880 nb        1 FKN     -0.741000
     23 O10        -3.8780   -1.3180    0.8140 os        1 FKN     -0.321400
     24 C11        -4.5930   -0.1890    0.4090 ca        1 FKN      0.042100
     25 C16        -4.8370    0.0590   -0.9600 ca        1 FKN      0.170900
     26 F25        -4.2680   -0.7100   -1.9130 f         1 FKN     -0.117900
     27 C14        -6.2660    1.9090   -0.3250 ca        1 FKN      0.158900
     28 F17        -7.0830    2.9300   -0.6750 f         1 FKN     -0.130900
     29 C12        -5.1690    0.6140    1.3990 ca        1 FKN     -0.070000
     30 H13        -6.4790    2.2920    1.8050 ha        1 FKN      0.160000
     31 H15        -5.8850    1.3220   -2.3890 ha        1 FKN      0.170000
     32 H20         5.6710   -1.1130   -1.7310 ha        1 FKN      0.160000
     33 H21         5.7620    1.2920   -1.0990 ha        1 FKN      0.160000
     34 H28         2.2020    3.3600   -1.1790 h1        1 FKN      0.115367
     35 H28A        3.3730    4.7000   -1.0070 h1        1 FKN      0.115367
     36 H28B        3.8070    3.2580   -1.9700 h1        1 FKN      0.115367
     37 H23         1.9820    0.9060    0.9580 ha        1 FKN      0.167000
     38 H1         -0.1110    0.7260   -0.4950 h4        1 FKN      0.037100
     39 HN7         0.2790   -4.1950    1.8010 hn        1 FKN      0.346700
     40 H12        -4.9590    0.4010    2.4590 ha        1 FKN      0.162000
@<TRIPOS>BOND
     1    1    2 ar  
     2    1   16 1   
     3    1   17 ar  
     4    2   19 1   
     5    2   20 ar  
     6    3   27 ar  
     7    3   29 ar  
     8    3   30 1   
     9    4   25 ar  
    10    4   27 ar  
    11    4   31 1   
    12    5    6 ar  
    13    5   12 ar  
    14    5   32 1   
    15    6    7 ar  
    16    6   33 1   
    17    7   10 1   
    18    7   14 ar  
    19    8   10 1   
    20    8   34 1   
    21    8   35 1   
    22    8   36 1   
    23    9   10 2   
    24   10   11 2   
    25   12   13 1   
    26   12   15 ar  
    27   14   15 ar  
    28   14   37 1   
    29   15   16 1   
    30   16   18 2   
    31   17   22 ar  
    32   17   38 1   
    33   18   19 1   
    34   19   39 1   
    35   20   21 ar  
    36   21   22 ar  
    37   21   23 1   
    38   23   24 1   
    39   24   25 ar  
    40   24   29 ar  
    41   25   26 1   
    42   27   28 1   
    43   29   40 1   
@<TRIPOS>SUBSTRUCTURE
     1 FKN         1 TEMP              0 ****  ****    0 ROOT
