@<TRIPOS>MOLECULE
FKN
   40    31     1     0     0
SMALL
bcc


@<TRIPOS>ATOM
      1 C5          0.6580   -0.1440    0.2600 c1        1 FKN     -0.081000
      2 C6          1.9930    0.0230    0.3120 c1        1 FKN     -0.081000
      3 C13         2.5620    2.3240   -5.7630 c1        1 FKN     -0.176000
      4 C15         4.4410    2.6990   -4.3170 c1        1 FKN     -0.205000
      5 C20        -1.8330   -3.0610    2.6370 c1        1 FKN     -0.156000
      6 C21        -2.9010   -2.4170    3.2430 c1        1 FKN     -0.005000
      7 C22        -2.9460   -1.0330    3.2760 c1        1 FKN     -0.831000
      8 C28        -5.7840   -0.4250    3.5050 c3        1 FKN     -0.940000
      9 O29        -4.3320   -1.3750    5.5180 o         1 FKN     -0.540400
     10 S26        -4.2390   -0.5110    4.3740 s4        1 FKN      2.078800
     11 O27        -3.9210    0.7440    4.9960 o         1 FKN     -0.540400
     12 C19        -0.8110   -2.3210    2.0650 c1        1 FKN      0.014000
     13 CL24        0.5530   -3.1310    1.3410 cl        1 FKN      0.022000
     14 C23        -1.9240   -0.2920    2.7040 c2        1 FKN      0.016000
     15 C18        -0.8560   -0.9360    2.0990 c1        1 FKN     -0.037000
     16 C9          0.1830   -0.1970    1.5630 c1        1 FKN     -0.038000
     17 C1          0.0210   -0.2430   -0.9670 c1        1 FKN      0.060000
     18 N8          1.2330   -0.0610    2.3940 n2        1 FKN     -0.012000
     19 N7          2.3620    0.0760    1.6330 n1        1 FKN     -0.170000
     20 N4          2.7150    0.0950   -0.8420 n1        1 FKN     -0.210000
     21 C3          2.0870   -0.0020   -2.0470 c1        1 FKN      0.173000
     22 N2          0.7350   -0.1720   -2.1010 n1        1 FKN     -0.169000
     23 O10         2.7020   -0.3720   -3.2550 os        1 FKN     -0.104000
     24 C11         3.0340    0.7830   -3.9840 c2        1 FKN     -0.006000
     25 C16         4.1290    1.5470   -3.6130 c2        1 FKN      0.136000
     26 F25         4.9060    1.1520   -2.5960 f         1 FKN     -0.082000
     27 C14         3.6570    3.0880   -5.3920 c1        1 FKN      0.124000
     28 F17         3.9400    4.2190   -6.0520 f         1 FKN     -0.095000
     29 C12         2.2500    1.1720   -5.0590 c1        1 FKN     -0.070000
     30 H13         2.0100    2.5980   -6.5200 ha        1 FKN      0.160000
     31 H15         5.2130    3.2370   -4.0550 ha        1 FKN      0.170000
     32 H20        -1.8010   -4.0370    2.6130 ha        1 FKN      0.161000
     33 H21        -3.6200   -2.9390    3.6450 ha        1 FKN      0.164000
     34 H28        -6.4600   -0.0090    4.0810 h1        1 FKN      0.154667
     35 H28A       -5.6720    0.1110    2.6920 h1        1 FKN      0.154667
     36 H28B       -6.0730   -1.3300    3.2630 h1        1 FKN      0.154667
     37 H23        -1.9560    0.6830    2.7280 ha        1 FKN      0.170000
     38 H1         -0.9470   -0.3640   -1.0060 ha        1 FKN      0.179000
     39 HN7         3.2110    0.1840    1.9480 DU        1 FKN      0.296000
     40 H12         1.4780    0.6340   -5.3210 ha        1 FKN      0.162000
@<TRIPOS>BOND
     1    1    2 1   
     2    3   27 1   
     3    3   30 1   
     4    4   25 1   
     5    4   31 1   
     6    5   12 1   
     7    5   32 1   
     8    6    7 1   
     9    6   33 1   
    10    7   14 1   
    11    8   10 1   
    12    8   34 1   
    13    8   35 1   
    14    8   36 1   
    15    9   10 1   
    16   10   11 1   
    17   12   15 1   
    18   14   15 1   
    19   14   37 1   
    20   16   18 1   
    21   17   22 1   
    22   17   38 1   
    23   18   19 1   
    24   20   21 1   
    25   21   23 1   
    26   23   24 1   
    27   24   25 1   
    28   24   29 1   
    29   25   26 1   
    30   27   28 1   
    31   29   40 1   
@<TRIPOS>SUBSTRUCTURE
     1 FKN         1 TEMP              0 ****  ****    0 ROOT
