@<TRIPOS>MOLECULE
FKN
   40    43     1     0     0
SMALL
bcc


@<TRIPOS>ATOM
      1 C5         -0.1560    0.0290   -0.0210 ca        1 FKN     -0.460500
      2 C6          1.3040   -0.0030   -0.0620 ca        1 FKN      0.464800
      3 C13         0.7980   -1.0010   -6.7600 ca        1 FKN     -0.175000
      4 C15         0.1410    1.3380   -6.4560 ca        1 FKN     -0.205000
      5 C20        -3.4700    0.7310    3.5820 ca        1 FKN     -0.156000
      6 C21        -4.4100   -0.1120    3.0050 ca        1 FKN     -0.006000
      7 C22        -4.0840   -0.9050    1.8970 ca        1 FKN     -0.386500
      8 C28        -6.0070   -0.8520    0.1790 c3        1 FKN     -0.361300
      9 O29        -4.5790   -2.9150    0.4500 o         1 FKN     -0.653300
     10 S26        -5.2240   -1.9360    1.2170 sy        1 FKN      1.398300
     11 O27        -6.1300   -2.3590    2.1980 o         1 FKN     -0.653300
     12 C19        -2.1680    0.7900    3.0640 ca        1 FKN      0.099400
     13 CL24       -1.0640    1.8500    3.7850 cl        1 FKN     -0.047400
     14 C23        -2.7800   -0.8500    1.3970 ca        1 FKN      0.003000
     15 C18        -1.8120   -0.0130    1.9660 ca        1 FKN     -0.116900
     16 C9         -0.4730   -0.0110    1.3980 cc        1 FKN      0.419500
     17 C1         -0.8120    0.0970   -1.2610 ca        1 FKN      0.533200
     18 N8          0.6800   -0.0670    2.1180 nd        1 FKN     -0.477100
     19 N7          1.7180   -0.0610    1.2770 na        1 FKN     -0.101800
     20 N4          2.0440    0.0230   -1.2120 nb        1 FKN     -0.686000
     21 C3          1.2520    0.0900   -2.3240 ca        1 FKN      0.867300
     22 N2         -0.1350    0.1280   -2.4110 nb        1 FKN     -0.741000
     23 O10         2.0160    0.1290   -3.4890 os        1 FKN     -0.321400
     24 C11         1.3170    0.1390   -4.6980 ca        1 FKN      0.042100
     25 C16         0.7070    1.3220   -5.1700 ca        1 FKN      0.170900
     26 F25         0.6640    2.4310   -4.4030 f         1 FKN     -0.117900
     27 C14         0.1930    0.1750   -7.2420 ca        1 FKN      0.158900
     28 F17        -0.3500    0.1880   -8.4820 f         1 FKN     -0.130900
     29 C12         1.3510   -1.0170   -5.4850 ca        1 FKN     -0.070000
     30 H13         0.8250   -1.8990   -7.3940 ha        1 FKN      0.160000
     31 H15        -0.3350    2.2520   -6.8390 ha        1 FKN      0.170000
     32 H20        -3.7430    1.3500    4.4520 ha        1 FKN      0.160000
     33 H21        -5.4280   -0.1720    3.4320 ha        1 FKN      0.160000
     34 H28        -6.9130   -1.3220   -0.2820 h1        1 FKN      0.115367
     35 H28A       -6.3660    0.0730    0.6930 h1        1 FKN      0.115367
     36 H28B       -5.3640   -0.5170   -0.6700 h1        1 FKN      0.115367
     37 H23        -2.5000   -1.4970    0.5440 ha        1 FKN      0.167000
     38 H1         -1.9150    0.1280   -1.3370 h4        1 FKN      0.037100
     39 HN7         2.6520   -0.1040    1.6170 hn        1 FKN      0.346700
     40 H12         1.8290   -1.9270   -5.0900 ha        1 FKN      0.162000
@<TRIPOS>BOND
     1    1    2 ar  
     2    1   16 1   
     3    1   17 ar  
     4    2   19 1   
     5    2   20 ar  
     6    3   27 ar  
     7    3   29 ar  
     8    3   30 1   
     9    4   25 ar  
    10    4   27 ar  
    11    4   31 1   
    12    5    6 ar  
    13    5   12 ar  
    14    5   32 1   
    15    6    7 ar  
    16    6   33 1   
    17    7   10 1   
    18    7   14 ar  
    19    8   10 1   
    20    8   34 1   
    21    8   35 1   
    22    8   36 1   
    23    9   10 2   
    24   10   11 2   
    25   12   13 1   
    26   12   15 ar  
    27   14   15 ar  
    28   14   37 1   
    29   15   16 1   
    30   16   18 2   
    31   17   22 ar  
    32   17   38 1   
    33   18   19 1   
    34   19   39 1   
    35   20   21 ar  
    36   21   22 ar  
    37   21   23 1   
    38   23   24 1   
    39   24   25 ar  
    40   24   29 ar  
    41   25   26 1   
    42   27   28 1   
    43   29   40 1   
@<TRIPOS>SUBSTRUCTURE
     1 FKN         1 TEMP              0 ****  ****    0 ROOT
