@<TRIPOS>MOLECULE
FKO
   36    39     1     0     0
SMALL
bcc


@<TRIPOS>ATOM
      1 FAA         0.2060   -0.2480   -0.0690 f         1 FKO     -0.124900
      2 CAQ         1.5490   -0.1350    0.0280 ca        1 FKO      0.111900
      3 CAG         2.1940   -0.3630    1.2560 ca        1 FKO     -0.146000
      4 CAC         3.5780   -0.2450    1.3470 ca        1 FKO     -0.130000
      5 CAE         4.3350    0.1040    0.2290 ca        1 FKO     -0.119000
      6 CAI         3.7150    0.3430   -0.9960 ca        1 FKO     -0.157000
      7 CAT         2.3260    0.2250   -1.1020 ca        1 FKO      0.078100
      8 OAP         1.6100    0.5190   -2.2540 os        1 FKO     -0.236200
      9 CAS         2.2920    0.3440   -3.4620 ca        1 FKO      0.091100
     10 CAM         2.1830    1.3650   -4.3800 ca        1 FKO     -0.093000
     11 CAK         2.9530   -0.8950   -3.7360 ca        1 FKO     -0.161000
     12 CAL         3.5170   -1.1250   -4.9620 ca        1 FKO     -0.068000
     13 CAX         3.4390   -0.1200   -5.9490 ca        1 FKO     -0.119000
     14 CAW         2.7550    1.1420   -5.6620 ca        1 FKO     -0.073000
     15 NAO         2.7930    1.9540   -6.7760 nc        1 FKO     -0.259400
     16 NAN         3.4480    1.2760   -7.7040 na        1 FKO      0.074800
     17 CAV         3.8750    0.0090   -7.2980 cc        1 FKO     -0.061300
     18 CAU         4.6340   -0.9200   -8.1100 ca        1 FKO     -0.022800
     19 CAR         4.3670   -1.1530   -9.4700 ca        1 FKO      0.021400
     20 ClB         3.1070   -0.3440  -10.2820 cl        1 FKO     -0.091400
     21 CAJ         5.6790   -1.6340   -7.4990 ca        1 FKO     -0.103000
     22 CAF         6.4330   -2.5520   -8.2230 ca        1 FKO     -0.127000
     23 CAD         6.1590   -2.7740   -9.5730 ca        1 FKO     -0.114000
     24 CAH         5.1270   -2.0770  -10.1970 ca        1 FKO     -0.121000
     25 HAG         1.5920   -0.6370    2.1340 ha        1 FKO      0.151000
     26 HAC         4.0750   -0.4290    2.3110 ha        1 FKO      0.139000
     27 HAE         5.4280    0.1980    0.3110 ha        1 FKO      0.138000
     28 HAI         4.3050    0.6200   -1.8820 ha        1 FKO      0.153000
     29 HAM         1.6610    2.3030   -4.1480 ha        1 FKO      0.165000
     30 HAK         2.9840   -1.6530   -2.9390 ha        1 FKO      0.148000
     31 HAL         4.0160   -2.0780   -5.1930 ha        1 FKO      0.139000
     32 HNAN        3.5750    1.6690   -8.6120 hn        1 FKO      0.332700
     33 HAJ         5.8970   -1.4550   -6.4340 ha        1 FKO      0.149000
     34 HAF         7.2480   -3.1020   -7.7290 ha        1 FKO      0.142000
     35 HAD         6.7540   -3.4990  -10.1470 ha        1 FKO      0.142000
     36 HAH         4.9060   -2.2550  -11.2610 ha        1 FKO      0.152000
@<TRIPOS>BOND
     1    1    2 1   
     2    2    3 ar  
     3    2    7 ar  
     4    3    4 ar  
     5    3   25 1   
     6    4    5 ar  
     7    4   26 1   
     8    5    6 ar  
     9    5   27 1   
    10    6    7 ar  
    11    6   28 1   
    12    7    8 1   
    13    8    9 1   
    14    9   10 ar  
    15    9   11 ar  
    16   10   14 ar  
    17   10   29 1   
    18   11   12 ar  
    19   11   30 1   
    20   12   13 ar  
    21   12   31 1   
    22   13   14 ar  
    23   13   17 2   
    24   14   15 2   
    25   15   16 1   
    26   16   17 1   
    27   16   32 1   
    28   17   18 1   
    29   18   19 ar  
    30   18   21 ar  
    31   19   20 1   
    32   19   24 ar  
    33   21   22 ar  
    34   21   33 1   
    35   22   23 ar  
    36   22   34 1   
    37   23   24 ar  
    38   23   35 1   
    39   24   36 1   
@<TRIPOS>SUBSTRUCTURE
     1 FKO         1 TEMP              0 ****  ****    0 ROOT
