@<TRIPOS>MOLECULE
FKO
   36    39     1     0     0
SMALL
bcc


@<TRIPOS>ATOM
      1 FAA         0.1950   -0.2470   -0.0770 f         1 FKO     -0.124900
      2 CAQ         1.5390   -0.1450    0.0240 ca        1 FKO      0.111900
      3 CAG         2.1790   -0.3860    1.2520 ca        1 FKO     -0.146000
      4 CAC         3.5640   -0.2800    1.3480 ca        1 FKO     -0.130000
      5 CAE         4.3270    0.0700    0.2340 ca        1 FKO     -0.119000
      6 CAI         3.7120    0.3200   -0.9910 ca        1 FKO     -0.157000
      7 CAT         2.3220    0.2150   -1.1010 ca        1 FKO      0.078100
      8 OAP         1.6120    0.5220   -2.2530 os        1 FKO     -0.236200
      9 CAS         2.2950    0.3490   -3.4600 ca        1 FKO      0.091100
     10 CAM         2.1980    1.3760   -4.3720 ca        1 FKO     -0.093000
     11 CAK         2.9470   -0.8940   -3.7400 ca        1 FKO     -0.161000
     12 CAL         3.5120   -1.1220   -4.9660 ca        1 FKO     -0.068000
     13 CAX         3.4460   -0.1100   -5.9480 ca        1 FKO     -0.119000
     14 CAW         2.7710    1.1560   -5.6550 ca        1 FKO     -0.073000
     15 NAO         2.8200    1.9740   -6.7640 nc        1 FKO     -0.259400
     16 NAN         3.4710    1.2960   -7.6940 na        1 FKO      0.074800
     17 CAV         3.8860    0.0240   -7.2950 cc        1 FKO     -0.061300
     18 CAU         4.6390   -0.9070   -8.1100 ca        1 FKO     -0.022800
     19 CAR         4.3740   -1.1300   -9.4720 ca        1 FKO      0.021400
     20 CLB         3.1240   -0.3050  -10.2820 cl        1 FKO     -0.091400
     21 CAJ         5.6770   -1.6340   -7.5010 ca        1 FKO     -0.103000
     22 CAF         6.4250   -2.5540   -8.2290 ca        1 FKO     -0.127000
     23 CAD         6.1520   -2.7650   -9.5800 ca        1 FKO     -0.114000
     24 CAH         5.1280   -2.0560  -10.2020 ca        1 FKO     -0.121000
     25 HAG         1.5720   -0.6600    2.1280 ha        1 FKO      0.151000
     26 HAC         4.0570   -0.4730    2.3120 ha        1 FKO      0.139000
     27 HAE         5.4200    0.1540    0.3200 ha        1 FKO      0.138000
     28 HAI         4.3060    0.5980   -1.8740 ha        1 FKO      0.153000
     29 HAM         1.6840    2.3170   -4.1360 ha        1 FKO      0.165000
     30 HAK         2.9690   -1.6570   -2.9480 ha        1 FKO      0.148000
     31 HAL         4.0050   -2.0770   -5.2020 ha        1 FKO      0.139000
     32 HNAN        3.6040    1.6950   -8.5990 hn        1 FKO      0.332700
     33 HAJ         5.8940   -1.4620   -6.4350 ha        1 FKO      0.149000
     34 HAF         7.2340   -3.1130   -7.7360 ha        1 FKO      0.142000
     35 HAD         6.7430   -3.4920  -10.1570 ha        1 FKO      0.142000
     36 HAH         4.9080   -2.2250  -11.2680 ha        1 FKO      0.152000
@<TRIPOS>BOND
     1    1    2 1   
     2    2    3 ar  
     3    2    7 ar  
     4    3    4 ar  
     5    3   25 1   
     6    4    5 ar  
     7    4   26 1   
     8    5    6 ar  
     9    5   27 1   
    10    6    7 ar  
    11    6   28 1   
    12    7    8 1   
    13    8    9 1   
    14    9   10 ar  
    15    9   11 ar  
    16   10   14 ar  
    17   10   29 1   
    18   11   12 ar  
    19   11   30 1   
    20   12   13 ar  
    21   12   31 1   
    22   13   14 ar  
    23   13   17 2   
    24   14   15 2   
    25   15   16 1   
    26   16   17 1   
    27   16   32 1   
    28   17   18 1   
    29   18   19 ar  
    30   18   21 ar  
    31   19   20 1   
    32   19   24 ar  
    33   21   22 ar  
    34   21   33 1   
    35   22   23 ar  
    36   22   34 1   
    37   23   24 ar  
    38   23   35 1   
    39   24   36 1   
@<TRIPOS>SUBSTRUCTURE
     1 FKO         1 TEMP              0 ****  ****    0 ROOT
