@<TRIPOS>MOLECULE
FKO
   36    39     1     0     0
SMALL
bcc


@<TRIPOS>ATOM
      1 FAA         5.4520   -1.5890   -0.4610 f         1 FKO     -0.124900
      2 CAQ         5.1590   -0.2710   -0.5140 ca        1 FKO      0.111900
      3 CAG         6.0830    0.6400   -1.0540 ca        1 FKO     -0.146000
      4 CAC         5.7730    1.9970   -1.1050 ca        1 FKO     -0.130000
      5 CAE         4.5530    2.4640   -0.6200 ca        1 FKO     -0.119000
      6 CAI         3.6260    1.5790   -0.0730 ca        1 FKO     -0.157000
      7 CAT         3.9230    0.2150   -0.0170 ca        1 FKO      0.078100
      8 OAP         3.1020   -0.7320    0.5790 os        1 FKO     -0.236200
      9 CAS         1.7340   -0.4450    0.5810 ca        1 FKO      0.091100
     10 CAM         1.0700   -0.6340    1.7720 ca        1 FKO     -0.093000
     11 CAK         1.0760   -0.0930   -0.6400 ca        1 FKO     -0.161000
     12 CAL        -0.2830    0.0690   -0.6750 ca        1 FKO     -0.068000
     13 CAX        -1.0240   -0.1130    0.5110 ca        1 FKO     -0.119000
     14 CAW        -0.3430   -0.4790    1.7550 ca        1 FKO     -0.073000
     15 NAO        -1.2700   -0.6160    2.7670 nc        1 FKO     -0.259400
     16 NAN        -2.4480   -0.3590    2.2250 na        1 FKO      0.074800
     17 CAV        -2.4010   -0.0480    0.8640 cc        1 FKO     -0.061300
     18 CAU        -3.5430    0.2990    0.0440 ca        1 FKO     -0.022800
     19 CAR        -4.7800   -0.3640    0.1220 ca        1 FKO      0.021400
     20 CLB        -5.0340   -1.6490    1.2090 cl        1 FKO     -0.091400
     21 CAJ        -3.3990    1.3420   -0.8870 ca        1 FKO     -0.103000
     22 CAF        -4.4540    1.7110   -1.7150 ca        1 FKO     -0.127000
     23 CAD        -5.6770    1.0450   -1.6270 ca        1 FKO     -0.114000
     24 CAH        -5.8410    0.0090   -0.7110 ca        1 FKO     -0.121000
     25 HAG         7.0450    0.2660   -1.4340 ha        1 FKO      0.151000
     26 HAC         6.5010    2.7020   -1.5330 ha        1 FKO      0.139000
     27 HAE         4.3180    3.5380   -0.6630 ha        1 FKO      0.138000
     28 HAI         2.6610    1.9410    0.3130 ha        1 FKO      0.153000
     29 HAM         1.5970   -0.9140    2.6950 ha        1 FKO      0.165000
     30 HAK         1.6920    0.0320   -1.5430 ha        1 FKO      0.148000
     31 HAL        -0.8050    0.3260   -1.6090 ha        1 FKO      0.139000
     32 HNAN       -3.2760   -0.4230    2.7800 hn        1 FKO      0.332700
     33 HAJ        -2.4330    1.8690   -0.9520 ha        1 FKO      0.149000
     34 HAF        -4.3240    2.5300   -2.4380 ha        1 FKO      0.142000
     35 HAD        -6.5140    1.3350   -2.2800 ha        1 FKO      0.142000
     36 HAH        -6.8040   -0.5210   -0.6440 ha        1 FKO      0.152000
@<TRIPOS>BOND
     1    1    2 1   
     2    2    3 ar  
     3    2    7 ar  
     4    3    4 ar  
     5    3   25 1   
     6    4    5 ar  
     7    4   26 1   
     8    5    6 ar  
     9    5   27 1   
    10    6    7 ar  
    11    6   28 1   
    12    7    8 1   
    13    8    9 1   
    14    9   10 ar  
    15    9   11 ar  
    16   10   14 ar  
    17   10   29 1   
    18   11   12 ar  
    19   11   30 1   
    20   12   13 ar  
    21   12   31 1   
    22   13   14 ar  
    23   13   17 2   
    24   14   15 2   
    25   15   16 1   
    26   16   17 1   
    27   16   32 1   
    28   17   18 1   
    29   18   19 ar  
    30   18   21 ar  
    31   19   20 1   
    32   19   24 ar  
    33   21   22 ar  
    34   21   33 1   
    35   22   23 ar  
    36   22   34 1   
    37   23   24 ar  
    38   23   35 1   
    39   24   36 1   
@<TRIPOS>SUBSTRUCTURE
     1 FKO         1 TEMP              0 ****  ****    0 ROOT
