@<TRIPOS>MOLECULE
FKS
   40    39     1     0     0
SMALL
bcc


@<TRIPOS>ATOM
      1 C2         -0.0500    0.0020    0.0460 c3        1 FKS      0.103800
      2 C3          1.4720    0.0030   -0.1000 c3        1 FKS     -0.138400
      3 C4          2.0880    0.0020    1.3000 c3        1 FKS      0.103800
      4 C6          4.1460    0.0010    2.6830 c3        1 FKS      0.106800
      5 C7          5.6690    0.0020    2.6750 c3        1 FKS     -0.112400
      6 C8          6.1700   -0.0000    4.1090 c3        1 FKS     -0.077400
      7 C9          7.6850   -0.0010    4.1280 c3        1 FKS     -0.077400
      8 C10         8.2000   -0.0030    5.5510 c3        1 FKS     -0.058400
      9 C11         9.7290   -0.0040    5.5750 c3        1 FKS      0.327600
     10 C12        10.2550   -0.0060    7.0800 c3        1 FKS      0.563900
     11 F15        11.6260   -0.0070    7.1280 f         1 FKS     -0.222300
     12 F16         9.8560    1.0830    7.8020 f         1 FKS     -0.222300
     13 F17         9.8560   -1.0980    7.7980 f         1 FKS     -0.222300
     14 N5          3.5770    0.0030    1.2880 n4        1 FKS     -0.766000
     15 N1         -0.7680    0.0030   -1.2600 n4        1 FKS     -0.837600
     16 O13        10.2090   -1.1310    4.8950 oh        1 FKS     -0.597800
     17 O14        10.2100    1.1250    4.8990 oh        1 FKS     -0.597800
     18 H1         -0.3840    0.9180    0.6190 hx        1 FKS      0.129700
     19 H2         -0.3830   -0.9170    0.6170 hx        1 FKS      0.129700
     20 H3          1.8080   -0.9050   -0.6720 hc        1 FKS      0.093700
     21 H4          1.8070    0.9130   -0.6690 hc        1 FKS      0.093700
     22 H5          1.7500   -0.9150    1.8690 hx        1 FKS      0.122700
     23 H6          1.7490    0.9160    1.8710 hx        1 FKS      0.122700
     24 H7          3.7590    0.9190    3.2130 hx        1 FKS      0.113700
     25 H8          3.7600   -0.9180    3.2110 hx        1 FKS      0.113700
     26 H9          6.0630    0.9110    2.1480 hc        1 FKS      0.076700
     27 H10         6.0640   -0.9060    2.1450 hc        1 FKS      0.076700
     28 H11         5.7850   -0.9070    4.6470 hc        1 FKS      0.059700
     29 H12         5.7850    0.9050    4.6490 hc        1 FKS      0.059700
     30 H13         8.0810    0.9050    3.5960 hc        1 FKS      0.072700
     31 H14         8.0810   -0.9050    3.5930 hc        1 FKS      0.072700
     32 H15         7.8510    0.9090    6.1020 hc        1 FKS      0.078700
     33 H16         7.8510   -0.9160    6.0990 hc        1 FKS      0.078700
     34 H17         3.9250   -0.8270    0.7900 hn        1 FKS      0.458800
     35 H19        -0.5270    0.8380   -1.8090 hn        1 FKS      0.479467
     36 H20        -1.7850    0.0020   -1.0920 hn        1 FKS      0.479467
     37 H22        11.1700   -1.1790    5.0080 ho        1 FKS      0.436000
     38 H23        11.1710    1.1720    5.0120 ho        1 FKS      0.436000
     39 H52         3.9240    0.8340    0.7920 hn        1 FKS      0.458800
     40 H131       -0.5260   -0.8310   -1.8100 hn        1 FKS      0.479467
@<TRIPOS>BOND
     1    1    2 1   
     2    1   15 1   
     3    1   18 1   
     4    1   19 1   
     5    2    3 1   
     6    2   20 1   
     7    2   21 1   
     8    3   14 1   
     9    3   22 1   
    10    3   23 1   
    11    4    5 1   
    12    4   14 1   
    13    4   24 1   
    14    4   25 1   
    15    5    6 1   
    16    5   26 1   
    17    5   27 1   
    18    6    7 1   
    19    6   28 1   
    20    6   29 1   
    21    7    8 1   
    22    7   30 1   
    23    7   31 1   
    24    8    9 1   
    25    8   32 1   
    26    8   33 1   
    27    9   10 1   
    28    9   16 1   
    29    9   17 1   
    30   10   11 1   
    31   10   12 1   
    32   10   13 1   
    33   14   34 1   
    34   14   39 1   
    35   15   35 1   
    36   15   36 1   
    37   15   40 1   
    38   16   37 1   
    39   17   38 1   
@<TRIPOS>SUBSTRUCTURE
     1 FKS         1 TEMP              0 ****  ****    0 ROOT
