@<TRIPOS>MOLECULE
FKS
   40    39     1     0     0
SMALL
bcc


@<TRIPOS>ATOM
      1 C2         -0.0580    0.0020    0.0510 c3        1 FKS      0.103800
      2 C3          1.4640    0.0020   -0.0980 c3        1 FKS     -0.138400
      3 C4          2.0830    0.0020    1.3010 c3        1 FKS      0.103800
      4 C6          4.1430    0.0010    2.6800 c3        1 FKS      0.106800
      5 C7          5.6660    0.0020    2.6690 c3        1 FKS     -0.112400
      6 C8          6.1700   -0.0020    4.1030 c3        1 FKS     -0.077400
      7 C9          7.6840   -0.0000    4.1190 c3        1 FKS     -0.077400
      8 C10         8.2030   -0.0050    5.5400 c3        1 FKS     -0.058400
      9 C11         9.7320   -0.0030    5.5610 c3        1 FKS      0.327600
     10 C12        10.2600   -0.0090    7.0660 c3        1 FKS      0.563900
     11 F15        11.6310   -0.0070    7.1110 f         1 FKS     -0.222300
     12 F16         9.8620    1.0780    7.7910 f         1 FKS     -0.222300
     13 F17         9.8650   -1.1030    7.7820 f         1 FKS     -0.222300
     14 N5          3.5720    0.0020    1.2860 ny        1 FKS     -0.766000
     15 N1         -0.7780    0.0020   -1.2540 nz        1 FKS     -0.837600
     16 O13        10.2130   -1.1270    4.8780 oh        1 FKS     -0.597800
     17 O14        10.2100    1.1280    4.8870 oh        1 FKS     -0.597800
     18 H1         -0.3900    0.9190    0.6240 hx        1 FKS      0.129700
     19 H2         -0.3900   -0.9160    0.6230 hx        1 FKS      0.129700
     20 H3          1.7980   -0.9060   -0.6700 hc        1 FKS      0.093700
     21 H4          1.7980    0.9120   -0.6680 hc        1 FKS      0.093700
     22 H5          1.7450    0.9170    1.8730 hx        1 FKS      0.122700
     23 H6          1.7460   -0.9150    1.8710 hx        1 FKS      0.122700
     24 H7          3.7590   -0.9190    3.2080 hx        1 FKS      0.113700
     25 H8          3.7570    0.9180    3.2110 hx        1 FKS      0.113700
     26 H9          6.0590    0.9120    2.1420 hc        1 FKS      0.076700
     27 H10         6.0600   -0.9050    2.1380 hc        1 FKS      0.076700
     28 H11         5.7850    0.9020    4.6440 hc        1 FKS      0.059700
     29 H12         5.7870   -0.9100    4.6390 hc        1 FKS      0.059700
     30 H13         8.0810   -0.9030    3.5810 hc        1 FKS      0.072700
     31 H14         8.0790    0.9070    3.5880 hc        1 FKS      0.072700
     32 H15         7.8560   -0.9200    6.0880 hc        1 FKS      0.078700
     33 H16         7.8540    0.9050    6.0940 hc        1 FKS      0.078700
     34 H17         3.9190   -0.8270    0.7870 hn        1 FKS      0.458800
     35 H19        -0.5380    0.8370   -1.8030 hn        1 FKS      0.479467
     36 H20        -0.5380   -0.8320   -1.8040 hn        1 FKS      0.479467
     37 H22        11.1740   -1.1740    4.9880 ho        1 FKS      0.436000
     38 H23        11.1710    1.1770    4.9980 ho        1 FKS      0.436000
     39 H52         3.9180    0.8340    0.7900 hn        1 FKS      0.458800
     40 H131       -1.7950    0.0020   -1.0840 hn        1 FKS      0.479467
@<TRIPOS>BOND
     1    1    2 1   
     2    1   15 1   
     3    1   18 1   
     4    1   19 1   
     5    2    3 1   
     6    2   20 1   
     7    2   21 1   
     8    3   14 1   
     9    3   22 1   
    10    3   23 1   
    11    4    5 1   
    12    4   14 1   
    13    4   24 1   
    14    4   25 1   
    15    5    6 1   
    16    5   26 1   
    17    5   27 1   
    18    6    7 1   
    19    6   28 1   
    20    6   29 1   
    21    7    8 1   
    22    7   30 1   
    23    7   31 1   
    24    8    9 1   
    25    8   32 1   
    26    8   33 1   
    27    9   10 1   
    28    9   16 1   
    29    9   17 1   
    30   10   11 1   
    31   10   12 1   
    32   10   13 1   
    33   14   34 1   
    34   14   39 1   
    35   15   35 1   
    36   15   36 1   
    37   15   40 1   
    38   16   37 1   
    39   17   38 1   
@<TRIPOS>SUBSTRUCTURE
     1 FKS         1 TEMP              0 ****  ****    0 ROOT
