@<TRIPOS>MOLECULE
FL1
   63    67     1     0     0
SMALL
bcc


@<TRIPOS>ATOM
      1 S1         -5.1870    0.6890   17.2220 sy        1 FL1      1.529200
      2 O1         -5.7880    1.2240   18.3820 o         1 FL1     -0.662800
      3 O2         -5.8480   -0.3900   16.5900 o         1 FL1     -0.662800
      4 N1         -3.6860    0.2450   17.5740 n3        1 FL1     -1.025700
      5 C1         -4.9700    1.9220   16.0970 ca        1 FL1     -0.399500
      6 C2         -4.7340    3.2390   16.5120 ca        1 FL1     -0.016500
      7 C3         -4.5520    4.2610   15.5870 ca        1 FL1     -0.155500
      8 C4         -4.6090    3.9850   14.2140 ca        1 FL1     -0.005300
      9 C5         -4.8620    2.6750   13.7900 ca        1 FL1     -0.155500
     10 C6         -5.0390    1.6590   14.7240 ca        1 FL1     -0.016500
     11 C7         -4.4100    5.0790   13.2270 c3        1 FL1     -0.083100
     12 C29        -2.9260    5.4710   13.1700 c3        1 FL1      0.081000
     13 N2         -2.6270    6.5690   12.2940 n         1 FL1     -0.533900
     14 C8         -2.5820    7.8890   12.7720 c         1 FL1      0.584400
     15 S2         -2.6270    8.1640   14.3770 s         1 FL1     -0.607400
     16 N3         -2.4410    8.8570   11.8020 n         1 FL1     -0.405100
     17 C9         -2.3940   10.2620   11.9600 ca        1 FL1      0.038600
     18 C10        -2.0060   10.9110   13.1470 ca        1 FL1     -0.161000
     19 C11        -1.9480   12.2990   13.1780 ca        1 FL1     -0.109000
     20 C12        -2.2740   13.0800   12.0560 ca        1 FL1     -0.086000
     21 C13        -2.6620   12.4400   10.8710 ca        1 FL1     -0.066600
     22 C14        -2.7200   11.0460   10.8310 ca        1 FL1     -0.157000
     23 C15        -3.0450   13.1690    9.5770 c         1 FL1      0.908200
     24 O3         -2.1160   13.5580    8.8270 o         1 FL1     -0.804300
     25 O4         -4.2800   13.2850    9.3480 o         1 FL1     -0.804300
     26 C16        -2.1700   14.5360   12.1990 cc        1 FL1      0.165000
     27 C17         0.3020   14.4340   12.4460 cd        1 FL1     -0.022200
     28 C18         1.4700   15.0480   12.7160 cc        1 FL1     -0.265200
     29 C19         1.5460   16.4770   13.0490 c         1 FL1      0.580500
     30 C20         0.2800   17.2020   13.0450 cc        1 FL1     -0.330200
     31 C21        -4.3440   17.5910   12.5350 ca        1 FL1     -0.332300
     32 C22        -5.5940   17.0580   12.2140 ca        1 FL1      0.168100
     33 C23        -5.7440   15.7050   11.8500 ca        1 FL1     -0.187000
     34 C24        -4.6320   14.8790   11.8220 ca        1 FL1      0.003000
     35 C25        -3.3550   15.3650   12.1720 ca        1 FL1     -0.216300
     36 C26        -3.2330   16.7320   12.4960 ca        1 FL1      0.397000
     37 C27        -0.9630   15.1390   12.4600 cd        1 FL1     -0.232100
     38 C28        -0.8840   16.5560   12.7610 cd        1 FL1      0.342700
     39 O5         -2.0320   17.3380   12.8120 os        1 FL1     -0.397800
     40 O6          2.6270   17.0340   13.3220 o         1 FL1     -0.596100
     41 O7         -6.7390   17.8200   12.2380 oh        1 FL1     -0.499100
     42 HN11       -3.1590    0.6370   18.3120 hn        1 FL1      0.445300
     43 HN12       -3.1910   -0.4520   17.0780 hn        1 FL1      0.445300
     44 H2         -4.7100    3.4690   17.5920 ha        1 FL1      0.150000
     45 H3         -4.3630    5.2930   15.9270 ha        1 FL1      0.150000
     46 H5         -4.9240    2.4480   12.7150 ha        1 FL1      0.150000
     47 H6         -5.2530    0.6310   14.3830 ha        1 FL1      0.150000
     48 H71        -5.0230    5.9700   13.5350 hc        1 FL1      0.063700
     49 H72        -4.7630    4.7580   12.2120 hc        1 FL1      0.063700
     50 H291       -2.3310    4.5870   12.8010 h1        1 FL1      0.080200
     51 H292       -2.5790    5.7330   14.2160 h1        1 FL1      0.080200
     52 HN2        -2.8190    6.4050   11.3300 hn        1 FL1      0.292500
     53 HN3        -2.4510    8.5770   10.8400 hn        1 FL1      0.311500
     54 H10        -1.7590   10.3320   14.0540 ha        1 FL1      0.176000
     55 H11        -1.6380   12.7960   14.1110 ha        1 FL1      0.131000
     56 H14        -3.0330   10.5790    9.8830 ha        1 FL1      0.142000
     57 H17         0.2640   13.3630   12.1830 ha        1 FL1      0.149000
     58 H18         2.4270   14.5060   12.6900 ha        1 FL1      0.140000
     59 H20         0.3020   18.2750   13.2750 ha        1 FL1      0.153000
     60 H21        -4.2120   18.6480   12.7970 ha        1 FL1      0.146000
     61 H23        -6.7350   15.3270   11.5650 ha        1 FL1      0.157000
     62 H24        -4.7320   13.8340   11.4640 ha        1 FL1      0.202000
     63 HO7        -6.4840   18.7330   12.4350 ho        1 FL1      0.415000
@<TRIPOS>BOND
     1    1    2 2   
     2    1    3 2   
     3    1    4 1   
     4    1    5 1   
     5    4   42 1   
     6    4   43 1   
     7    5    6 ar  
     8    5   10 ar  
     9    6    7 ar  
    10    6   44 1   
    11    7    8 ar  
    12    7   45 1   
    13    8    9 ar  
    14    8   11 1   
    15    9   10 ar  
    16    9   46 1   
    17   10   47 1   
    18   11   12 1   
    19   11   48 1   
    20   11   49 1   
    21   12   13 1   
    22   12   50 1   
    23   12   51 1   
    24   13   14 1   
    25   13   52 1   
    26   14   15 2   
    27   14   16 1   
    28   16   17 1   
    29   16   53 1   
    30   17   18 ar  
    31   17   22 ar  
    32   18   19 ar  
    33   18   54 1   
    34   19   20 ar  
    35   19   55 1   
    36   20   21 ar  
    37   20   26 1   
    38   21   22 ar  
    39   21   23 1   
    40   22   56 1   
    41   23   24 1   
    42   23   25 1   
    43   26   35 1   
    44   26   37 2   
    45   27   28 2   
    46   27   37 1   
    47   27   57 1   
    48   28   29 1   
    49   28   58 1   
    50   29   30 1   
    51   29   40 2   
    52   30   38 2   
    53   30   59 1   
    54   31   32 ar  
    55   31   36 ar  
    56   31   60 1   
    57   32   33 ar  
    58   32   41 1   
    59   33   34 ar  
    60   33   61 1   
    61   34   35 ar  
    62   34   62 1   
    63   35   36 ar  
    64   36   39 1   
    65   37   38 1   
    66   38   39 1   
    67   41   63 1   
@<TRIPOS>SUBSTRUCTURE
     1 FL1         1 TEMP              0 ****  ****    0 ROOT
