@<TRIPOS>MOLECULE
FL1
   63    53     1     0     0
SMALL
bcc


@<TRIPOS>ATOM
      1 S1         -6.1430   -4.6840   -5.7620 ss        1 FL1      2.868000
      2 O1         -6.7310   -3.3740   -5.8280 o         1 FL1     -0.942500
      3 O2         -5.6880   -4.8540   -7.1100 o         1 FL1     -0.942500
      4 N1         -7.2590   -5.8180   -5.3640 n2        1 FL1     -0.952000
      5 C1         -4.7860   -4.7250   -4.6130 c1        1 FL1     -0.846000
      6 C2         -4.8370   -3.9630   -3.4490 c1        1 FL1     -0.018000
      7 C3         -3.7960   -4.0330   -2.5220 c1        1 FL1     -0.162000
      8 C4         -2.7070   -4.8650   -2.7600 c1        1 FL1      0.005000
      9 C5         -2.6560   -5.6280   -3.9260 c1        1 FL1     -0.152000
     10 C6         -3.6970   -5.5570   -4.8520 c2        1 FL1     -0.015000
     11 C7         -1.6180   -5.0450   -1.6690 c3        1 FL1     -0.171000
     12 C29        -0.6870   -3.8130   -1.6590 c3        1 FL1     -0.030000
     13 N2         -0.2240   -3.5670   -0.3040 n         1 FL1     -0.342000
     14 C8          0.7110   -2.4820   -0.0390 c2        1 FL1      0.164000
     15 S2          1.5830   -1.8070   -1.2900 s         1 FL1     -0.325000
     16 N3          0.8750   -1.9870    1.3010 n         1 FL1     -0.256000
     17 C9          1.3130   -0.6350    1.5200 c2        1 FL1      0.040000
     18 C10         2.6680   -0.3200    1.4420 c2        1 FL1     -0.161000
     19 C11         3.0980    0.9770    1.7100 c1        1 FL1     -0.113000
     20 C12         2.1780    1.9560    2.0560 c1        1 FL1     -0.079000
     21 C13         0.8230    1.6420    2.1330 c1        1 FL1     -0.047000
     22 C14         0.3920    0.3440    1.8650 c1        1 FL1     -0.157000
     23 C15        -0.1840    2.7160    2.4870 c2        1 FL1      0.358000
     24 O3         -0.3370    3.7150    1.7240 o         1 FL1     -0.539000
     25 O4         -0.9430    2.5630    3.4830 o         1 FL1     -0.539000
     26 C16         2.6180    3.2760    2.3370 c1        1 FL1      0.125000
     27 C17         2.5830    2.7090    4.7090 c1        1 FL1     -0.028000
     28 C18         2.6950    3.0950    6.0430 c1        1 FL1     -0.269500
     29 C19         2.9650    4.4290    6.3650 c1        1 FL1      0.216000
     30 C20         3.1220    5.3700    5.3530 c1        1 FL1     -0.269500
     31 C21         3.1730    6.5020    0.6180 c1        1 FL1     -0.104500
     32 C22         3.0440    6.1210   -0.7160 c1        1 FL1      0.110000
     33 C23         2.7750    4.7920   -1.0400 c1        1 FL1     -0.246000
     34 C24         2.6350    3.8430   -0.0270 c1        1 FL1     -0.104500
     35 C25         2.7650    4.2260    1.3210 c1        1 FL1     -0.004500
     36 C26         3.0320    5.5430    1.6410 c1        1 FL1     -0.004500
     37 C27         2.7420    3.6630    3.6830 c1        1 FL1     -0.111000
     38 C28         3.0080    4.9800    4.0000 c1        1 FL1      0.216000
     39 O5          3.1550    5.9280    2.9840 o         1 FL1     -0.244500
     40 O6          2.9540    4.7870    7.5340 o         1 FL1     -0.244500
     41 O7          3.3300    7.1520   -1.6370 oh        1 FL1     -0.255000
     42 HN11       -8.1240   -5.5690   -5.1940 hn        1 FL1      0.240500
     43 HN12       -7.0260   -6.7000   -5.3450 hn        1 FL1      0.240500
     44 H2         -5.5970   -3.3830   -3.2830 ha        1 FL1      0.150000
     45 H3         -3.8600   -3.5460   -1.6820 ha        1 FL1      0.138000
     46 H5         -1.8970   -6.2080   -4.0930 ha        1 FL1      0.164000
     47 H6         -3.6610   -6.0940   -5.6720 ha        1 FL1      0.149000
     48 H71        -2.0490   -5.1370   -0.7890 hc        1 FL1      0.106000
     49 H72        -1.0920   -5.8520   -1.8610 hc        1 FL1      0.106000
     50 H291       -1.1750   -3.0370   -1.9820 h1        1 FL1      0.117000
     51 H292        0.0860   -3.9820   -2.2450 h1        1 FL1      0.117000
     52 HN2        -0.5030   -4.1030    0.3760 hn        1 FL1      0.206000
     53 HN3         0.7180   -2.5380    2.0150 hn        1 FL1      0.224000
     54 H10         3.3160   -1.0100    1.1990 ha        1 FL1      0.176000
     55 H11         4.0430    1.1960    1.6560 ha        1 FL1      0.128000
     56 H14        -0.5560    0.1240    1.9190 ha        1 FL1      0.141000
     57 H17         2.3950    1.7830    4.4860 ha        1 FL1      0.192000
     58 H18         2.6580    2.4240    6.7470 ha        1 FL1      0.149500
     59 H20         3.3120    6.3110    5.5800 ha        1 FL1      0.149500
     60 H21         3.3620    7.4340    0.8440 ha        1 FL1      0.163500
     61 H23         2.6140    4.5400   -1.9730 ha        1 FL1      0.133000
     62 H24         2.4480    2.9180   -0.2530 ha        1 FL1      0.163500
     63 HO7         2.6410    7.2560   -2.1910 ho        1 FL1      0.216000
@<TRIPOS>BOND
     1    1    2 1   
     2    1    3 1   
     3    4   42 1   
     4    4   43 1   
     5    5    6 1   
     6    5   10 1   
     7    6   44 1   
     8    7    8 1   
     9    7   45 1   
    10    8   11 1   
    11    9   10 1   
    12    9   46 1   
    13   10   47 1   
    14   11   12 1   
    15   11   48 1   
    16   11   49 1   
    17   12   13 1   
    18   12   50 1   
    19   12   51 1   
    20   13   14 1   
    21   13   52 1   
    22   14   15 1   
    23   14   16 1   
    24   16   17 1   
    25   16   53 1   
    26   17   18 1   
    27   17   22 1   
    28   18   19 1   
    29   18   54 1   
    30   19   55 1   
    31   20   21 1   
    32   21   23 1   
    33   22   56 1   
    34   23   24 1   
    35   23   25 1   
    36   26   37 1   
    37   27   37 1   
    38   27   57 1   
    39   28   29 1   
    40   28   58 1   
    41   29   40 1   
    42   30   38 1   
    43   30   59 1   
    44   31   36 1   
    45   31   60 1   
    46   32   33 1   
    47   32   41 1   
    48   33   61 1   
    49   34   35 1   
    50   34   62 1   
    51   35   36 1   
    52   38   39 1   
    53   41   63 1   
@<TRIPOS>SUBSTRUCTURE
     1 FL1         1 TEMP              0 ****  ****    0 ROOT
