@<TRIPOS>MOLECULE
FL1
   65    69     1     0     0
SMALL
bcc


@<TRIPOS>ATOM
      1 S1         -3.7360    5.9730   -1.0210 sy        1 FL1      1.527200
      2 O1         -3.0600    5.8240    0.2000 o         1 FL1     -0.649800
      3 O2         -4.0400    7.2810   -1.4560 o         1 FL1     -0.649800
      4 N1         -5.0320    5.0610   -1.0770 n8        1 FL1     -1.029700
      5 C1         -2.7180    5.2960   -2.2360 ca        1 FL1     -0.339500
      6 C2         -1.4670    4.7820   -1.8830 ca        1 FL1     -0.013500
      7 C3         -0.6030    4.2740   -2.8540 ca        1 FL1     -0.165000
      8 C4         -0.9890    4.2580   -4.1980 ca        1 FL1     -0.089300
      9 C5         -2.2490    4.7570   -4.5570 ca        1 FL1     -0.165000
     10 C6         -3.0990    5.2720   -3.5810 ca        1 FL1     -0.013500
     11 C7         -0.0830    3.6780   -5.2250 c3        1 FL1     -0.072100
     12 C29         0.8520    4.7160   -5.8390 c3        1 FL1      0.096800
     13 N2          0.1570    5.6990   -6.7230 ny        1 FL1     -0.650800
     14 C8          0.2920    7.1750   -6.2900 c         1 FL1      0.304400
     15 S2          1.0890    8.0370   -7.3190 s         1 FL1     -0.192400
     16 N3         -0.2930    7.4550   -5.0940 ns        1 FL1     -0.352100
     17 C9         -0.5560    8.7620   -4.6060 ca        1 FL1     -0.015400
     18 C10         0.1900    9.8980   -4.9760 ca        1 FL1     -0.110000
     19 C11        -0.1340   11.1400   -4.4400 ca        1 FL1     -0.100000
     20 C12        -1.1930   11.2960   -3.5330 ca        1 FL1      0.029000
     21 C13        -1.9270   10.1600   -3.1610 ca        1 FL1     -0.065600
     22 C14        -1.6120    8.9030   -3.6790 ca        1 FL1     -0.104000
     23 C15        -3.0810   10.2110   -2.2320 c         1 FL1      0.647700
     24 O3         -4.1720   10.7550   -2.3980 o         1 FL1     -0.502000
     25 O4         -2.8660    9.5110   -1.0870 oh        1 FL1     -0.588100
     26 C16        -1.4870   12.6350   -3.0050 cc        1 FL1      0.026000
     27 C17        -2.7580   13.2960   -5.0380 cd        1 FL1     -0.081200
     28 C18        -3.4530   14.2250   -5.7150 cc        1 FL1     -0.198200
     29 C19        -3.6920   15.5780   -5.1730 c         1 FL1      0.562500
     30 C20        -3.1360   15.8430   -3.8440 cc        1 FL1     -0.271200
     31 C21        -0.7750   14.7340    0.0320 ca        1 FL1     -0.309300
     32 C22        -0.0390   13.8370    0.8080 ca        1 FL1      0.187100
     33 C23         0.2350   12.5260    0.3510 ca        1 FL1     -0.177000
     34 C24        -0.2340   12.1280   -0.8850 ca        1 FL1     -0.047000
     35 C25        -0.9780   13.0010   -1.7020 ca        1 FL1     -0.226300
     36 C26        -1.2380   14.3010   -1.2210 ca        1 FL1      0.408000
     37 C27        -2.1960   13.5530   -3.7240 cd        1 FL1     -0.138100
     38 C28        -2.4420   14.8850   -3.1820 cd        1 FL1      0.303700
     39 O5         -1.9550   15.2450   -1.9290 os        1 FL1     -0.380800
     40 O6         -4.3230   16.4310   -5.8110 o         1 FL1     -0.514100
     41 O7          0.4580   14.1600    2.0410 oh        1 FL1     -0.480100
     42 HN11       -5.1430    4.2260   -0.5530 hn        1 FL1      0.464300
     43 HN12       -5.8510    5.2960   -1.5830 hn        1 FL1      0.464300
     44 H2         -1.1590    4.7800   -0.8180 ha        1 FL1      0.172000
     45 H3          0.3760    3.8670   -2.5530 ha        1 FL1      0.145000
     46 H5         -2.5970    4.6960   -5.5990 ha        1 FL1      0.145000
     47 H6         -4.0880    5.6650   -3.8770 ha        1 FL1      0.172000
     48 H71        -0.6820    3.1590   -6.0230 hc        1 FL1      0.097200
     49 H72         0.5740    2.8920   -4.7530 hc        1 FL1      0.097200
     50 H291        1.3920    5.2740   -5.0210 hx        1 FL1      0.113200
     51 H292        1.6280    4.1830   -6.4640 hx        1 FL1      0.113200
     52 HN2        -0.8360    5.4450   -6.7930 hn        1 FL1      0.459800
     53 HN3        -0.7280    6.7190   -4.5590 hn        1 FL1      0.348500
     54 H10         1.0310    9.8260   -5.6890 ha        1 FL1      0.174000
     55 H11         0.4580   12.0240   -4.7370 ha        1 FL1      0.173000
     56 H14        -2.2090    8.0370   -3.3370 ha        1 FL1      0.164000
     57 H17        -2.5960   12.2880   -5.4550 ha        1 FL1      0.130000
     58 H18        -3.8830   14.0230   -6.7100 ha        1 FL1      0.157000
     59 H20        -3.3070   16.8410   -3.4120 ha        1 FL1      0.177000
     60 H21        -0.9980   15.7540    0.3750 ha        1 FL1      0.168000
     61 H23         0.8140   11.8470    0.9930 ha        1 FL1      0.163000
     62 H24        -0.0330   11.1040   -1.2400 ha        1 FL1      0.139000
     63 HO7         0.2010   15.0720    2.2490 ho        1 FL1      0.435000
     64 H13        -3.7100    9.3990   -0.6120 ho        1 FL1      0.470000
     65 H22         0.5740    5.6680   -7.6730 hn        1 FL1      0.459800
@<TRIPOS>BOND
     1    1    2 2   
     2    1    3 2   
     3    1    4 1   
     4    1    5 1   
     5    4   42 1   
     6    4   43 1   
     7    5    6 ar  
     8    5   10 ar  
     9    6    7 ar  
    10    6   44 1   
    11    7    8 ar  
    12    7   45 1   
    13    8    9 ar  
    14    8   11 1   
    15    9   10 ar  
    16    9   46 1   
    17   10   47 1   
    18   11   12 1   
    19   11   48 1   
    20   11   49 1   
    21   12   13 1   
    22   12   50 1   
    23   12   51 1   
    24   13   14 1   
    25   13   52 1   
    26   13   65 1   
    27   14   15 2   
    28   14   16 1   
    29   16   17 1   
    30   16   53 1   
    31   17   18 ar  
    32   17   22 ar  
    33   18   19 ar  
    34   18   54 1   
    35   19   20 ar  
    36   19   55 1   
    37   20   21 ar  
    38   20   26 1   
    39   21   22 ar  
    40   21   23 1   
    41   22   56 1   
    42   23   24 2   
    43   23   25 1   
    44   25   64 1   
    45   26   35 1   
    46   26   37 2   
    47   27   28 2   
    48   27   37 1   
    49   27   57 1   
    50   28   29 1   
    51   28   58 1   
    52   29   30 1   
    53   29   40 2   
    54   30   38 2   
    55   30   59 1   
    56   31   32 ar  
    57   31   36 ar  
    58   31   60 1   
    59   32   33 ar  
    60   32   41 1   
    61   33   34 ar  
    62   33   61 1   
    63   34   35 ar  
    64   34   62 1   
    65   35   36 ar  
    66   36   39 1   
    67   37   38 1   
    68   38   39 1   
    69   41   63 1   
@<TRIPOS>SUBSTRUCTURE
     1 FL1         1 TEMP              0 ****  ****    0 ROOT
