@<TRIPOS>MOLECULE
FL1
   63    67     1     0     0
SMALL
bcc


@<TRIPOS>ATOM
      1 S1          0.5750   -0.1920   -0.6420 sy        1 FL1      1.529200
      2 O1          1.4520    0.1830    0.3990 o         1 FL1     -0.662800
      3 O2         -0.3470   -1.2280   -0.3700 o         1 FL1     -0.662800
      4 N1          1.4420   -0.5920   -1.9310 n3        1 FL1     -1.025700
      5 C1         -0.2760    1.1650   -1.1580 ca        1 FL1     -0.399500
      6 C2          0.3010    2.4410   -1.0990 ca        1 FL1     -0.016500
      7 C3         -0.3970    3.5650   -1.5260 ca        1 FL1     -0.155500
      8 C4         -1.7030    3.4360   -2.0190 ca        1 FL1     -0.005300
      9 C5         -2.2960    2.1680   -2.0650 ca        1 FL1     -0.155500
     10 C6         -1.5860    1.0500   -1.6390 ca        1 FL1     -0.016500
     11 C7         -2.4460    4.6400   -2.4780 c3        1 FL1     -0.083100
     12 C29        -1.8950    5.1130   -3.8320 c3        1 FL1      0.081000
     13 N2         -2.4970    6.3130   -4.3400 n         1 FL1     -0.533900
     14 C8         -1.9340    7.5730   -4.0820 c         1 FL1      0.584400
     15 S2         -0.4550    7.6710   -3.4080 s         1 FL1     -0.607400
     16 N3         -2.6950    8.6460   -4.4930 n         1 FL1     -0.405100
     17 C9         -2.4190   10.0270   -4.3500 ca        1 FL1      0.038600
     18 C10        -1.1260   10.5640   -4.2000 ca        1 FL1     -0.161000
     19 C11        -0.9650   11.9410   -4.1170 ca        1 FL1     -0.109000
     20 C12        -2.0590   12.8200   -4.1720 ca        1 FL1     -0.086000
     21 C13        -3.3490   12.2930   -4.3210 ca        1 FL1     -0.066600
     22 C14        -3.5200   10.9110   -4.4080 ca        1 FL1     -0.157000
     23 C15        -4.6270   13.1370   -4.3940 c         1 FL1      0.908200
     24 O3         -4.9280   13.6520   -5.4990 o         1 FL1     -0.804300
     25 O4         -5.3060   13.2130   -3.3320 o         1 FL1     -0.804300
     26 C16        -1.7710   14.2560   -4.0840 cc        1 FL1      0.165000
     27 C17        -0.5990   14.2570   -6.2770 cd        1 FL1     -0.022200
     28 C18         0.1490   14.8980   -7.1960 cc        1 FL1     -0.265200
     29 C19         0.5990   16.2840   -7.0110 c         1 FL1      0.580500
     30 C20         0.1650   16.9380   -5.7820 cc        1 FL1     -0.330200
     31 C21        -2.0570   17.1400   -1.6810 ca        1 FL1     -0.332300
     32 C22        -2.8760   16.5800   -0.6980 ca        1 FL1      0.168100
     33 C23        -3.3770   15.2690   -0.8200 ca        1 FL1     -0.187000
     34 C24        -3.0400   14.5100   -1.9280 ca        1 FL1      0.003000
     35 C25        -2.1870   15.0200   -2.9280 ca        1 FL1     -0.216300
     36 C26        -1.7330   16.3490   -2.7960 ca        1 FL1      0.397000
     37 C27        -1.0180   14.8890   -5.0430 cd        1 FL1     -0.232100
     38 C28        -0.5970   16.2680   -4.8750 cd        1 FL1      0.342700
     39 O5         -0.9300   16.9790   -3.7280 os        1 FL1     -0.397800
     40 O6          1.3110   16.8640   -7.8530 o         1 FL1     -0.596100
     41 O7         -3.2350   17.2750    0.4330 oh        1 FL1     -0.499100
     42 HN11        2.3550   -0.2550   -2.1010 hn        1 FL1      0.445300
     43 HN12        1.1220   -1.2040   -2.6380 hn        1 FL1      0.445300
     44 H2          1.3210    2.5530   -0.6920 ha        1 FL1      0.150000
     45 H3          0.0700    4.5620   -1.4780 ha        1 FL1      0.150000
     46 H5         -3.3260    2.0560   -2.4350 ha        1 FL1      0.150000
     47 H6         -2.0650    0.0540   -1.6630 ha        1 FL1      0.150000
     48 H71        -3.5410    4.4120   -2.5660 hc        1 FL1      0.063700
     49 H72        -2.3290    5.4590   -1.7170 hc        1 FL1      0.063700
     50 H291       -2.0750    4.3060   -4.5980 h1        1 FL1      0.080200
     51 H292       -0.7790    5.2770   -3.7310 h1        1 FL1      0.080200
     52 HN2        -3.4700    6.2450   -4.5430 hn        1 FL1      0.292500
     53 HN3        -3.6050    8.4730   -4.8730 hn        1 FL1      0.311500
     54 H10        -0.2440    9.9030   -4.1350 ha        1 FL1      0.176000
     55 H11         0.0520   12.3490   -4.0050 ha        1 FL1      0.131000
     56 H14        -4.5500   10.5340   -4.5200 ha        1 FL1      0.142000
     57 H17        -0.9400   13.2200   -6.4370 ha        1 FL1      0.149000
     58 H18         0.4510   14.4110   -8.1350 ha        1 FL1      0.140000
     59 H20         0.4710   17.9800   -5.6190 ha        1 FL1      0.153000
     60 H21        -1.6810   18.1670   -1.6090 ha        1 FL1      0.146000
     61 H23        -4.0520   14.8730   -0.0480 ha        1 FL1      0.157000
     62 H24        -3.4910   13.5050   -2.0640 ha        1 FL1      0.202000
     63 HO7        -2.8830   18.1740    0.3540 ho        1 FL1      0.415000
@<TRIPOS>BOND
     1    1    2 2   
     2    1    3 2   
     3    1    4 1   
     4    1    5 1   
     5    4   42 1   
     6    4   43 1   
     7    5    6 ar  
     8    5   10 ar  
     9    6    7 ar  
    10    6   44 1   
    11    7    8 ar  
    12    7   45 1   
    13    8    9 ar  
    14    8   11 1   
    15    9   10 ar  
    16    9   46 1   
    17   10   47 1   
    18   11   12 1   
    19   11   48 1   
    20   11   49 1   
    21   12   13 1   
    22   12   50 1   
    23   12   51 1   
    24   13   14 1   
    25   13   52 1   
    26   14   15 2   
    27   14   16 1   
    28   16   17 1   
    29   16   53 1   
    30   17   18 ar  
    31   17   22 ar  
    32   18   19 ar  
    33   18   54 1   
    34   19   20 ar  
    35   19   55 1   
    36   20   21 ar  
    37   20   26 1   
    38   21   22 ar  
    39   21   23 1   
    40   22   56 1   
    41   23   24 1   
    42   23   25 1   
    43   26   35 1   
    44   26   37 2   
    45   27   28 2   
    46   27   37 1   
    47   27   57 1   
    48   28   29 1   
    49   28   58 1   
    50   29   30 1   
    51   29   40 2   
    52   30   38 2   
    53   30   59 1   
    54   31   32 ar  
    55   31   36 ar  
    56   31   60 1   
    57   32   33 ar  
    58   32   41 1   
    59   33   34 ar  
    60   33   61 1   
    61   34   35 ar  
    62   34   62 1   
    63   35   36 ar  
    64   36   39 1   
    65   37   38 1   
    66   38   39 1   
    67   41   63 1   
@<TRIPOS>SUBSTRUCTURE
     1 FL1         1 TEMP              0 ****  ****    0 ROOT
