@<TRIPOS>MOLECULE
FL2
   34    35     1     0     0
SMALL
bcc


@<TRIPOS>ATOM
      1 C          -0.5510    0.5780   -4.9550 ca        1 FL2     -0.131500
      2 C1         -0.7730    0.4950   -3.5810 ca        1 FL2     -0.110500
      3 C2          0.1530   -0.1530   -2.7530 cp        1 FL2     -0.044000
      4 C3          1.3070   -0.7110   -3.3230 ca        1 FL2     -0.110500
      5 C4          1.5270   -0.6220   -4.6960 ca        1 FL2     -0.131500
      6 C5          0.5980    0.0200   -5.5150 ca        1 FL2     -0.122000
      7 C6         -0.0780   -0.2710   -1.3150 cp        1 FL2     -0.059000
      8 C7          0.1580   -1.4970   -0.6760 ca        1 FL2     -0.102000
      9 C8         -0.0500   -1.6540    0.6900 ca        1 FL2     -0.133000
     10 C9         -0.5030   -0.5790    1.4620 ca        1 FL2     -0.065300
     11 C10        -0.7400    0.6540    0.8560 ca        1 FL2     -0.154000
     12 C11        -0.5320    0.8130   -0.5270 ca        1 FL2      0.136900
     13 C12        -0.7530   -0.7680    2.9260 c3        1 FL2     -0.060400
     14 C13        -2.2390   -0.7360    3.2390 c3        1 FL2     -0.091100
     15 C14        -0.0560    0.3070    3.7250 c         1 FL2      0.633100
     16 O          -0.3120    1.5100    3.8000 o         1 FL2     -0.538000
     17 O1          0.9840   -0.1800    4.4670 os        1 FL2     -0.437900
     18 F          -0.7690    2.0260   -1.0810 f         1 FL2     -0.133900
     19 C16         1.7110    0.7640    5.2550 c3        1 FL2      0.124700
     20 H          -1.2850    1.0880   -5.5960 ha        1 FL2      0.133500
     21 H1         -1.6750    0.9460   -3.1400 ha        1 FL2      0.137500
     22 H3          2.0460   -1.2130   -2.6800 ha        1 FL2      0.137500
     23 H4          2.4370   -1.0580   -5.1340 ha        1 FL2      0.133500
     24 H5          0.7720    0.0880   -6.5980 ha        1 FL2      0.132000
     25 H7          0.5100   -2.3510   -1.2760 ha        1 FL2      0.143000
     26 H8          0.1440   -2.6290    1.1620 ha        1 FL2      0.139000
     27 H10        -1.0790    1.5150    1.4580 ha        1 FL2      0.172000
     28 H12        -0.3320   -1.7650    3.2480 hc        1 FL2      0.087700
     29 H131       -2.6640    0.2680    2.9950 hc        1 FL2      0.052367
     30 H132       -2.7680   -1.5110    2.6340 hc        1 FL2      0.052367
     31 H133       -2.4090   -0.9450    4.3220 hc        1 FL2      0.052367
     32 H161        2.4970    0.1440    5.7530 h1        1 FL2      0.052033
     33 H162        2.1610    1.5440    4.5960 h1        1 FL2      0.052033
     34 H163        1.0300    1.2390    6.0020 h1        1 FL2      0.052033
@<TRIPOS>BOND
     1    1    2 ar  
     2    1    6 ar  
     3    1   20 1   
     4    2    3 ar  
     5    2   21 1   
     6    3    4 ar  
     7    3    7 1   
     8    4    5 ar  
     9    4   22 1   
    10    5    6 ar  
    11    5   23 1   
    12    6   24 1   
    13    7    8 ar  
    14    7   12 ar  
    15    8    9 ar  
    16    8   25 1   
    17    9   10 ar  
    18    9   26 1   
    19   10   11 ar  
    20   10   13 1   
    21   11   12 ar  
    22   11   27 1   
    23   12   18 1   
    24   13   14 1   
    25   13   15 1   
    26   13   28 1   
    27   14   29 1   
    28   14   30 1   
    29   14   31 1   
    30   15   16 2   
    31   15   17 1   
    32   17   19 1   
    33   19   32 1   
    34   19   33 1   
    35   19   34 1   
@<TRIPOS>SUBSTRUCTURE
     1 FL2         1 TEMP              0 ****  ****    0 ROOT
