@<TRIPOS>MOLECULE
FL2
   34    35     1     0     0
SMALL
bcc


@<TRIPOS>ATOM
      1 C          -0.0530   -0.2680    0.1890 ca        1 FL2     -0.131500
      2 C1          1.3370   -0.3350    0.1170 ca        1 FL2     -0.110500
      3 C2          2.1180   -0.0590    1.2470 cp        1 FL2     -0.044000
      4 C3          1.4820    0.2800    2.4510 ca        1 FL2     -0.110500
      5 C4          0.0920    0.3420    2.5190 ca        1 FL2     -0.131500
      6 C5         -0.6780    0.0710    1.3890 ca        1 FL2     -0.122000
      7 C6          3.5770   -0.0990    1.1810 cp        1 FL2     -0.059000
      8 C7          4.3240    0.9260    1.7780 ca        1 FL2     -0.102000
      9 C8          5.7140    0.9280    1.7380 ca        1 FL2     -0.133000
     10 C9          6.4020   -0.1060    1.0930 ca        1 FL2     -0.065300
     11 C10         5.6860   -1.1430    0.4960 ca        1 FL2     -0.154000
     12 C11         4.2790   -1.1440    0.5350 ca        1 FL2      0.136900
     13 C12         7.8980   -0.0780    1.0300 c3        1 FL2     -0.060400
     14 C13         8.3820    0.2060   -0.3820 c3        1 FL2     -0.091100
     15 C14         8.4730   -1.3950    1.4940 c         1 FL2      0.633100
     16 O           8.4340   -2.4980    0.9460 o         1 FL2     -0.538000
     17 O1          9.1350   -1.2870    2.6860 os        1 FL2     -0.437900
     18 F           3.6180   -2.1700   -0.0530 f         1 FL2     -0.133900
     19 C16         9.7110   -2.4840    3.2120 c3        1 FL2      0.124700
     20 H          -0.6570   -0.4850   -0.7050 ha        1 FL2      0.133500
     21 H1          1.8270   -0.6140   -0.8290 ha        1 FL2      0.137500
     22 H3          2.0860    0.4900    3.3470 ha        1 FL2      0.137500
     23 H4         -0.3970    0.6040    3.4690 ha        1 FL2      0.133500
     24 H5         -1.7750    0.1220    1.4440 ha        1 FL2      0.132000
     25 H7          3.7930    1.7480    2.2840 ha        1 FL2      0.143000
     26 H8          6.2720    1.7480    2.2150 ha        1 FL2      0.139000
     27 H10         6.2180   -1.9740    0.0030 ha        1 FL2      0.172000
     28 H12         8.2820    0.7300    1.7190 hc        1 FL2      0.087700
     29 H131        8.0740   -0.6180   -1.0700 hc        1 FL2      0.052367
     30 H132        9.4950    0.2890   -0.3970 hc        1 FL2      0.052367
     31 H133        7.9430    1.1650   -0.7460 hc        1 FL2      0.052367
     32 H161       10.4730   -2.8840    2.5000 h1        1 FL2      0.052033
     33 H162       10.1800   -2.1520    4.1710 h1        1 FL2      0.052033
     34 H163        8.9140   -3.2450    3.3870 h1        1 FL2      0.052033
@<TRIPOS>BOND
     1    1    2 ar  
     2    1    6 ar  
     3    1   20 1   
     4    2    3 ar  
     5    2   21 1   
     6    3    4 ar  
     7    3    7 1   
     8    4    5 ar  
     9    4   22 1   
    10    5    6 ar  
    11    5   23 1   
    12    6   24 1   
    13    7    8 ar  
    14    7   12 ar  
    15    8    9 ar  
    16    8   25 1   
    17    9   10 ar  
    18    9   26 1   
    19   10   11 ar  
    20   10   13 1   
    21   11   12 ar  
    22   11   27 1   
    23   12   18 1   
    24   13   14 1   
    25   13   15 1   
    26   13   28 1   
    27   14   29 1   
    28   14   30 1   
    29   14   31 1   
    30   15   16 2   
    31   15   17 1   
    32   17   19 1   
    33   19   32 1   
    34   19   33 1   
    35   19   34 1   
@<TRIPOS>SUBSTRUCTURE
     1 FL2         1 TEMP              0 ****  ****    0 ROOT
