@<TRIPOS>MOLECULE
FL2
   34    35     1     0     0
SMALL
bcc


@<TRIPOS>ATOM
      1 C          -0.0540   -0.2650    0.1930 ca        1 FL2     -0.131500
      2 C1          1.3360   -0.3380    0.1190 ca        1 FL2     -0.110500
      3 C2          2.1190   -0.0490    1.2460 cp        1 FL2     -0.044000
      4 C3          1.4870    0.3080    2.4460 ca        1 FL2     -0.110500
      5 C4          0.0970    0.3750    2.5150 ca        1 FL2     -0.131500
      6 C5         -0.6760    0.0920    1.3890 ca        1 FL2     -0.122000
      7 C6          3.5790   -0.0960    1.1780 cp        1 FL2     -0.059000
      8 C7          4.3300    0.9350    1.7610 ca        1 FL2     -0.102000
      9 C8          5.7200    0.9310    1.7190 ca        1 FL2     -0.133000
     10 C9          6.4030   -0.1140    1.0870 ca        1 FL2     -0.065300
     11 C10         5.6830   -1.1560    0.5040 ca        1 FL2     -0.154000
     12 C11         4.2760   -1.1510    0.5450 ca        1 FL2      0.136900
     13 C12         7.8990   -0.0920    1.0210 c3        1 FL2     -0.060400
     14 C13         8.3820    0.1720   -0.3940 c3        1 FL2     -0.091100
     15 C14         8.4690   -1.4050    1.5020 c         1 FL2      0.633100
     16 O           8.4260   -2.5140    0.9680 o         1 FL2     -0.538000
     17 O1          9.1340   -1.2840    2.6920 os        1 FL2     -0.437900
     18 F           3.6100   -2.1820   -0.0290 f         1 FL2     -0.133900
     19 C16         9.7060   -2.4750    3.2330 c3        1 FL2      0.124700
     20 H          -0.6600   -0.4920   -0.6970 ha        1 FL2      0.133500
     21 H1          1.8240   -0.6300   -0.8230 ha        1 FL2      0.137500
     22 H3          2.0920    0.5270    3.3380 ha        1 FL2      0.137500
     23 H4         -0.3900    0.6510    3.4620 ha        1 FL2      0.133500
     24 H5         -1.7730    0.1470    1.4450 ha        1 FL2      0.132000
     25 H7          3.8020    1.7650    2.2560 ha        1 FL2      0.143000
     26 H8          6.2810    1.7550    2.1850 ha        1 FL2      0.139000
     27 H10         6.2110   -1.9950    0.0210 ha        1 FL2      0.172000
     28 H12         8.2870    0.7240    1.6990 hc        1 FL2      0.087700
     29 H131        8.0700   -0.6600   -1.0710 hc        1 FL2      0.052367
     30 H132        9.4960    0.2520   -0.4110 hc        1 FL2      0.052367
     31 H133        7.9460    1.1280   -0.7700 hc        1 FL2      0.052367
     32 H161       10.1780   -2.1330    4.1870 h1        1 FL2      0.052033
     33 H162        8.9060   -3.2310    3.4190 h1        1 FL2      0.052033
     34 H163       10.4650   -2.8880    2.5250 h1        1 FL2      0.052033
@<TRIPOS>BOND
     1    1    2 ar  
     2    1    6 ar  
     3    1   20 1   
     4    2    3 ar  
     5    2   21 1   
     6    3    4 ar  
     7    3    7 1   
     8    4    5 ar  
     9    4   22 1   
    10    5    6 ar  
    11    5   23 1   
    12    6   24 1   
    13    7    8 ar  
    14    7   12 ar  
    15    8    9 ar  
    16    8   25 1   
    17    9   10 ar  
    18    9   26 1   
    19   10   11 ar  
    20   10   13 1   
    21   11   12 ar  
    22   11   27 1   
    23   12   18 1   
    24   13   14 1   
    25   13   15 1   
    26   13   28 1   
    27   14   29 1   
    28   14   30 1   
    29   14   31 1   
    30   15   16 2   
    31   15   17 1   
    32   17   19 1   
    33   19   32 1   
    34   19   33 1   
    35   19   34 1   
@<TRIPOS>SUBSTRUCTURE
     1 FL2         1 TEMP              0 ****  ****    0 ROOT
