@<TRIPOS>MOLECULE
FL2
   34    28     1     0     0
SMALL
bcc


@<TRIPOS>ATOM
      1 C          -5.0060    0.9320   -1.2070 c1        1 FL2     -0.122500
      2 C1         -3.6140    0.9420   -1.1970 c1        1 FL2     -0.109000
      3 C2         -2.9240    0.2990   -0.1850 c1        1 FL2     -0.051500
      4 C3         -3.6170   -0.3540    0.8190 c1        1 FL2     -0.122500
      5 C4         -5.0080   -0.3660    0.8110 c1        1 FL2     -0.122500
      6 C5         -5.7010    0.2770   -0.2020 c1        1 FL2     -0.122500
      7 C6         -1.4590    0.3010   -0.1810 c1        1 FL2     -0.051500
      8 C7         -0.7560    1.4150    0.3340 c1        1 FL2     -0.109000
      9 C8          0.6360    1.4430    0.2890 c1        1 FL2     -0.133000
     10 C9          1.3390    0.3700   -0.2660 c1        1 FL2     -0.058000
     11 C10         0.6430   -0.7350   -0.7790 c1        1 FL2     -0.154000
     12 C11        -0.7630   -0.7630   -0.7330 c1        1 FL2      0.102000
     13 C12         2.8300    0.4000   -0.3170 c3        1 FL2     -0.057000
     14 C13         3.2900    0.1030   -1.7410 c3        1 FL2     -0.209000
     15 C14         3.3960   -0.6520    0.6380 c2        1 FL2      0.305000
     16 O           2.6680   -1.4800    1.1180 o         1 FL2     -0.349000
     17 O1          4.7550   -0.5720    1.0540 os        1 FL2     -0.276000
     18 F          -1.4380   -1.7890   -1.3050 f         1 FL2     -0.099000
     19 C16         5.0360   -1.2620    2.2900 c3        1 FL2     -0.065000
     20 H          -5.4940    1.3890   -1.9260 ha        1 FL2      0.135250
     21 H1         -3.1250    1.4010   -1.9020 ha        1 FL2      0.138000
     22 H3         -3.1250   -0.8120    1.5390 ha        1 FL2      0.135250
     23 H4         -5.5020   -0.8330    1.5280 ha        1 FL2      0.135250
     24 H5         -6.6880    0.2680   -0.2070 ha        1 FL2      0.135250
     25 H7         -1.2540    2.1780    0.7280 ha        1 FL2      0.138000
     26 H8          1.1290    2.2270    0.6520 ha        1 FL2      0.139000
     27 H10         1.1390   -1.4920   -1.1710 ha        1 FL2      0.172000
     28 H12         3.1550    1.3050   -0.0440 hc        1 FL2      0.127000
     29 H131        3.3050   -0.8690   -1.8850 hc        1 FL2      0.092000
     30 H132        2.6570    0.5260   -2.3890 hc        1 FL2      0.092000
     31 H133        4.1880    0.4670   -1.8780 hc        1 FL2      0.092000
     32 H161        4.6990   -2.1940    2.2350 h1        1 FL2      0.091333
     33 H162        6.0150   -1.2740    2.4460 h1        1 FL2      0.091333
     34 H163        4.5910   -0.7950    3.0340 h1        1 FL2      0.091333
@<TRIPOS>BOND
     1    1    6 1   
     2    1   20 1   
     3    2    3 1   
     4    2   21 1   
     5    4    5 1   
     6    4   22 1   
     7    5   23 1   
     8    6   24 1   
     9    7    8 1   
    10    8   25 1   
    11    9   10 1   
    12    9   26 1   
    13   10   13 1   
    14   11   12 1   
    15   11   27 1   
    16   12   18 1   
    17   13   14 1   
    18   13   15 1   
    19   13   28 1   
    20   14   29 1   
    21   14   30 1   
    22   14   31 1   
    23   15   16 1   
    24   15   17 1   
    25   17   19 1   
    26   19   32 1   
    27   19   33 1   
    28   19   34 1   
@<TRIPOS>SUBSTRUCTURE
     1 FL2         1 TEMP              0 ****  ****    0 ROOT
