@<TRIPOS>MOLECULE
FL7
   51    50     1     0     0
SMALL
bcc


@<TRIPOS>ATOM
      1 C           0.0310   -0.7770   -0.8980 c2        1 FL7      0.351000
      2 N           1.7880    0.1210    0.6600 n3        1 FL7      0.084000
      3 O          -0.2980   -1.0370   -2.0620 o         1 FL7     -0.264000
      4 CL          1.3670   -5.5620    2.4850 cl        1 FL7      0.087000
      5 CA          1.1780   -0.0300   -0.5380 c2        1 FL7     -0.414000
      6 C13         1.5950   -0.5040    1.8150 c2        1 FL7      0.079000
      7 CAC         2.6990   -0.5750    6.8240 c2        1 FL7     -0.194000
      8 CAD         1.4450   -0.6140    6.3220 c2        1 FL7      0.017000
      9 CAE         2.3870   -0.1400    2.9230 c1        1 FL7     -0.239000
     10 CAJ         3.7870    0.1440    6.2140 c2        1 FL7     -0.031000
     11 CAK         3.9430    0.4680    4.9140 c2        1 FL7     -0.122000
     12 CAL         3.0860    0.1330    3.8630 c1        1 FL7      0.045000
     13 CAM        -1.5340   -2.7710    2.0300 c3        1 FL7     -0.193000
     14 CAN        -0.6280   -1.7930    1.2920 c2        1 FL7      0.164000
     15 NAO        -0.9410   -1.2810    0.1240 n         1 FL7     -0.121000
     16 CAP        -2.3310   -1.3640   -0.3740 c3        1 FL7     -0.095000
     17 CAQ        -3.3320   -0.5970    0.4700 c3        1 FL7     -0.251000
     18 NAR        -1.7140   -0.4630    4.7880 n2        1 FL7     -0.327000
     19 CAS        -6.7030   -1.5310   -0.5530 c2        1 FL7     -0.226000
     20 CAT        -6.4440   -0.5520   -1.4090 c2        1 FL7     -0.226000
     21 CAU        -0.8010   -4.0450    2.2550 c2        1 FL7     -0.050000
     22 CAV         0.6450   -1.6330    2.0810 c3        1 FL7     -0.143000
     23 CAW        -2.5550    0.4760    5.0180 c2        1 FL7     -0.027000
     24 CAX        -3.2580    1.2440    3.9480 c3        1 FL7     -0.210000
     25 CAY         0.5560   -4.0950    2.2890 c2        1 FL7     -0.200000
     26 CAZ         1.3800   -2.9180    2.2260 c1        1 FL7      0.090000
     27 HA          2.5310    0.8150    0.6520 hn        1 FL7      0.282000
     28 HAA         1.6610    0.4920   -1.3890 h4        1 FL7      0.218000
     29 HAC         1.1330   -0.0940    5.3980 h4        1 FL7      0.142000
     30 HAJ         2.9350   -1.0950    7.7710 ha        1 FL7      0.166000
     31 HAK         4.5860    0.4430    6.9220 ha        1 FL7      0.157000
     32 HAL         4.8440    1.0350    4.5990 ha        1 FL7      0.169000
     33 HAM        -2.4920   -2.9910    1.4840 hc        1 FL7      0.173000
     34 HAP        -1.8320   -2.3190    3.0230 hc        1 FL7      0.173000
     35 HAPA       -2.6220   -2.4500   -0.4590 h1        1 FL7      0.148500
     36 HAQ        -2.3560   -0.9390   -1.4240 h1        1 FL7      0.148500
     37 HAQA       -3.3650   -0.9610    1.5250 hc        1 FL7      0.108667
     38 HAS        -4.3480   -0.7400    0.0100 hc        1 FL7      0.108667
     39 HASA       -6.6760   -2.5920   -0.8380 ha        1 FL7      0.114000
     40 HAT        -6.9920   -1.3460    0.4910 ha        1 FL7      0.114000
     41 HATA       -6.1810   -0.7360   -2.4600 ha        1 FL7      0.114000
     42 HATB       -6.4970    0.5100   -1.1320 ha        1 FL7      0.114000
     43 HAU        -1.4340   -4.9390    2.4040 ha        1 FL7      0.185000
     44 HAW        -1.3230   -0.8910    5.6030 hn        1 FL7      0.156000
     45 HAWA       -2.8430    0.8120    6.0420 h4        1 FL7      0.111000
     46 HAX        -4.3610    1.1810    4.1220 hc        1 FL7      0.098667
     47 HAXA       -3.0380    0.8710    2.9180 hc        1 FL7      0.098667
     48 HAXB       -2.9500    2.3180    4.0120 hc        1 FL7      0.098667
     49 HAZ         0.2830   -1.4250    3.1610 hc        1 FL7      0.218000
     50 HAR1       -3.1020    0.4960    0.4780 hc        1 FL7      0.108667
     51 FAA         0.4400   -1.2830    6.9210 f         1 FL7     -0.111000
@<TRIPOS>BOND
     1    1    3 1   
     2    1    5 1   
     3    1   15 1   
     4    2    5 1   
     5    2    6 1   
     6    2   27 1   
     7    4   25 1   
     8    5   28 1   
     9    6    9 1   
    10    6   22 1   
    11    7    8 1   
    12    7   10 1   
    13    7   30 1   
    14    8   29 1   
    15    8   51 1   
    16    9   12 1   
    17   10   11 1   
    18   10   31 1   
    19   11   12 1   
    20   11   32 1   
    21   13   14 1   
    22   13   21 1   
    23   13   33 1   
    24   13   34 1   
    25   14   15 1   
    26   14   22 1   
    27   15   16 1   
    28   16   17 1   
    29   16   35 1   
    30   16   36 1   
    31   17   37 1   
    32   17   38 1   
    33   17   50 1   
    34   18   23 1   
    35   18   44 1   
    36   19   20 1   
    37   19   39 1   
    38   19   40 1   
    39   20   41 1   
    40   20   42 1   
    41   21   25 1   
    42   21   43 1   
    43   22   26 1   
    44   22   49 1   
    45   23   24 1   
    46   23   45 1   
    47   24   46 1   
    48   24   47 1   
    49   24   48 1   
    50   25   26 1   
@<TRIPOS>SUBSTRUCTURE
     1 FL7         1 TEMP              0 ****  ****    0 ROOT
