@<TRIPOS>MOLECULE
FL7
   51    52     1     0     0
SMALL
bcc


@<TRIPOS>ATOM
      1 C           1.0330   -0.2910   -0.7500 c2        1 FL7      0.351000
      2 N           2.5380   -0.4630    1.2560 n7        1 FL7      0.098000
      3 O           0.9290   -0.1980   -1.9780 o         1 FL7     -0.261000
      4 Cl         -0.3230   -5.6410    1.2000 cl        1 FL7      0.086000
      5 CA          2.2550   -0.1950   -0.0400 c2        1 FL7     -0.412000
      6 C13         1.8170   -1.0780    2.1830 c2        1 FL7     -0.010000
      7 CAC         2.4110   -0.2240    5.8410 c2        1 FL7     -0.168000
      8 CAD         1.5150   -0.8080    4.7530 c3        1 FL7      0.135000
      9 CAE         2.3590   -1.1980    3.5310 c2        1 FL7     -0.157000
     10 CAJ         3.7560   -0.3470    5.8830 c2        1 FL7     -0.111000
     11 CAK         4.3560   -1.3260    4.9660 c2        1 FL7     -0.035000
     12 CAL         3.6190   -1.4420    3.8650 c1        1 FL7     -0.091000
     13 CAM        -1.8360   -1.8800    1.3000 c3        1 FL7     -0.188000
     14 CAN        -0.4900   -1.2450    0.9870 c2        1 FL7      0.151000
     15 NAO        -0.2820   -0.4680   -0.0520 n         1 FL7     -0.119000
     16 CAP        -1.4270    0.1270   -0.7730 c3        1 FL7     -0.095000
     17 CAQ        -2.2290    1.1120    0.0570 c3        1 FL7     -0.247000
     18 NAR        -4.6310   -0.5850    2.6530 n2        1 FL7     -0.251000
     19 CAS        -5.4910   -1.7350    2.5150 c3        1 FL7     -0.106000
     20 CAT        -4.9440   -2.9870    3.1830 c3        1 FL7     -0.208000
     21 CAU        -1.6790   -3.3580    1.2030 c2        1 FL7     -0.048000
     22 CAV         0.5280   -1.7970    1.9500 c3        1 FL7     -0.149000
     23 CAW        -5.0430    0.4560    3.2860 c2        1 FL7     -0.047000
     24 CAX        -4.2300    1.6950    3.4510 c3        1 FL7     -0.201000
     25 CAY        -0.4740   -3.9660    1.3590 c2        1 FL7     -0.211000
     26 CAZ         0.7330   -3.2570    1.7040 c1        1 FL7      0.112000
     27 HA          3.4610   -0.1520    1.5490 hn        1 FL7      0.283000
     28 HAA         3.1100    0.1500   -0.6570 h4        1 FL7      0.219000
     29 HAC         0.8560    0.0430    4.3880 h1        1 FL7      0.111000
     30 HAJ         1.8570    0.3070    6.6320 ha        1 FL7      0.167000
     31 HAK         4.3850    0.1390    6.6420 ha        1 FL7      0.173000
     32 HAL         5.2130   -1.9380    5.2700 ha        1 FL7      0.196000
     33 HAM        -2.6710   -1.5390    0.6270 hc        1 FL7      0.177000
     34 HAP        -2.1600   -1.5970    2.3460 hc        1 FL7      0.177000
     35 HAPA       -2.0860   -0.7060   -1.1530 h1        1 FL7      0.148000
     36 HAQ        -1.0280    0.6690   -1.6840 h1        1 FL7      0.148000
     37 HAQA       -1.6040    1.9860    0.3640 hc        1 FL7      0.109667
     38 HAS        -6.5370   -1.5580    2.9070 h1        1 FL7      0.088000
     39 HASA       -4.8720   -2.8550    4.2890 hc        1 FL7      0.079333
     40 HAT        -5.5830   -1.9250    1.4050 h1        1 FL7      0.088000
     41 HATA       -3.9300   -3.2440    2.7900 hc        1 FL7      0.079333
     42 HATB       -5.6340   -3.8400    2.9710 hc        1 FL7      0.079333
     43 HAU        -2.6090   -3.9220    1.0000 ha        1 FL7      0.185000
     44 HAW        -2.6640    0.6420    0.9720 hc        1 FL7      0.109667
     45 HAWA       -6.0490    0.5270    3.7640 h4        1 FL7      0.114000
     46 HAX        -4.8090    2.5650    3.0510 hc        1 FL7      0.095333
     47 HAXA       -4.0450    1.8630    4.5420 hc        1 FL7      0.095333
     48 HAXB       -3.2460    1.6510    2.9250 hc        1 FL7      0.095333
     49 HAZ         0.0120   -1.7880    2.9830 hc        1 FL7      0.199000
     50 HAR1       -3.0690    1.4880   -0.5800 hc        1 FL7      0.109667
     51 FAA         0.6900   -1.8010    5.2440 f         1 FL7     -0.145000
@<TRIPOS>BOND
     1    1    3 1   
     2    1    5 1   
     3    1   15 1   
     4    2    5 1   
     5    2    6 1   
     6    2   27 1   
     7    4   25 1   
     8    5   28 1   
     9    6    9 1   
    10    6   22 1   
    11    7    8 1   
    12    7   10 1   
    13    7   30 1   
    14    8    9 1   
    15    8   29 1   
    16    8   51 1   
    17    9   12 1   
    18   10   11 1   
    19   10   31 1   
    20   11   12 1   
    21   11   32 1   
    22   13   14 1   
    23   13   21 1   
    24   13   33 1   
    25   13   34 1   
    26   14   15 1   
    27   14   22 1   
    28   15   16 1   
    29   16   17 1   
    30   16   35 1   
    31   16   36 1   
    32   17   37 1   
    33   17   44 1   
    34   17   50 1   
    35   18   19 1   
    36   18   23 1   
    37   19   20 1   
    38   19   38 1   
    39   19   40 1   
    40   20   39 1   
    41   20   41 1   
    42   20   42 1   
    43   21   25 1   
    44   21   43 1   
    45   22   26 1   
    46   22   49 1   
    47   23   24 1   
    48   23   45 1   
    49   24   46 1   
    50   24   47 1   
    51   24   48 1   
    52   25   26 1   
@<TRIPOS>SUBSTRUCTURE
     1 FL7         1 TEMP              0 ****  ****    0 ROOT
