@<TRIPOS>MOLECULE
FL7
   51    52     1     0     0
SMALL
bcc


@<TRIPOS>ATOM
      1 C          -1.6090   -0.2320    1.9320 c2        1 FL7      0.284000
      2 N           0.4850    0.1470    3.2080 n3        1 FL7     -0.096000
      3 O          -2.7920    0.1050    1.6090 o         1 FL7     -0.533000
      4 CL          1.1990   -6.1220    3.6920 cl        1 FL7      0.058000
      5 CA         -0.8470    0.3920    2.9130 c2        1 FL7     -0.371000
      6 C13         1.0330   -1.0770    3.3310 c2        1 FL7      0.189000
      7 CAC         4.6460   -2.0190    4.0640 c2        1 FL7     -0.215000
      8 CAD         3.3870   -2.1310    3.4820 c2        1 FL7      0.110000
      9 CAE         2.4100   -1.1160    3.7270 c2        1 FL7     -0.232000
     10 CAJ         4.9730   -0.8850    4.8380 c2        1 FL7     -0.054000
     11 CAK         4.0720    0.1560    4.9690 c2        1 FL7     -0.165000
     12 CAL         2.7880    0.0530    4.4310 c1        1 FL7     -0.302000
     13 CAM         0.0220   -3.5310    0.9410 c2        1 FL7     -0.244000
     14 CAN        -0.3360   -2.3380    1.6830 c2        1 FL7      0.185000
     15 NAO        -1.0610   -1.3530    1.1490 n         1 FL7     -0.128000
     16 CAP        -1.4800   -1.3890   -0.2550 c3        1 FL7     -0.060000
     17 CAQ        -2.6430   -2.3210   -0.5490 c3        1 FL7     -0.233000
     18 NAR        -5.0340    1.7400    2.6660 n3        1 FL7     -0.142000
     19 CAS        -6.0560    0.7050    2.5480 c3        1 FL7     -0.066000
     20 CAT        -6.0440   -0.0930    1.2610 c3        1 FL7     -0.252000
     21 CAU         0.4900   -4.6420    1.5630 c2        1 FL7      0.042000
     22 CAV         0.1020   -2.2610    3.1310 c3        1 FL7     -0.075000
     23 CAW        -4.2050    2.1060    1.7210 c2        1 FL7      0.183000
     24 CAX        -3.1540    3.1360    1.8830 c3        1 FL7     -0.267000
     25 CAY         0.7260   -4.6620    2.9870 c2        1 FL7     -0.103000
     26 CAZ         0.6260   -3.5220    3.7070 c2        1 FL7     -0.079000
     27 HA          1.0750    0.9010    3.6130 hn        1 FL7      0.328000
     28 HAA        -1.3010    1.2340    3.4580 h4        1 FL7      0.166000
     29 HAC         0.9160   -3.4670    4.7720 ha        1 FL7      0.191000
     30 HAJ         5.3990   -2.8010    3.8910 ha        1 FL7      0.146000
     31 HAK         5.9670   -0.8440    5.3090 ha        1 FL7      0.133000
     32 HAL         4.3520    1.0710    5.5110 ha        1 FL7      0.138000
     33 HAM        -0.1080   -3.5410   -0.1550 ha        1 FL7      0.170000
     34 HAP        -0.5870   -1.6690   -0.8850 h1        1 FL7      0.123500
     35 HAPA       -1.7800   -0.3370   -0.5340 h1        1 FL7      0.123500
     36 HAQ        -2.4030   -3.3780   -0.2780 hc        1 FL7      0.099000
     37 HAQA       -3.5520   -2.0030    0.0170 hc        1 FL7      0.099000
     38 HAS        -5.9030    0.0030    3.4210 h1        1 FL7      0.132500
     39 HASA       -7.0560    1.2180    2.6720 h1        1 FL7      0.132500
     40 HAT        -6.8090   -0.9050    1.3520 hc        1 FL7      0.114000
     41 HATA       -5.0430   -0.5650    1.0840 hc        1 FL7      0.114000
     42 HATB       -6.3120    0.5400    0.3810 hc        1 FL7      0.114000
     43 HAU         0.7200   -5.5560    0.9830 ha        1 FL7      0.181000
     44 HAW        -4.9700    2.1580    3.5800 hn        1 FL7      0.263000
     45 HAWA       -4.2750    1.6090    0.7230 h4        1 FL7      0.213000
     46 HAX        -3.2130    3.7080    2.8420 hc        1 FL7      0.148333
     47 HAXA       -3.2040    3.8570    1.0260 hc        1 FL7      0.148333
     48 HAXB       -2.1600    2.6040    1.8390 hc        1 FL7      0.148333
     49 HAZ        -0.8410   -2.0340    3.7490 hc        1 FL7      0.173000
     50 HAR1       -2.8630   -2.2740   -1.6430 hc        1 FL7      0.099000
     51 FAA         3.1490   -3.1540    2.6250 f         1 FL7     -0.133000
@<TRIPOS>BOND
     1    1    3 1   
     2    1    5 1   
     3    1   15 1   
     4    2    5 1   
     5    2    6 1   
     6    2   27 1   
     7    4   25 1   
     8    5   28 1   
     9    6    9 1   
    10    6   22 1   
    11    7    8 1   
    12    7   10 1   
    13    7   30 1   
    14    8    9 1   
    15    8   51 1   
    16    9   12 1   
    17   10   11 1   
    18   10   31 1   
    19   11   12 1   
    20   11   32 1   
    21   13   14 1   
    22   13   21 1   
    23   13   33 1   
    24   14   15 1   
    25   14   22 1   
    26   15   16 1   
    27   16   17 1   
    28   16   34 1   
    29   16   35 1   
    30   17   36 1   
    31   17   37 1   
    32   17   50 1   
    33   18   19 1   
    34   18   23 1   
    35   18   44 1   
    36   19   20 1   
    37   19   38 1   
    38   19   39 1   
    39   20   40 1   
    40   20   41 1   
    41   20   42 1   
    42   21   25 1   
    43   21   43 1   
    44   22   26 1   
    45   22   49 1   
    46   23   24 1   
    47   23   45 1   
    48   24   46 1   
    49   24   47 1   
    50   24   48 1   
    51   25   26 1   
    52   26   29 1   
@<TRIPOS>SUBSTRUCTURE
     1 FL7         1 TEMP              0 ****  ****    0 ROOT
