@<TRIPOS>MOLECULE
FL7
   50    52     1     0     0
SMALL
bcc


@<TRIPOS>ATOM
      1 C          -1.1040    0.6350   -2.4890 c         1 FL7      0.694500
      2 N           1.1240    1.5770   -1.9580 n2        1 FL7     -0.556900
      3 O          -2.1320    1.1610   -2.9470 o         1 FL7     -0.606500
      4 CL          3.2730   -3.8610    0.1840 cl        1 FL7     -0.082400
      5 CA          0.2800    1.0530   -2.9930 c3        1 FL7      0.030800
      6 C13         1.4960    0.8260   -0.9720 ce        1 FL7      0.529500
      7 CAC         2.5540    2.3630    2.3440 ca        1 FL7     -0.167000
      8 CAD         1.7470    1.8160    1.3270 ca        1 FL7      0.152900
      9 CAE         2.3300    1.4090    0.1080 ca        1 FL7     -0.165900
     10 CAJ         3.9210    2.5090    2.1370 ca        1 FL7     -0.096000
     11 CAK         4.4970    2.1200    0.9270 ca        1 FL7     -0.145000
     12 CAL         3.7050    1.5790   -0.0820 ca        1 FL7     -0.086000
     13 CAM        -0.2810   -2.5410   -1.0010 ca        1 FL7     -0.151000
     14 CAN        -0.0930   -1.1400   -1.1090 ca        1 FL7      0.093600
     15 NAO        -1.1850   -0.3250   -1.4780 n         1 FL7     -0.399000
     16 CAP        -2.4640   -0.5360   -0.8200 c3        1 FL7      0.094000
     17 CAQ        -2.8380    0.6340    0.1280 c3        1 FL7      0.151800
     18 NAR        -4.0480    0.3300    0.8760 n3        1 FL7     -0.749600
     19 CAS        -3.7710   -0.3510    2.1340 c3        1 FL7      0.177300
     20 CAT        -4.9330   -1.1810    2.6570 c3        1 FL7     -0.095600
     21 CAU         0.7510   -3.3770   -0.6040 ca        1 FL7     -0.094000
     22 CAV         1.1900   -0.6150   -0.8200 ca        1 FL7     -0.199900
     23 CAW        -4.9360    1.4750    1.0250 c3        1 FL7      0.177300
     24 CAX        -5.6700    1.8510   -0.2520 c3        1 FL7     -0.095600
     25 CAY         2.0080   -2.8400   -0.3060 ca        1 FL7     -0.003600
     26 CAZ         2.2240   -1.4690   -0.4160 ca        1 FL7     -0.081000
     27 HA          0.7460    0.1790   -3.5320 h1        1 FL7      0.089700
     28 HAA         0.1260    1.8900   -3.7350 h1        1 FL7      0.089700
     29 HAC         2.0880    2.6740    3.2910 ha        1 FL7      0.152000
     30 HAJ         4.5490    2.9390    2.9320 ha        1 FL7      0.141000
     31 HAK         5.5780    2.2470    0.7660 ha        1 FL7      0.141000
     32 HAL         4.1570    1.2860   -1.0420 ha        1 FL7      0.145000
     33 HAM        -1.2610   -2.9860   -1.2420 ha        1 FL7      0.151000
     34 HAP        -3.2610   -0.6260   -1.6130 h1        1 FL7      0.066700
     35 HAPA       -2.4290   -1.4960   -0.2340 h1        1 FL7      0.066700
     36 HAQ        -1.9660    0.8530    0.8130 h1        1 FL7      0.052200
     37 HAQA       -3.0020    1.5490   -0.5110 h1        1 FL7      0.052200
     38 HAS        -2.8980   -1.0460    1.9670 h1        1 FL7      0.028450
     39 HASA       -3.4620    0.3820    2.9380 h1        1 FL7      0.028450
     40 HAT        -5.7890   -0.5360    2.9700 hc        1 FL7      0.039367
     41 HATA       -5.2970   -1.8970    1.8820 hc        1 FL7      0.039367
     42 HATB       -4.5860   -1.7600    3.5460 hc        1 FL7      0.039367
     43 HAU         0.5790   -4.4630   -0.5280 ha        1 FL7      0.153000
     44 HAW        -5.7060    1.2160    1.8070 h1        1 FL7      0.028450
     45 HAWA       -4.3740    2.3820    1.3990 h1        1 FL7      0.028450
     46 HAX        -4.9640    2.1740   -1.0540 hc        1 FL7      0.039367
     47 HAXA       -6.2690    0.9920   -0.6370 hc        1 FL7      0.039367
     48 HAXB       -6.3630    2.6980   -0.0280 hc        1 FL7      0.039367
     49 HAZ         3.2130   -1.0390   -0.1850 ha        1 FL7      0.158000
     50 FAA         0.4150    1.6890    1.5370 f         1 FL7     -0.132900
@<TRIPOS>BOND
     1    1    3 2   
     2    1    5 1   
     3    1   15 1   
     4    2    5 1   
     5    2    6 2   
     6    4   25 1   
     7    5   27 1   
     8    5   28 1   
     9    6    9 1   
    10    6   22 1   
    11    7    8 ar  
    12    7   10 ar  
    13    7   29 1   
    14    8    9 ar  
    15    8   50 1   
    16    9   12 ar  
    17   10   11 ar  
    18   10   30 1   
    19   11   12 ar  
    20   11   31 1   
    21   12   32 1   
    22   13   14 ar  
    23   13   21 ar  
    24   13   33 1   
    25   14   15 1   
    26   14   22 ar  
    27   15   16 1   
    28   16   17 1   
    29   16   34 1   
    30   16   35 1   
    31   17   18 1   
    32   17   36 1   
    33   17   37 1   
    34   18   19 1   
    35   18   23 1   
    36   19   20 1   
    37   19   38 1   
    38   19   39 1   
    39   20   40 1   
    40   20   41 1   
    41   20   42 1   
    42   21   25 ar  
    43   21   43 1   
    44   22   26 ar  
    45   23   24 1   
    46   23   44 1   
    47   23   45 1   
    48   24   46 1   
    49   24   47 1   
    50   24   48 1   
    51   25   26 ar  
    52   26   49 1   
@<TRIPOS>SUBSTRUCTURE
     1 FL7         1 TEMP              0 ****  ****    0 ROOT
