@<TRIPOS>MOLECULE
FL8
   32    34     1     0     0
SMALL
bcc


@<TRIPOS>ATOM
      1 BR3        -2.3740    0.5740   -3.5020 br        1 FL8     -0.056100
      2 BR5         3.2750   -0.0850   -2.5690 br        1 FL8     -0.056100
      3 O1          0.6240    0.5490    2.0160 os        1 FL8     -0.220200
      4 C2         -0.3050   -0.2030    1.3120 cc        1 FL8      0.184900
      5 C3         -1.2660   -0.9650    1.8970 cd        1 FL8     -0.246400
      6 C4         -1.4010   -1.0190    3.3620 c         1 FL8      0.589900
      7 C4A        -0.4220   -0.2040    4.0980 ca        1 FL8     -0.177600
      8 C5         -0.4310   -0.1550    5.5000 ca        1 FL8     -0.137000
      9 C6          0.5140    0.6260    6.1650 ca        1 FL8      0.094100
     10 C7          1.4800    1.3690    5.4520 ca        1 FL8     -0.101000
     11 C8          1.4940    1.3250    4.0690 ca        1 FL8     -0.125000
     12 C8A         0.5390    0.5350    3.3990 ca        1 FL8      0.109100
     13 C1'        -0.0660   -0.0570   -0.1280 ca        1 FL8     -0.108800
     14 C2'        -1.1330    0.1570   -1.0050 ca        1 FL8     -0.022500
     15 C3'        -0.9030    0.2930   -2.3740 ca        1 FL8     -0.099900
     16 C4'         0.4150    0.2200   -2.8750 ca        1 FL8      0.205100
     17 C5'         1.4970    0.0160   -1.9890 ca        1 FL8     -0.099900
     18 C6'         1.2430   -0.1140   -0.6250 ca        1 FL8     -0.022500
     19 O4'         0.7130    0.3390   -4.2040 oh        1 FL8     -0.469100
     20 C3B        -2.2220   -1.7870    1.1220 c3        1 FL8     -0.045900
     21 O4         -2.2660   -1.6980    3.9330 o         1 FL8     -0.541100
     22 O6          0.5700    0.7260    7.5370 oh        1 FL8     -0.494100
     23 H51        -1.1880   -0.7370    6.0490 ha        1 FL8      0.164000
     24 H71         2.2110    1.9750    6.0090 ha        1 FL8      0.160000
     25 H81         2.2340    1.8940    3.4870 ha        1 FL8      0.159000
     26 H2'1       -2.1590    0.2220   -0.6050 ha        1 FL8      0.165500
     27 H6'1        2.0760   -0.2620    0.0850 ha        1 FL8      0.165500
     28 H4'O       -0.1130    0.4790   -4.6990 ho        1 FL8      0.440000
     29 H3'1       -2.4690   -2.7200    1.6910 hc        1 FL8      0.054367
     30 H3'2       -3.1750   -1.2210    0.9640 hc        1 FL8      0.054367
     31 H3'3       -1.8040   -2.0730    0.1250 hc        1 FL8      0.054367
     32 HO61       -0.1370    0.1750    7.9050 ho        1 FL8      0.425000
@<TRIPOS>BOND
     1    1   15 1   
     2    2   17 1   
     3    3    4 1   
     4    3   12 1   
     5    4    5 2   
     6    4   13 1   
     7    5    6 1   
     8    5   20 1   
     9    6    7 1   
    10    6   21 2   
    11    7    8 ar  
    12    7   12 ar  
    13    8    9 ar  
    14    8   23 1   
    15    9   10 ar  
    16    9   22 1   
    17   10   11 ar  
    18   10   24 1   
    19   11   12 ar  
    20   11   25 1   
    21   13   14 ar  
    22   13   18 ar  
    23   14   15 ar  
    24   14   26 1   
    25   15   16 ar  
    26   16   17 ar  
    27   16   19 1   
    28   17   18 ar  
    29   18   27 1   
    30   19   28 1   
    31   20   29 1   
    32   20   30 1   
    33   20   31 1   
    34   22   32 1   
@<TRIPOS>SUBSTRUCTURE
     1 FL8         1 TEMP              0 ****  ****    0 ROOT
