@<TRIPOS>MOLECULE
FL8
   32    34     1     0     0
SMALL
bcc


@<TRIPOS>ATOM
      1 BR3         0.0090    0.0200   -0.1790 br        1 FL8     -0.056100
      2 BR5         4.1950    0.4890   -4.1120 br        1 FL8     -0.056100
      3 O1          6.1510    0.8470    0.8380 os        1 FL8     -0.220200
      4 C2          5.1610   -0.1030    1.0460 cc        1 FL8      0.184900
      5 C3          5.1720   -1.0010    2.0650 cd        1 FL8     -0.246400
      6 C4          6.2580   -1.0040    3.0590 c         1 FL8      0.589900
      7 C4A         7.2930    0.0180    2.8390 ca        1 FL8     -0.177600
      8 C5          8.3890    0.1360    3.7070 ca        1 FL8     -0.137000
      9 C6          9.3520    1.1150    3.4660 ca        1 FL8      0.094100
     10 C7          9.2460    1.9900    2.3620 ca        1 FL8     -0.101000
     11 C8          8.1680    1.8780    1.5020 ca        1 FL8     -0.125000
     12 C8A         7.1950    0.8880    1.7480 ca        1 FL8      0.109100
     13 C1'         4.1410    0.0120   -0.0020 ca        1 FL8     -0.108800
     14 C2'         2.7830   -0.0250    0.3230 ca        1 FL8     -0.022500
     15 C3'         1.8150    0.0810   -0.6760 ca        1 FL8     -0.099900
     16 C4'         2.2110    0.2320   -2.0220 ca        1 FL8      0.205100
     17 C5'         3.5850    0.2830   -2.3530 ca        1 FL8     -0.099900
     18 C6'         4.5330    0.1770   -1.3370 ca        1 FL8     -0.022500
     19 O4'         1.3190    0.3370   -3.0530 oh        1 FL8     -0.469100
     20 C3B         4.1210   -2.0280    2.2440 c3        1 FL8     -0.045900
     21 O4          6.3030   -1.8040    4.0040 o         1 FL8     -0.541100
     22 O6         10.4540    1.2930    4.2710 oh        1 FL8     -0.494100
     23 H51         8.4650   -0.5500    4.5660 ha        1 FL8      0.164000
     24 H71        10.0250    2.7500    2.2020 ha        1 FL8      0.160000
     25 H81         8.0570    2.5450    0.6350 ha        1 FL8      0.159000
     26 H2'1        2.4800   -0.1350    1.3800 ha        1 FL8      0.165500
     27 H6'1        5.6100    0.2260   -1.5740 ha        1 FL8      0.165500
     28 H4'O        0.4160    0.2930   -2.6920 ho        1 FL8      0.440000
     29 H3'1        4.5700   -2.9600    2.6740 hc        1 FL8      0.054367
     30 H3'2        3.6250   -2.2810    1.2740 hc        1 FL8      0.054367
     31 H3'3        3.3430   -1.6610    2.9610 hc        1 FL8      0.054367
     32 HO61       10.4120    0.6390    4.9840 ho        1 FL8      0.425000
@<TRIPOS>BOND
     1    1   15 1   
     2    2   17 1   
     3    3    4 1   
     4    3   12 1   
     5    4    5 2   
     6    4   13 1   
     7    5    6 1   
     8    5   20 1   
     9    6    7 1   
    10    6   21 2   
    11    7    8 ar  
    12    7   12 ar  
    13    8    9 ar  
    14    8   23 1   
    15    9   10 ar  
    16    9   22 1   
    17   10   11 ar  
    18   10   24 1   
    19   11   12 ar  
    20   11   25 1   
    21   13   14 ar  
    22   13   18 ar  
    23   14   15 ar  
    24   14   26 1   
    25   15   16 ar  
    26   16   17 ar  
    27   16   19 1   
    28   17   18 ar  
    29   18   27 1   
    30   19   28 1   
    31   20   29 1   
    32   20   30 1   
    33   20   31 1   
    34   22   32 1   
@<TRIPOS>SUBSTRUCTURE
     1 FL8         1 TEMP              0 ****  ****    0 ROOT
