@<TRIPOS>MOLECULE
FL8
   32    34     1     0     0
SMALL
bcc


@<TRIPOS>ATOM
      1 Br3         0.0090    0.0120   -0.1800 br        1 FL8     -0.056100
      2 Br5         4.1950    0.4960   -4.1110 br        1 FL8     -0.056100
      3 O1          6.1490    0.8490    0.8400 os        1 FL8     -0.220200
      4 C2          5.1610   -0.1030    1.0460 cc        1 FL8      0.184900
      5 C3          5.1740   -1.0030    2.0630 cd        1 FL8     -0.246400
      6 C4          6.2600   -1.0060    3.0580 c         1 FL8      0.589900
      7 C4A         7.2930    0.0180    2.8390 ca        1 FL8     -0.177600
      8 C5          8.3880    0.1370    3.7080 ca        1 FL8     -0.137000
      9 C6          9.3510    1.1170    3.4680 ca        1 FL8      0.094100
     10 C7          9.2430    1.9940    2.3660 ca        1 FL8     -0.101000
     11 C8          8.1650    1.8820    1.5050 ca        1 FL8     -0.125000
     12 C8A         7.1940    0.8900    1.7490 ca        1 FL8      0.109100
     13 C1'         4.1420    0.0120   -0.0020 ca        1 FL8     -0.108800
     14 C2'         2.7830   -0.0280    0.3230 ca        1 FL8     -0.022500
     15 C3'         1.8160    0.0780   -0.6760 ca        1 FL8     -0.099900
     16 C4'         2.2110    0.2320   -2.0220 ca        1 FL8      0.205100
     17 C5'         3.5850    0.2860   -2.3530 ca        1 FL8     -0.099900
     18 C6'         4.5330    0.1800   -1.3370 ca        1 FL8     -0.022500
     19 O4'         1.3190    0.3370   -3.0530 oh        1 FL8     -0.469100
     20 C3B         4.1250   -2.0320    2.2400 c3        1 FL8     -0.045900
     21 O4          6.3060   -1.8080    4.0020 o         1 FL8     -0.541100
     22 O6         10.4520    1.2960    4.2740 oh        1 FL8     -0.494100
     23 H51         8.4660   -0.5510    4.5650 ha        1 FL8      0.164000
     24 H71        10.0200    2.7560    2.2070 ha        1 FL8      0.160000
     25 H81         8.0530    2.5510    0.6400 ha        1 FL8      0.159000
     26 H2'1        2.4810   -0.1410    1.3790 ha        1 FL8      0.165500
     27 H6'1        5.6100    0.2320   -1.5730 ha        1 FL8      0.165500
     28 H4'O        0.4160    0.2900   -2.6920 ho        1 FL8      0.440000
     29 H3'1        4.5750   -2.9640    2.6680 hc        1 FL8      0.054367
     30 H3'2        3.6300   -2.2850    1.2700 hc        1 FL8      0.054367
     31 H3'3        3.3460   -1.6680    2.9570 hc        1 FL8      0.054367
     32 HO61       10.4110    0.6410    4.9860 ho        1 FL8      0.425000
@<TRIPOS>BOND
     1    1   15 1   
     2    2   17 1   
     3    3    4 1   
     4    3   12 1   
     5    4    5 2   
     6    4   13 1   
     7    5    6 1   
     8    5   20 1   
     9    6    7 1   
    10    6   21 2   
    11    7    8 ar  
    12    7   12 ar  
    13    8    9 ar  
    14    8   23 1   
    15    9   10 ar  
    16    9   22 1   
    17   10   11 ar  
    18   10   24 1   
    19   11   12 ar  
    20   11   25 1   
    21   13   14 ar  
    22   13   18 ar  
    23   14   15 ar  
    24   14   26 1   
    25   15   16 ar  
    26   16   17 ar  
    27   16   19 1   
    28   17   18 ar  
    29   18   27 1   
    30   19   28 1   
    31   20   29 1   
    32   20   30 1   
    33   20   31 1   
    34   22   32 1   
@<TRIPOS>SUBSTRUCTURE
     1 FL8         1 TEMP              0 ****  ****    0 ROOT
