@<TRIPOS>MOLECULE
FL8
   32    27     1     0     0
SMALL
bcc


@<TRIPOS>ATOM
      1 BR3        -5.0770    1.3790   -1.3670 br        1 FL8      0.095000
      2 BR5        -2.1420   -2.4570   -4.4160 br        1 FL8      0.073000
      3 O1          0.2780    0.6150   -0.3430 o         1 FL8     -0.131000
      4 C2         -0.3920   -0.4830    0.1370 c1        1 FL8      0.129000
      5 C3          0.0830   -1.1530    1.2600 c1        1 FL8     -0.223000
      6 C4          1.2230   -0.7150    1.8900 c1        1 FL8      0.311000
      7 C4A         1.9040    0.3990    1.4030 c1        1 FL8     -0.046500
      8 C5          3.0780    0.8440    2.0410 c1        1 FL8     -0.131000
      9 C6          3.7600    1.9490    1.5490 c1        1 FL8      0.049000
     10 C7          3.2840    2.6180    0.4250 c1        1 FL8     -0.101000
     11 C8          2.1260    2.1800   -0.2050 c1        1 FL8     -0.131000
     12 C8A         1.4330    1.0600    0.2930 c1        1 FL8     -0.046500
     13 C1'        -1.4230   -0.5390   -0.7880 c1        1 FL8     -0.097000
     14 C2'        -2.5510    0.2490   -0.6150 c1        1 FL8     -0.022000
     15 C3'        -3.5520    0.2450   -1.5740 c2        1 FL8     -0.210000
     16 C4'        -3.4250   -0.5460   -2.7050 c2        1 FL8      0.160000
     17 C5'        -2.2970   -1.3330   -2.8780 c2        1 FL8     -0.270000
     18 C6'        -1.2960   -1.3290   -1.9190 c2        1 FL8     -0.023000
     19 O4'        -4.4160   -0.5080   -3.7040 oh        1 FL8     -0.223000
     20 C3B        -0.6110   -2.4090    1.7400 c3        1 FL8     -0.168000
     21 O4          1.6570   -1.3200    2.8510 o         1 FL8     -0.302000
     22 O6          4.9230    2.4050    2.1990 oh        1 FL8     -0.248000
     23 H51         3.4120    0.3750    2.8290 ha        1 FL8      0.161500
     24 H71         3.7630    3.3950    0.0800 ha        1 FL8      0.160000
     25 H81         1.7920    2.6500   -0.9930 ha        1 FL8      0.161500
     26 H2'1       -2.6540    0.7820    0.1970 ha        1 FL8      0.167000
     27 H6'1       -0.5110   -1.8990   -2.0310 ha        1 FL8      0.164000
     28 H4'O       -4.7840   -1.3130   -3.7870 ho        1 FL8      0.239000
     29 H3'1       -1.1570   -2.7780    1.0140 hc        1 FL8      0.093667
     30 H3'2        0.0610   -3.0690    2.0120 hc        1 FL8      0.093667
     31 H3'3       -1.1850   -2.1930    2.5040 hc        1 FL8      0.093667
     32 HO61        4.6950    2.8990    2.9020 ho        1 FL8      0.224000
@<TRIPOS>BOND
     1    1   15 1   
     2    2   17 1   
     3    3    4 1   
     4    5    6 1   
     5    5   20 1   
     6    6   21 1   
     7    7    8 1   
     8    7   12 1   
     9    8   23 1   
    10    9   10 1   
    11    9   22 1   
    12   10   24 1   
    13   11   12 1   
    14   11   25 1   
    15   13   18 1   
    16   14   15 1   
    17   14   26 1   
    18   15   16 1   
    19   16   17 1   
    20   16   19 1   
    21   17   18 1   
    22   18   27 1   
    23   19   28 1   
    24   20   29 1   
    25   20   30 1   
    26   20   31 1   
    27   22   32 1   
@<TRIPOS>SUBSTRUCTURE
     1 FL8         1 TEMP              0 ****  ****    0 ROOT
