@<TRIPOS>MOLECULE
FL9
   31    33     1     0     0
SMALL
bcc


@<TRIPOS>ATOM
      1 C2          0.0130   -0.0830    0.0980 cc        1 FL9     -0.062100
      2 C3          1.5120   -0.0200    0.0010 c         1 FL9      0.604900
      3 C3A         1.9530    0.0680    1.4010 ca        1 FL9     -0.308600
      4 C4          3.1990    0.1510    2.0230 ca        1 FL9      0.265100
      5 C5          3.2710    0.2230    3.4290 ca        1 FL9     -0.299000
      6 C6          2.0920    0.2080    4.1860 ca        1 FL9      0.222100
      7 C7          0.8110    0.1250    3.5960 ca        1 FL9     -0.278000
      8 C7A         0.7870    0.0570    2.2150 ca        1 FL9      0.208100
      9 C21        -0.8610   -0.1850   -0.9150 cf        1 FL9     -0.030200
     10 C1'        -2.3040   -0.2490   -0.8580 ca        1 FL9     -0.128800
     11 C2'        -3.0200   -0.6400   -2.0220 ca        1 FL9      0.222100
     12 C3'        -4.4250   -0.7150   -2.0330 ca        1 FL9     -0.162900
     13 C4'        -5.1260   -0.3860   -0.8520 ca        1 FL9      0.238100
     14 C5'        -4.4270    0.0100    0.3060 ca        1 FL9     -0.165900
     15 C6'        -3.0340    0.0720    0.2870 ca        1 FL9      0.005000
     16 BR1        -5.3290   -1.2430   -3.5920 br        1 FL9     -0.050100
     17 BR2        -5.3210    0.4610    1.8910 br        1 FL9     -0.074100
     18 O1         -0.3820   -0.0280    1.4600 os        1 FL9     -0.232200
     19 O3          2.1630   -0.0410   -1.0390 o         1 FL9     -0.492100
     20 O4          4.3170    0.1620    1.2400 oh        1 FL9     -0.461100
     21 O6          2.2500    0.2810    5.5460 oh        1 FL9     -0.487100
     22 O2'        -2.2500   -0.9350   -3.1120 oh        1 FL9     -0.482100
     23 O4'        -6.4890   -0.4710   -0.8990 oh        1 FL9     -0.471100
     24 H5          4.2410    0.2890    3.9400 ha        1 FL9      0.160000
     25 H7         -0.1060    0.1140    4.1970 ha        1 FL9      0.160000
     26 H21        -0.4180   -0.2360   -1.9330 ha        1 FL9      0.179000
     27 H6'        -2.4930    0.3880    1.1980 ha        1 FL9      0.175000
     28 HO4         5.0940    0.2220    1.8190 ho        1 FL9      0.429000
     29 HO6         1.3730    0.2600    5.9570 ho        1 FL9      0.430000
     30 HO2'       -2.8300   -1.1850   -3.8540 ho        1 FL9      0.443000
     31 HO4'       -6.8480   -0.2200   -0.0290 ho        1 FL9      0.442000
@<TRIPOS>BOND
     1    1    2 1   
     2    1    9 2   
     3    1   18 1   
     4    2    3 1   
     5    2   19 2   
     6    3    4 ar  
     7    3    8 ar  
     8    4    5 ar  
     9    4   20 1   
    10    5    6 ar  
    11    5   24 1   
    12    6    7 ar  
    13    6   21 1   
    14    7    8 ar  
    15    7   25 1   
    16    8   18 1   
    17    9   10 1   
    18    9   26 1   
    19   10   11 ar  
    20   10   15 ar  
    21   11   12 ar  
    22   11   22 1   
    23   12   13 ar  
    24   12   16 1   
    25   13   14 ar  
    26   13   23 1   
    27   14   15 ar  
    28   14   17 1   
    29   15   27 1   
    30   20   28 1   
    31   21   29 1   
    32   22   30 1   
    33   23   31 1   
@<TRIPOS>SUBSTRUCTURE
     1 FL9         1 TEMP              0 ****  ****    0 ROOT
