@<TRIPOS>MOLECULE
FL9
   31    27     1     0     0
SMALL
bcc


@<TRIPOS>ATOM
      1 C2          0.6760   -0.0080   -0.7610 c1        1 FL9     -0.086000
      2 C3          2.1270    0.0430   -0.7890 c1        1 FL9      0.325000
      3 C3A         2.6120   -0.0800    0.6030 c2        1 FL9     -0.288000
      4 C4          3.8960   -0.0900    1.1480 c2        1 FL9      0.225000
      5 C5          4.0680   -0.2190    2.5240 c1        1 FL9     -0.355000
      6 C6          2.9520   -0.3400    3.3620 c1        1 FL9      0.178000
      7 C7          1.6680   -0.3300    2.8190 c1        1 FL9     -0.217000
      8 C7A         1.4950   -0.2000    1.4400 c1        1 FL9      0.155000
      9 C21        -0.1400    0.0710   -1.8300 c1        1 FL9     -0.043000
     10 C1'        -1.6400    0.0020   -1.6430 c1        1 FL9     -0.116000
     11 C2'        -2.4040    1.1540   -1.7480 c2        1 FL9      0.182000
     12 C3'        -3.7840    1.0820   -1.6390 c1        1 FL9     -0.359000
     13 C4'        -4.4000   -0.1410   -1.4240 c1        1 FL9      0.191000
     14 C5'        -3.6360   -1.2920   -1.3190 c1        1 FL9     -0.245000
     15 C6'        -2.2560   -1.2210   -1.4290 c1        1 FL9     -0.002000
     16 BR1        -4.8350    2.6760   -1.7460 br        1 FL9      0.066000
     17 BR2        -4.4830   -2.9750   -0.9980 br        1 FL9      0.090000
     18 O1          0.2700   -0.1560    0.5900 os        1 FL9     -0.140000
     19 O3          2.8160    0.2370   -1.7700 o         1 FL9     -0.255000
     20 O4          5.0110   -0.0570    0.2900 oh        1 FL9     -0.215000
     21 O6          2.6580   -0.2990    4.7370 oh        1 FL9     -0.237000
     22 O2'        -1.7810    2.3920   -1.9900 oh        1 FL9     -0.235000
     23 O4'        -5.8010   -0.2150   -1.3230 oh        1 FL9     -0.222000
     24 H5          4.9670   -0.2260    2.9060 ha        1 FL9      0.142000
     25 H7          0.8910   -0.4140    3.4030 ha        1 FL9      0.177000
     26 H21         0.2360    0.1720   -2.7250 ha        1 FL9      0.177000
     27 H6'        -1.7180   -2.0320   -1.3550 ha        1 FL9      0.178000
     28 HO4         5.4670    0.6940    0.4250 ho        1 FL9      0.225000
     29 HO6         3.2070   -0.8470    5.1730 ho        1 FL9      0.227000
     30 HO2'       -1.9730    2.6650   -2.8140 ho        1 FL9      0.239000
     31 HO4'       -6.1650   -0.0450   -2.1170 ho        1 FL9      0.238000
@<TRIPOS>BOND
     1    1    9 1   
     2    1   18 1   
     3    2    3 1   
     4    2   19 1   
     5    3    4 1   
     6    3    8 1   
     7    4    5 1   
     8    4   20 1   
     9    5   24 1   
    10    6    7 1   
    11    6   21 1   
    12    7   25 1   
    13    8   18 1   
    14    9   26 1   
    15   10   11 1   
    16   10   15 1   
    17   11   12 1   
    18   11   22 1   
    19   12   16 1   
    20   13   14 1   
    21   13   23 1   
    22   14   17 1   
    23   15   27 1   
    24   20   28 1   
    25   21   29 1   
    26   22   30 1   
    27   23   31 1   
@<TRIPOS>SUBSTRUCTURE
     1 FL9         1 TEMP              0 ****  ****    0 ROOT
