@<TRIPOS>MOLECULE
FL9
   31    33     1     0     0
SMALL
bcc


@<TRIPOS>ATOM
      1 C2          0.0130   -0.0780    0.0970 cc        1 FL9     -0.062100
      2 C3          1.5120   -0.0110    0.0000 c         1 FL9      0.604900
      3 C3A         1.9530    0.0710    1.4000 ca        1 FL9     -0.308600
      4 C4          3.1990    0.1550    2.0230 ca        1 FL9      0.265100
      5 C5          3.2710    0.2200    3.4290 ca        1 FL9     -0.299000
      6 C6          2.0920    0.2000    4.1860 ca        1 FL9      0.222100
      7 C7          0.8110    0.1160    3.5960 ca        1 FL9     -0.278000
      8 C7A         0.7870    0.0550    2.2150 ca        1 FL9      0.208100
      9 C21        -0.8610   -0.1780   -0.9160 cf        1 FL9     -0.030200
     10 C1'        -2.3040   -0.2450   -0.8580 ca        1 FL9     -0.128800
     11 C2'        -3.0200   -0.6340   -2.0230 ca        1 FL9      0.222100
     12 C3'        -4.4250   -0.7130   -2.0330 ca        1 FL9     -0.162900
     13 C4'        -5.1260   -0.3890   -0.8510 ca        1 FL9      0.238100
     14 C5'        -4.4280    0.0050    0.3080 ca        1 FL9     -0.165900
     15 C6'        -3.0340    0.0700    0.2880 ca        1 FL9      0.005000
     16 Br1        -5.3280   -1.2370   -3.5930 br        1 FL9     -0.050100
     17 Br2        -5.3210    0.4500    1.8950 br        1 FL9     -0.074100
     18 O1         -0.3820   -0.0300    1.4600 os        1 FL9     -0.232200
     19 O3          2.1620   -0.0260   -1.0400 o         1 FL9     -0.492100
     20 O4          4.3170    0.1710    1.2390 oh        1 FL9     -0.461100
     21 O6          2.2510    0.2660    5.5460 oh        1 FL9     -0.487100
     22 O2'        -2.2490   -0.9250   -3.1150 oh        1 FL9     -0.482100
     23 O4'        -6.4890   -0.4760   -0.8980 oh        1 FL9     -0.471100
     24 H5          4.2410    0.2860    3.9390 ha        1 FL9      0.160000
     25 H7         -0.1050    0.1000    4.1970 ha        1 FL9      0.160000
     26 H21        -0.4180   -0.2240   -1.9340 ha        1 FL9      0.179000
     27 H6'        -2.4930    0.3850    1.2000 ha        1 FL9      0.175000
     28 HO4         5.0940    0.2310    1.8180 ho        1 FL9      0.429000
     29 HO6         1.3740    0.2420    5.9570 ho        1 FL9      0.430000
     30 HO2'       -2.8290   -1.1740   -3.8570 ho        1 FL9      0.443000
     31 HO4'       -6.8480   -0.2290   -0.0270 ho        1 FL9      0.442000
@<TRIPOS>BOND
     1    1    2 1   
     2    1    9 2   
     3    1   18 1   
     4    2    3 1   
     5    2   19 2   
     6    3    4 ar  
     7    3    8 ar  
     8    4    5 ar  
     9    4   20 1   
    10    5    6 ar  
    11    5   24 1   
    12    6    7 ar  
    13    6   21 1   
    14    7    8 ar  
    15    7   25 1   
    16    8   18 1   
    17    9   10 1   
    18    9   26 1   
    19   10   11 ar  
    20   10   15 ar  
    21   11   12 ar  
    22   11   22 1   
    23   12   13 ar  
    24   12   16 1   
    25   13   14 ar  
    26   13   23 1   
    27   14   15 ar  
    28   14   17 1   
    29   15   27 1   
    30   20   28 1   
    31   21   29 1   
    32   22   30 1   
    33   23   31 1   
@<TRIPOS>SUBSTRUCTURE
     1 FL9         1 TEMP              0 ****  ****    0 ROOT
