@<TRIPOS>MOLECULE
FL9
   31    33     1     0     0
SMALL
bcc


@<TRIPOS>ATOM
      1 C2         -1.1940   -0.1610    1.8800 cc        1 FL9     -0.058100
      2 C3         -2.0270   -0.1640    3.1260 c         1 FL9      0.602900
      3 C3A        -1.0530   -0.0010    4.2080 ca        1 FL9     -0.378600
      4 C4         -1.1740    0.0770    5.5960 ca        1 FL9      0.274100
      5 C5         -0.0150    0.2390    6.3820 ca        1 FL9     -0.241000
      6 C6          1.2340    0.3200    5.7520 ca        1 FL9      0.217100
      7 C7          1.3970    0.2440    4.3470 ca        1 FL9     -0.277000
      8 C7A         0.2370    0.0850    3.6160 ca        1 FL9      0.214100
      9 C21        -1.6260   -0.2700    0.6150 cf        1 FL9     -0.020200
     10 C1'        -0.8530   -0.2710   -0.6060 ca        1 FL9     -0.132800
     11 C2'        -1.5310   -0.1310   -1.8470 ca        1 FL9      0.224100
     12 C3'        -0.8360   -0.1300   -3.0710 ca        1 FL9     -0.162900
     13 C4'         0.5690   -0.2760   -3.0470 ca        1 FL9      0.240100
     14 C5'         1.2520   -0.4210   -1.8230 ca        1 FL9     -0.166900
     15 C6'         0.5360   -0.4160   -0.6260 ca        1 FL9      0.008000
     16 BR1        -1.7730    0.0630   -4.6870 br        1 FL9     -0.049100
     17 BR2         3.1140   -0.6240   -1.7510 br        1 FL9     -0.071100
     18 O1          0.1770   -0.0120    2.2240 os        1 FL9     -0.232200
     19 O3         -3.2500   -0.2780    3.2030 o         1 FL9     -0.534100
     20 O4         -2.3690    0.0030    6.2470 oh        1 FL9     -0.479100
     21 O6          2.3120    0.4770    6.5830 oh        1 FL9     -0.484100
     22 O2'        -2.8890    0.0020   -1.7620 oh        1 FL9     -0.483100
     23 O4'         1.2100   -0.2690   -4.2540 oh        1 FL9     -0.470100
     24 H5         -0.0930    0.3020    7.4760 ha        1 FL9      0.176000
     25 H7          2.3830    0.3100    3.8750 ha        1 FL9      0.160000
     26 H21        -2.7260   -0.3650    0.4860 ha        1 FL9      0.178000
     27 H6'         1.0780   -0.5350    0.3300 ha        1 FL9      0.176000
     28 HO4        -3.0730   -0.1060    5.5820 ho        1 FL9      0.454000
     29 HO6         3.1130    0.5220    6.0390 ho        1 FL9      0.429000
     30 HO2'       -3.2580    0.0860   -2.6590 ho        1 FL9      0.444000
     31 HO4'        2.1660   -0.3760   -4.1010 ho        1 FL9      0.443000
@<TRIPOS>BOND
     1    1    2 1   
     2    1    9 2   
     3    1   18 1   
     4    2    3 1   
     5    2   19 2   
     6    3    4 ar  
     7    3    8 ar  
     8    4    5 ar  
     9    4   20 1   
    10    5    6 ar  
    11    5   24 1   
    12    6    7 ar  
    13    6   21 1   
    14    7    8 ar  
    15    7   25 1   
    16    8   18 1   
    17    9   10 1   
    18    9   26 1   
    19   10   11 ar  
    20   10   15 ar  
    21   11   12 ar  
    22   11   22 1   
    23   12   13 ar  
    24   12   16 1   
    25   13   14 ar  
    26   13   23 1   
    27   14   15 ar  
    28   14   17 1   
    29   15   27 1   
    30   20   28 1   
    31   21   29 1   
    32   22   30 1   
    33   23   31 1   
@<TRIPOS>SUBSTRUCTURE
     1 FL9         1 TEMP              0 ****  ****    0 ROOT
