@<TRIPOS>MOLECULE
FLA
   12    11     1     0     0
SMALL
bcc


@<TRIPOS>ATOM
      1 N           1.9170    0.5770   -0.0830 n3        1 FLA     -0.888800
      2 CA          0.4740    0.6600   -0.2180 c3        1 FLA     -0.010500
      3 C          -0.0800    0.0750   -1.5710 c         1 FLA      0.898600
      4 O           0.6080   -0.8210   -2.1300 o         1 FLA     -0.811300
      5 CB         -0.2160   -0.0370    1.0030 c3        1 FLA      0.637900
      6 OXT        -1.1360    0.5890   -2.0160 o         1 FLA     -0.811300
      7 F1          0.0240    0.5780    2.2140 f         1 FLA     -0.261300
      8 F2         -1.5860   -0.0740    0.9480 f         1 FLA     -0.261300
      9 F3          0.1470   -1.3410    1.2340 f         1 FLA     -0.261300
     10 H           2.3210    1.0950   -0.8430 hn        1 FLA      0.347800
     11 H2          2.1850   -0.3860   -0.2110 hn        1 FLA      0.347800
     12 HA          0.1640    1.7410   -0.1600 h1        1 FLA      0.073700
@<TRIPOS>BOND
     1    1    2 1   
     2    1   10 1   
     3    1   11 1   
     4    2    3 1   
     5    2    5 1   
     6    2   12 1   
     7    3    4 1   
     8    3    6 1   
     9    5    7 1   
    10    5    8 1   
    11    5    9 1   
@<TRIPOS>SUBSTRUCTURE
     1 FLA         1 TEMP              0 ****  ****    0 ROOT
