@<TRIPOS>MOLECULE
FLB
   32    32     1     0     0
SMALL
bcc


@<TRIPOS>ATOM
      1 C1         -6.6790   -0.5170    1.4360 c3        1 FLB     -0.098100
      2 C2         -6.0770   -0.4500    0.0520 c3        1 FLB      0.131400
      3 C3         -4.1330    0.3240   -1.0600 c3        1 FLB      0.126400
      4 C6          0.2350   -1.2850   -0.5430 ca        1 FLB     -0.111500
      5 C5         -0.5550   -0.1170   -0.5120 ca        1 FLB      0.130100
      6 C7          1.5790   -1.1960   -0.2000 ca        1 FLB     -0.138300
      7 C4         -2.7320    0.8350   -0.7400 c3        1 FLB      0.121400
      8 C10         0.0020    1.1120   -0.1420 ca        1 FLB     -0.111500
      9 C8          2.1530    0.0230    0.1740 ca        1 FLB     -0.075000
     10 C9          1.3560    1.1650    0.1990 ca        1 FLB     -0.138300
     11 O1         -4.8020    0.1790    0.1890 os        1 FLB     -0.426600
     12 O2         -1.8670   -0.3030   -0.8840 os        1 FLB     -0.321900
     13 F6          3.0500    2.4180    1.4300 f         1 FLB     -0.231800
     14 C12         1.9710    2.5070    0.5860 c3        1 FLB      0.688700
     15 F4          2.4360    3.2360   -0.4820 f         1 FLB     -0.231800
     16 F5          1.1080    3.3630    1.2260 f         1 FLB     -0.231800
     17 C11         2.4510   -2.4480   -0.2480 c3        1 FLB      0.688700
     18 F3          1.7750   -3.6220   -0.0210 f         1 FLB     -0.231800
     19 F2          3.0760   -2.6460   -1.4560 f         1 FLB     -0.231800
     20 F1          3.4740   -2.4630    0.6680 f         1 FLB     -0.231800
     21 H1         -6.7980    0.5080    1.8610 hc        1 FLB      0.047367
     22 H2         -7.6790   -1.0090    1.3790 hc        1 FLB      0.047367
     23 H3         -6.0200   -1.1050    2.1190 hc        1 FLB      0.047367
     24 H4         -5.9420   -1.4760   -0.3820 h1        1 FLB      0.027700
     25 H5         -6.7200    0.1570   -0.6400 h1        1 FLB      0.027700
     26 H6         -4.6800    1.0740   -1.6900 h1        1 FLB      0.048700
     27 H7         -4.0870   -0.6600   -1.5970 h1        1 FLB      0.048700
     28 H8         -0.2210   -2.2460   -0.8310 ha        1 FLB      0.169000
     29 H9         -2.4210    1.6230   -1.4740 h1        1 FLB      0.060700
     30 H10        -2.6790    1.2270    0.3090 h1        1 FLB      0.060700
     31 H11        -0.6030    2.0310   -0.1090 ha        1 FLB      0.169000
     32 H12         3.2190    0.0750    0.4550 ha        1 FLB      0.172000
@<TRIPOS>BOND
     1    1    2 1   
     2    1   21 1   
     3    1   22 1   
     4    1   23 1   
     5    2   11 1   
     6    2   24 1   
     7    2   25 1   
     8    3    7 1   
     9    3   11 1   
    10    3   26 1   
    11    3   27 1   
    12    4    5 ar  
    13    4    6 ar  
    14    4   28 1   
    15    5    8 ar  
    16    5   12 1   
    17    6    9 ar  
    18    6   17 1   
    19    7   12 1   
    20    7   29 1   
    21    7   30 1   
    22    8   10 ar  
    23    8   31 1   
    24    9   10 ar  
    25    9   32 1   
    26   10   14 1   
    27   13   14 1   
    28   14   15 1   
    29   14   16 1   
    30   17   18 1   
    31   17   19 1   
    32   17   20 1   
@<TRIPOS>SUBSTRUCTURE
     1 FLB         1 TEMP              0 ****  ****    0 ROOT
