@<TRIPOS>MOLECULE
FLB
   32    29     1     0     0
SMALL
bcc


@<TRIPOS>ATOM
      1 C1          2.0380   -1.0270   -5.5540 c3        1 FLB     -0.216000
      2 C2          0.6930   -1.0830   -4.7440 c3        1 FLB     -0.019000
      3 C3         -0.2750   -0.4510   -2.6410 c3        1 FLB     -0.024000
      4 C6         -0.5130   -0.8180    1.7530 c1        1 FLB     -0.084000
      5 C5         -0.8060    0.2670    0.9570 c1        1 FLB      0.085000
      6 C7         -0.2860   -0.6420    3.1160 c1        1 FLB     -0.134000
      7 C4          0.0460    0.1940   -1.2850 c3        1 FLB     -0.029000
      8 C10        -0.8730    1.5250    1.5080 c1        1 FLB     -0.139000
      9 C8         -0.3540    0.6180    3.6680 c2        1 FLB     -0.075000
     10 C9         -0.6460    1.7010    2.8730 c1        1 FLB     -0.128000
     11 O1          0.8870   -0.4740   -3.4380 os        1 FLB     -0.283000
     12 O2         -1.1020    0.0800   -0.4140 os        1 FLB     -0.205000
     13 F6         -1.6600    2.8850    4.5830 f         1 FLB     -0.161000
     14 C12        -0.7590    3.0040    3.6140 c3        1 FLB      0.467000
     15 F4          0.4210    3.3190    4.1430 f         1 FLB     -0.161000
     16 F5         -1.1400    3.9660    2.7670 f         1 FLB     -0.161000
     17 C11        -0.2140   -1.8090    4.0680 c2        1 FLB      0.468000
     18 F3          0.0700   -2.9430    3.3740 f         1 FLB     -0.160333
     19 F2          0.7390   -1.5890    4.9660 f         1 FLB     -0.160333
     20 F1         -1.3920   -1.9490    4.6930 f         1 FLB     -0.160333
     21 H1          2.7510   -1.4540   -5.0350 hc        1 FLB      0.086667
     22 H2          1.9260   -1.5050   -6.4140 hc        1 FLB      0.086667
     23 H3          2.2770   -0.0930   -5.7290 hc        1 FLB      0.086667
     24 H4          0.4100   -2.0440   -4.6270 h1        1 FLB      0.067000
     25 H5         -0.0200   -0.5820   -5.2440 h1        1 FLB      0.067000
     26 H6         -0.5880   -1.3550   -2.5010 h1        1 FLB      0.088000
     27 H7         -0.9640    0.0640   -3.0890 h1        1 FLB      0.088000
     28 H8         -0.4650   -1.7180    1.3580 ha        1 FLB      0.175000
     29 H9          0.8080   -0.2610   -0.8800 h1        1 FLB      0.100500
     30 H10         0.2640    1.1420   -1.4170 h1        1 FLB      0.100500
     31 H11        -1.0800    2.2900    0.9480 ha        1 FLB      0.163000
     32 H12        -0.1950    0.7410    4.6200 ha        1 FLB      0.171000
@<TRIPOS>BOND
     1    1    2 1   
     2    1   21 1   
     3    1   22 1   
     4    1   23 1   
     5    2   11 1   
     6    2   24 1   
     7    2   25 1   
     8    3    7 1   
     9    3   11 1   
    10    3   26 1   
    11    3   27 1   
    12    4    6 1   
    13    4   28 1   
    14    5    8 1   
    15    5   12 1   
    16    6    9 1   
    17    7   12 1   
    18    7   29 1   
    19    7   30 1   
    20    8   31 1   
    21    9   10 1   
    22    9   32 1   
    23   10   14 1   
    24   13   14 1   
    25   14   15 1   
    26   14   16 1   
    27   17   18 1   
    28   17   19 1   
    29   17   20 1   
@<TRIPOS>SUBSTRUCTURE
     1 FLB         1 TEMP              0 ****  ****    0 ROOT
