@<TRIPOS>MOLECULE
FLB
   32    32     1     0     0
SMALL
bcc


@<TRIPOS>ATOM
      1 C1          0.1350    0.5960   -0.0270 c3        1 FLB     -0.098100
      2 C2          1.4880   -0.0760   -0.0150 c3        1 FLB      0.131400
      3 C3          3.3750   -0.3590    1.3890 c3        1 FLB      0.126400
      4 C6          3.5260   -2.6540    5.4700 ca        1 FLB     -0.111500
      5 C5          3.8210   -1.4230    4.8490 ca        1 FLB      0.130100
      6 C7          3.7050   -2.7740    6.8430 ca        1 FLB     -0.138300
      7 C4          3.7950   -0.1360    2.8390 c3        1 FLB      0.121400
      8 C10         4.2860   -0.3380    5.6000 ca        1 FLB     -0.111500
      9 C8          4.1660   -1.7000    7.6110 ca        1 FLB     -0.075000
     10 C9          4.4520   -0.4920    6.9790 ca        1 FLB     -0.138300
     11 O1          2.0760    0.2060    1.2560 os        1 FLB     -0.426600
     12 O2          3.6300   -1.4070    3.4860 os        1 FLB     -0.321900
     13 F6          4.5740    0.6870    9.1130 f         1 FLB     -0.231800
     14 C12         4.9760    0.6840    7.8000 c3        1 FLB      0.688700
     15 F4          6.3460    0.7520    7.8640 f         1 FLB     -0.231800
     16 F5          4.6000    1.9170    7.3260 f         1 FLB     -0.231800
     17 C11         3.4070   -4.1070    7.5260 c3        1 FLB      0.688700
     18 F3          2.4450   -4.8630    6.9040 f         1 FLB     -0.231800
     19 F2          4.4930   -4.9440    7.6090 f         1 FLB     -0.231800
     20 F1          2.9670   -3.9950    8.8220 f         1 FLB     -0.231800
     21 H1          0.2450    1.6980    0.1110 hc        1 FLB      0.047367
     22 H2         -0.3660    0.3970   -1.0040 hc        1 FLB      0.047367
     23 H3         -0.5030    0.2010    0.7990 hc        1 FLB      0.047367
     24 H4          2.1480    0.3270   -0.8280 h1        1 FLB      0.027700
     25 H5          1.3900   -1.1880   -0.1410 h1        1 FLB      0.027700
     26 H6          3.3550   -1.4540    1.1430 h1        1 FLB      0.048700
     27 H7          4.0840    0.1710    0.6990 h1        1 FLB      0.048700
     28 H8          3.1550   -3.4960    4.8640 ha        1 FLB      0.169000
     29 H9          3.1420    0.6330    3.3300 h1        1 FLB      0.060700
     30 H10         4.8730    0.1650    2.8970 h1        1 FLB      0.060700
     31 H11         4.5170    0.6310    5.1310 ha        1 FLB      0.169000
     32 H12         4.2910   -1.8080    8.7020 ha        1 FLB      0.172000
@<TRIPOS>BOND
     1    1    2 1   
     2    1   21 1   
     3    1   22 1   
     4    1   23 1   
     5    2   11 1   
     6    2   24 1   
     7    2   25 1   
     8    3    7 1   
     9    3   11 1   
    10    3   26 1   
    11    3   27 1   
    12    4    5 ar  
    13    4    6 ar  
    14    4   28 1   
    15    5    8 ar  
    16    5   12 1   
    17    6    9 ar  
    18    6   17 1   
    19    7   12 1   
    20    7   29 1   
    21    7   30 1   
    22    8   10 ar  
    23    8   31 1   
    24    9   10 ar  
    25    9   32 1   
    26   10   14 1   
    27   13   14 1   
    28   14   15 1   
    29   14   16 1   
    30   17   18 1   
    31   17   19 1   
    32   17   20 1   
@<TRIPOS>SUBSTRUCTURE
     1 FLB         1 TEMP              0 ****  ****    0 ROOT
