@<TRIPOS>MOLECULE
FLB
   32    32     1     0     0
SMALL
bcc


@<TRIPOS>ATOM
      1 C1          0.1160    0.5810   -0.0200 c3        1 FLB     -0.098100
      2 C2          1.4730   -0.0840   -0.0110 c3        1 FLB      0.131400
      3 C3          3.3650   -0.3570    1.3890 c3        1 FLB      0.126400
      4 C6          3.5400   -2.6530    5.4680 ca        1 FLB     -0.111500
      5 C5          3.8260   -1.4200    4.8470 ca        1 FLB      0.130100
      6 C7          3.7230   -2.7730    6.8410 ca        1 FLB     -0.138300
      7 C4          3.7860   -0.1320    2.8380 c3        1 FLB      0.121400
      8 C10         4.2850   -0.3320    5.5980 ca        1 FLB     -0.111500
      9 C8          4.1790   -1.6960    7.6090 ca        1 FLB     -0.075000
     10 C9          4.4560   -0.4860    6.9770 ca        1 FLB     -0.138300
     11 O1          2.0620    0.2010    1.2590 os        1 FLB     -0.426600
     12 O2          3.6310   -1.4050    3.4850 os        1 FLB     -0.321900
     13 F6          4.5760    0.6930    9.1110 f         1 FLB     -0.231800
     14 C12         4.9730    0.6930    7.7960 c3        1 FLB      0.688700
     15 F4          6.3430    0.7710    7.8570 f         1 FLB     -0.231800
     16 F5          4.5870    1.9240    7.3250 f         1 FLB     -0.231800
     17 C11         3.4370   -4.1080    7.5240 c3        1 FLB      0.688700
     18 F3          2.4780   -4.8700    6.9040 f         1 FLB     -0.231800
     19 F2          4.5280   -4.9390    7.6040 f         1 FLB     -0.231800
     20 F1          2.9990   -4.0000    8.8210 f         1 FLB     -0.231800
     21 H1          0.2210    1.6830    0.1180 hc        1 FLB      0.047367
     22 H2         -0.3850    0.3800   -0.9970 hc        1 FLB      0.047367
     23 H3         -0.5180    0.1820    0.8070 hc        1 FLB      0.047367
     24 H4          2.1300    0.3230   -0.8260 h1        1 FLB      0.027700
     25 H5          1.3810   -1.1960   -0.1380 h1        1 FLB      0.027700
     26 H6          3.3500   -1.4520    1.1430 h1        1 FLB      0.048700
     27 H7          4.0700    0.1760    0.6980 h1        1 FLB      0.048700
     28 H8          3.1740   -3.4980    4.8630 ha        1 FLB      0.169000
     29 H9          3.1300    0.6320    3.3310 h1        1 FLB      0.060700
     30 H10         4.8620    0.1750    2.8940 h1        1 FLB      0.060700
     31 H11         4.5080    0.6390    5.1290 ha        1 FLB      0.169000
     32 H12         4.3080   -1.8030    8.6990 ha        1 FLB      0.172000
@<TRIPOS>BOND
     1    1    2 1   
     2    1   21 1   
     3    1   22 1   
     4    1   23 1   
     5    2   11 1   
     6    2   24 1   
     7    2   25 1   
     8    3    7 1   
     9    3   11 1   
    10    3   26 1   
    11    3   27 1   
    12    4    5 ar  
    13    4    6 ar  
    14    4   28 1   
    15    5    8 ar  
    16    5   12 1   
    17    6    9 ar  
    18    6   17 1   
    19    7   12 1   
    20    7   29 1   
    21    7   30 1   
    22    8   10 ar  
    23    8   31 1   
    24    9   10 ar  
    25    9   32 1   
    26   10   14 1   
    27   13   14 1   
    28   14   15 1   
    29   14   16 1   
    30   17   18 1   
    31   17   19 1   
    32   17   20 1   
@<TRIPOS>SUBSTRUCTURE
     1 FLB         1 TEMP              0 ****  ****    0 ROOT
