@<TRIPOS>MOLECULE
FLC
   18    17     1     0     0
SMALL
bcc


@<TRIPOS>ATOM
      1 CAC         0.4220    0.8790   -0.1510 c         1 FLC      0.914600
      2 CA          1.7320    0.2280    0.2830 c3        1 FLC     -0.167900
      3 CB          1.8730   -0.3350    1.7000 c3        1 FLC      0.097800
      4 CBC         1.1670   -1.7230    1.8260 c         1 FLC      0.892600
      5 CG          3.3510   -0.5740    2.0630 c3        1 FLC     -0.167900
      6 CGC         4.3720    0.5610    2.0880 c         1 FLC      0.914600
      7 OA1        -0.3680    1.4510    0.6650 o         1 FLC     -0.907800
      8 OA2         0.1560    0.8970   -1.4020 o         1 FLC     -0.907800
      9 OB1         0.1690   -1.8470    2.6030 o         1 FLC     -0.895300
     10 OB2         1.6190   -2.7260    1.1850 o         1 FLC     -0.895300
     11 OG1         4.9800    0.8080    3.1850 o         1 FLC     -0.907800
     12 OG2         4.7260    1.1630    1.0250 o         1 FLC     -0.907800
     13 OHB         1.3340    0.5540    2.6710 oh        1 FLC     -0.627800
     14 HA1         2.5300    1.0100    0.1530 hc        1 FLC      0.035950
     15 HA2         1.9500   -0.6110   -0.4280 hc        1 FLC      0.035950
     16 HG1         3.7270   -1.3320    1.3250 hc        1 FLC      0.035950
     17 HG2         3.3580   -1.0440    3.0820 hc        1 FLC      0.035950
     18 HOB         0.3940    0.6250    2.4490 ho        1 FLC      0.422000
@<TRIPOS>BOND
     1    1    2 1   
     2    1    7 1   
     3    1    8 1   
     4    2    3 1   
     5    2   14 1   
     6    2   15 1   
     7    3    4 1   
     8    3    5 1   
     9    3   13 1   
    10    4    9 1   
    11    4   10 1   
    12    5    6 1   
    13    5   16 1   
    14    5   17 1   
    15    6   11 1   
    16    6   12 1   
    17   13   18 1   
@<TRIPOS>SUBSTRUCTURE
     1 FLC         1 TEMP              0 ****  ****    0 ROOT
