@<TRIPOS>MOLECULE
FLC
   18    16     1     0     0
SMALL
bcc


@<TRIPOS>ATOM
      1 CAC        -2.0530    0.1600   -1.3580 c1        1 FLC      0.334000
      2 CA         -0.5400    0.1600   -1.3580 c2        1 FLC     -0.218000
      3 CB         -0.0360    0.1600    0.0680 c3        1 FLC      0.076000
      4 CBC        -0.6670   -0.9870    0.8260 c2        1 FLC      0.312000
      5 CG          1.4690   -0.0010    0.0710 c3        1 FLC     -0.175000
      6 CGC         1.9550   -0.1650    1.4940 c2        1 FLC      0.334000
      7 OA1        -2.6820    1.2350   -1.1750 o         1 FLC     -0.643500
      8 OA2        -2.6820   -0.9150   -1.5410 o         1 FLC     -0.643500
      9 OB1        -1.3730   -0.7560    1.8430 o         1 FLC     -0.630000
     10 OB2        -0.4870   -2.1710    0.4400 o         1 FLC     -0.630000
     11 OG1         2.0960    0.8460    2.2310 o         1 FLC     -0.641500
     12 OG2         2.2200   -1.3110    1.9410 o         1 FLC     -0.641500
     13 OHB        -0.3780    1.3770    0.6870 oh        1 FLC     -0.355000
     14 HA1        -0.2140   -0.6370   -1.8190 ha        1 FLC      0.088000
     15 HA2        -0.2140    0.9570   -1.8190 ha        1 FLC      0.088000
     16 HG1         1.7120   -0.7910   -0.4490 hc        1 FLC      0.062500
     17 HG2         1.8820    0.7890   -0.3250 hc        1 FLC      0.062500
     18 HOB        -0.0070    2.0490    0.2420 ho        1 FLC      0.221000
@<TRIPOS>BOND
     1    1    7 1   
     2    1    8 1   
     3    2    3 1   
     4    2   14 1   
     5    2   15 1   
     6    3    4 1   
     7    3    5 1   
     8    3   13 1   
     9    4    9 1   
    10    4   10 1   
    11    5    6 1   
    12    5   16 1   
    13    5   17 1   
    14    6   11 1   
    15    6   12 1   
    16   13   18 1   
@<TRIPOS>SUBSTRUCTURE
     1 FLC         1 TEMP              0 ****  ****    0 ROOT
