@<TRIPOS>MOLECULE
FLC
   18    17     1     0     0
SMALL
bcc


@<TRIPOS>ATOM
      1 CAC         0.4430    0.8720   -0.1780 c         1 FLC      0.914600
      2 CA          1.7370    0.2010    0.2740 c3        1 FLC     -0.167900
      3 CB          1.8690   -0.3180    1.7080 c3        1 FLC      0.097800
      4 CBC         1.1250   -1.6800    1.8830 c         1 FLC      0.892600
      5 CG          3.3410   -0.5840    2.0740 c3        1 FLC     -0.167900
      6 CGC         4.3930    0.5230    2.0570 c         1 FLC      0.914600
      7 OA1        -0.3280    1.4930    0.6200 o         1 FLC     -0.907800
      8 OA2         0.1720    0.8560   -1.4290 o         1 FLC     -0.907800
      9 OB1         0.1280   -1.7500    2.6680 o         1 FLC     -0.895300
     10 OB2         1.5470   -2.7160    1.2760 o         1 FLC     -0.895300
     11 OG1         5.0110    0.7910    3.1430 o         1 FLC     -0.907800
     12 OG2         4.7580    1.0780    0.9720 o         1 FLC     -0.907800
     13 OHB         1.3590    0.6190    2.6510 oh        1 FLC     -0.627800
     14 HA1         2.5550    0.9560    0.1140 hc        1 FLC      0.035950
     15 HA2         1.9290   -0.6670   -0.4100 hc        1 FLC      0.035950
     16 HG1         3.6930   -1.3770    1.3610 hc        1 FLC      0.035950
     17 HG2         3.3400   -1.0190    3.1090 hc        1 FLC      0.035950
     18 HOB         0.4190    0.7080    2.4290 ho        1 FLC      0.422000
@<TRIPOS>BOND
     1    1    2 1   
     2    1    7 1   
     3    1    8 1   
     4    2    3 1   
     5    2   14 1   
     6    2   15 1   
     7    3    4 1   
     8    3    5 1   
     9    3   13 1   
    10    4    9 1   
    11    4   10 1   
    12    5    6 1   
    13    5   16 1   
    14    5   17 1   
    15    6   11 1   
    16    6   12 1   
    17   13   18 1   
@<TRIPOS>SUBSTRUCTURE
     1 FLC         1 TEMP              0 ****  ****    0 ROOT
