@<TRIPOS>MOLECULE
FLC
   18    17     1     0     0
SMALL
bcc


@<TRIPOS>ATOM
      1 CAC        -2.2160    1.5560    0.2530 c         1 FLC      0.914600
      2 CA         -1.4890    0.4170   -0.4580 c3        1 FLC     -0.167900
      3 CB         -0.0610   -0.0100   -0.0670 c3        1 FLC      0.097800
      4 CBC         0.3000   -1.2130   -0.9960 c         1 FLC      0.892600
      5 CG          0.9320    1.1410   -0.2460 c3        1 FLC     -0.167900
      6 CGC         2.3060    1.0700    0.4150 c         1 FLC      0.914600
      7 OA1        -3.3210    1.2970    0.8410 o         1 FLC     -0.907800
      8 OA2        -1.8240    2.7620    0.1550 o         1 FLC     -0.907800
      9 OB1         0.6400   -2.3220   -0.4760 o         1 FLC     -0.895300
     10 OB2         0.2100   -1.0900   -2.2590 o         1 FLC     -0.895300
     11 OG1         2.5250    0.4210    1.4860 o         1 FLC     -0.907800
     12 OG2         3.2510    1.7550   -0.1100 o         1 FLC     -0.907800
     13 OHB        -0.1050   -0.4570    1.2830 oh        1 FLC     -0.627800
     14 HA1        -1.4360    0.6950   -1.5450 hc        1 FLC      0.035950
     15 HA2        -2.1340   -0.4960   -0.3600 hc        1 FLC      0.035950
     16 HG1         1.0890    1.2740   -1.3480 hc        1 FLC      0.035950
     17 HG2         0.4410    2.0720    0.1490 hc        1 FLC      0.035950
     18 HOB         0.7900   -0.7780    1.4680 ho        1 FLC      0.422000
@<TRIPOS>BOND
     1    1    2 1   
     2    1    7 1   
     3    1    8 1   
     4    2    3 1   
     5    2   14 1   
     6    2   15 1   
     7    3    4 1   
     8    3    5 1   
     9    3   13 1   
    10    4    9 1   
    11    4   10 1   
    12    5    6 1   
    13    5   16 1   
    14    5   17 1   
    15    6   11 1   
    16    6   12 1   
    17   13   18 1   
@<TRIPOS>SUBSTRUCTURE
     1 FLC         1 TEMP              0 ****  ****    0 ROOT
