@<TRIPOS>MOLECULE
FLD
   98   105     1     0     0
SMALL
bcc


@<TRIPOS>ATOM
      1 C1         -0.3890   -0.1190    0.5290 ca        1 FLD      0.021700
      2 N2          0.8970   -0.4800    0.2560 na        1 FLD     -0.020100
      3 C3          1.7460   -0.8570    1.2950 ca        1 FLD     -0.137300
      4 C4          1.3030   -0.8800    2.5970 ca        1 FLD     -0.063000
      5 C5         -0.4930   -0.5140    4.2560 ca        1 FLD     -0.121000
      6 C6         -1.7840   -0.1360    4.5740 ca        1 FLD     -0.019000
      7 N7         -3.9720    0.6740    3.6100 na        1 FLD     -0.124300
      8 C8         -5.6800    1.4260    1.8930 ca        1 FLD     -0.083000
      9 C9         -5.8800    1.6400    0.5420 ca        1 FLD     -0.133000
     10 C10        -4.8420    1.3960   -0.3920 ca        1 FLD      0.146100
     11 O10        -4.9740    1.5790   -1.7490 os        1 FLD     -0.334900
     12 C11        -3.5830    0.9360    0.0100 ca        1 FLD     -0.152000
     13 C12        -0.0310   -0.5130    2.9240 ca        1 FLD      0.008000
     14 C13        -2.6540    0.2560    3.5320 ca        1 FLD     -0.002200
     15 C14        -4.4210    0.9630    2.3150 ca        1 FLD     -0.027200
     16 C15        -3.3530    0.7140    1.3680 cp        1 FLD     -0.060000
     17 C16        -2.2240    0.2640    2.1440 cp        1 FLD     -0.065000
     18 C17        -0.9020   -0.1200    1.8430 ca        1 FLD     -0.021000
     19 C18        -6.2160    2.1170   -2.2080 c3        1 FLD      0.106700
     20 C19         1.4290   -0.3870   -1.0910 c3        1 FLD     -0.006700
     21 C20         1.6790   -1.7780   -1.7350 c3        1 FLD      0.074800
     22 N21         2.3350   -1.6640   -3.0710 ny        1 FLD     -0.762000
     23 C22         2.6350   -3.0100   -3.6670 c3        1 FLD      0.106800
     24 C23         3.3440   -2.9100   -5.0170 c3        1 FLD     -0.109400
     25 C24         3.6310   -4.3050   -5.5480 c3        1 FLD     -0.077400
     26 C1X         7.3040   -8.4230  -13.5440 ca        1 FLD      0.021700
     27 N2X         7.7690   -8.0600  -12.3150 na        1 FLD     -0.020100
     28 C3X         9.1010   -7.6810  -12.1640 ca        1 FLD     -0.137300
     29 C4X         9.9580   -7.6570  -13.2400 ca        1 FLD     -0.063000
     30 C5X        10.3820   -8.0250  -15.6480 ca        1 FLD     -0.121000
     31 C6X         9.9520   -8.4050  -16.9050 ca        1 FLD     -0.019000
     32 N7X         7.9590   -9.2200  -18.2230 na        1 FLD     -0.124300
     33 C8X         5.5930   -9.9770  -18.7310 ca        1 FLD     -0.083000
     34 C9X         4.3490  -10.1920  -18.1690 ca        1 FLD     -0.133000
     35 CAX         4.1250   -9.9480  -16.7910 ca        1 FLD      0.146100
     36 OAX         2.9110  -10.1310  -16.1680 os        1 FLD     -0.334900
     37 CBX         5.1420   -9.4850  -15.9500 ca        1 FLD     -0.152000
     38 CCX         9.5110   -8.0270  -14.5390 ca        1 FLD      0.008000
     39 CDX         8.6060   -8.7990  -17.0740 ca        1 FLD     -0.002200
     40 CEX         6.6280   -9.5110  -17.9010 ca        1 FLD     -0.027200
     41 CFX         6.4090   -9.2610  -16.4910 cp        1 FLD     -0.060000
     42 CGX         7.6710   -8.8090  -15.9600 cp        1 FLD     -0.065000
     43 CHX         8.1320   -8.4220  -14.6870 ca        1 FLD     -0.021000
     44 CIX         1.8540  -10.6720  -16.9630 c3        1 FLD      0.106700
     45 CJX         6.9230   -8.1540  -11.1390 c3        1 FLD     -0.006700
     46 CKX         6.5160   -6.7640  -10.5820 c3        1 FLD      0.074800
     47 NLX         5.7460   -6.8780   -9.3070 ny        1 FLD     -0.762000
     48 CMX         5.4050   -5.5320   -8.7340 c3        1 FLD      0.106800
     49 CNX         4.6520   -5.6320   -7.4090 c3        1 FLD     -0.109400
     50 COX         4.3590   -4.2370   -6.8800 c3        1 FLD     -0.077400
     51 H1         -1.0310    0.1940   -0.3200 h4        1 FLD      0.199000
     52 H3          2.7850   -1.1090    1.0210 h4        1 FLD      0.179000
     53 H4          1.9990   -1.1800    3.4030 ha        1 FLD      0.200000
     54 H5          0.1980   -0.8190    5.0620 ha        1 FLD      0.180000
     55 H6         -2.1280   -0.1370    5.6240 ha        1 FLD      0.188000
     56 HN7        -4.5040    0.7740    4.4400 hn        1 FLD      0.339700
     57 H8         -6.4870    1.6160    2.6190 ha        1 FLD      0.175000
     58 H9         -6.8610    2.0050    0.1940 ha        1 FLD      0.175000
     59 H11        -2.8160    0.7670   -0.7530 ha        1 FLD      0.122000
     60 H181       -7.0530    1.4140   -1.9820 h1        1 FLD      0.063700
     61 H182       -6.0590    2.2040   -3.3140 h1        1 FLD      0.063700
     62 H183       -6.4010    3.1210   -1.7560 h1        1 FLD      0.063700
     63 H191        0.7050    0.1970   -1.7320 h1        1 FLD      0.105200
     64 H192        2.4010    0.1880   -1.0410 h1        1 FLD      0.105200
     65 H201        0.7020   -2.3260   -1.8700 hx        1 FLD      0.126700
     66 H202        2.3480   -2.3980   -1.0680 hx        1 FLD      0.126700
     67 HN21        3.2130   -1.1360   -2.9800 hn        1 FLD      0.459800
     68 HN22        1.7220   -1.1420   -3.7120 hn        1 FLD      0.459800
     69 H221        3.2800   -3.5740   -2.9330 hx        1 FLD      0.116700
     70 H222        1.6550   -3.5580   -3.7830 hx        1 FLD      0.116700
     71 H231        4.3100   -2.3470   -4.9090 hc        1 FLD      0.077200
     72 H232        2.7030   -2.3560   -5.7540 hc        1 FLD      0.077200
     73 H241        2.6680   -4.8670   -5.6750 hc        1 FLD      0.067700
     74 H242        4.2580   -4.8700   -4.8070 hc        1 FLD      0.067700
     75 H3X         9.4330   -7.4280  -11.1420 h4        1 FLD      0.179000
     76 H4X        11.0110   -7.3560  -13.0910 ha        1 FLD      0.200000
     77 H5X        11.4330   -7.7180  -15.5020 ha        1 FLD      0.180000
     78 H6X        10.6490   -8.4040  -17.7620 ha        1 FLD      0.188000
     79 HN7X        8.3700   -9.3200  -19.1200 hn        1 FLD      0.339700
     80 H8X         5.7680  -10.1680  -19.8020 ha        1 FLD      0.175000
     81 H9X         3.5270  -10.5600  -18.8050 ha        1 FLD      0.175000
     82 H11X        4.9150   -9.3150  -14.8920 ha        1 FLD      0.122000
     83 HX81        1.5910   -9.9700  -17.7910 h1        1 FLD      0.063700
     84 HX82        1.0090  -10.7600  -16.2340 h1        1 FLD      0.063700
     85 HX83        2.1370  -11.6770  -17.3620 h1        1 FLD      0.063700
     86 HX91        7.4930   -8.7280  -10.3480 h1        1 FLD      0.105200
     87 HX92        5.9940   -8.7400  -11.4020 h1        1 FLD      0.105200
     88 HX01        5.8730   -6.2160  -11.3320 hx        1 FLD      0.126700
     89 HX02        7.4370   -6.1420  -10.3800 hx        1 FLD      0.126700
     90 HN1X        6.2980   -7.4050   -8.6180 hn        1 FLD      0.459800
     91 HN2X        4.8760   -7.4000   -9.4770 hn        1 FLD      0.459800
     92 HX21        4.7780   -4.9840   -9.4960 hx        1 FLD      0.116700
     93 HX22        6.3710   -4.9670   -8.5880 hx        1 FLD      0.116700
     94 HX31        3.6860   -6.1870   -7.5490 hc        1 FLD      0.077200
     95 HX32        5.2650   -6.1940   -6.6540 hc        1 FLD      0.077200
     96 HX41        3.7320   -3.6760   -7.6230 hc        1 FLD      0.067700
     97 HX42        5.3210   -3.6720   -6.7530 hc        1 FLD      0.067700
     98 H1X         6.2430   -8.7390  -13.6250 h4        1 FLD      0.199000
@<TRIPOS>BOND
     1    1    2 1   
     2    1   18 ar  
     3    1   51 1   
     4    2    3 2   
     5    2   20 1   
     6    3    4 ar  
     7    3   52 1   
     8    4   13 ar  
     9    4   53 1   
    10    5    6 ar  
    11    5   13 ar  
    12    5   54 1   
    13    6   14 ar  
    14    6   55 1   
    15    7   14 1   
    16    7   15 1   
    17    7   56 1   
    18    8    9 ar  
    19    8   15 ar  
    20    8   57 1   
    21    9   10 ar  
    22    9   58 1   
    23   10   11 1   
    24   10   12 ar  
    25   11   19 1   
    26   12   16 ar  
    27   12   59 1   
    28   13   18 ar  
    29   14   17 ar  
    30   15   16 ar  
    31   16   17 1   
    32   17   18 ar  
    33   19   60 1   
    34   19   61 1   
    35   19   62 1   
    36   20   21 1   
    37   20   63 1   
    38   20   64 1   
    39   21   22 1   
    40   21   65 1   
    41   21   66 1   
    42   22   23 1   
    43   22   67 1   
    44   22   68 1   
    45   23   24 1   
    46   23   69 1   
    47   23   70 1   
    48   24   25 1   
    49   24   71 1   
    50   24   72 1   
    51   25   50 1   
    52   25   73 1   
    53   25   74 1   
    54   26   27 1   
    55   26   43 ar  
    56   26   98 1   
    57   27   28 2   
    58   27   45 1   
    59   28   29 ar  
    60   28   75 1   
    61   29   38 ar  
    62   29   76 1   
    63   30   31 ar  
    64   30   38 ar  
    65   30   77 1   
    66   31   39 ar  
    67   31   78 1   
    68   32   39 1   
    69   32   40 1   
    70   32   79 1   
    71   33   34 ar  
    72   33   40 ar  
    73   33   80 1   
    74   34   35 ar  
    75   34   81 1   
    76   35   36 1   
    77   35   37 ar  
    78   36   44 1   
    79   37   41 ar  
    80   37   82 1   
    81   38   43 ar  
    82   39   42 ar  
    83   40   41 ar  
    84   41   42 1   
    85   42   43 ar  
    86   44   83 1   
    87   44   84 1   
    88   44   85 1   
    89   45   46 1   
    90   45   86 1   
    91   45   87 1   
    92   46   47 1   
    93   46   88 1   
    94   46   89 1   
    95   47   48 1   
    96   47   90 1   
    97   47   91 1   
    98   48   49 1   
    99   48   92 1   
   100   48   93 1   
   101   49   50 1   
   102   49   94 1   
   103   49   95 1   
   104   50   96 1   
   105   50   97 1   
@<TRIPOS>SUBSTRUCTURE
     1 FLD         1 TEMP              0 ****  ****    0 ROOT
