@<TRIPOS>MOLECULE
FLD
   98   105     1     0     0
SMALL
bcc


@<TRIPOS>ATOM
      1 C1         -0.3940   -0.1370    0.5360 ca        1 FLD      0.021700
      2 N2          0.8900   -0.5060    0.2690 na        1 FLD     -0.020100
      3 C3          1.7290   -0.8970    1.3100 ca        1 FLD     -0.137300
      4 C4          1.2780   -0.9270    2.6090 ca        1 FLD     -0.063000
      5 C5         -0.5260   -0.5580    4.2600 ca        1 FLD     -0.121000
      6 C6         -1.8150   -0.1720    4.5720 ca        1 FLD     -0.019000
      7 N7         -3.9900    0.6630    3.6010 na        1 FLD     -0.124300
      8 C8         -5.6810    1.4430    1.8790 ca        1 FLD     -0.083000
      9 C9         -5.8710    1.6680    0.5290 ca        1 FLD     -0.133000
     10 C10        -4.8290    1.4230   -0.4000 ca        1 FLD      0.146100
     11 O10        -4.9510    1.6170   -1.7570 os        1 FLD     -0.334900
     12 C11        -3.5770    0.9490    0.0060 ca        1 FLD     -0.152000
     13 C12        -0.0560   -0.5510    2.9300 ca        1 FLD      0.008000
     14 C13        -2.6760    0.2340    3.5280 ca        1 FLD     -0.002200
     15 C14        -4.4290    0.9660    2.3050 ca        1 FLD     -0.027200
     16 C15        -3.3570    0.7150    1.3630 cp        1 FLD     -0.060000
     17 C16        -2.2360    0.2500    2.1420 cp        1 FLD     -0.065000
     18 C17        -0.9160   -0.1430    1.8470 ca        1 FLD     -0.021000
     19 C18        -6.1850    2.1700   -2.2200 c3        1 FLD      0.106700
     20 C19         1.4310   -0.4080   -1.0750 c3        1 FLD     -0.006700
     21 C20         1.6760   -1.7950   -1.7260 c3        1 FLD      0.074800
     22 N21         2.3380   -1.6770   -3.0590 n4        1 FLD     -0.762000
     23 C22         2.6350   -3.0200   -3.6610 c3        1 FLD      0.106800
     24 C23         3.3480   -2.9160   -5.0080 c3        1 FLD     -0.109400
     25 C24         3.6360   -4.3090   -5.5450 c3        1 FLD     -0.077400
     26 C1X         7.3090   -8.4080  -13.5500 ca        1 FLD      0.021700
     27 N2X         7.7770   -8.0390  -12.3240 na        1 FLD     -0.020100
     28 C3X         9.1060   -7.6480  -12.1800 ca        1 FLD     -0.137300
     29 C4X         9.9570   -7.6190  -13.2600 ca        1 FLD     -0.063000
     30 C5X        10.3740   -7.9870  -15.6690 ca        1 FLD     -0.121000
     31 C6X         9.9410   -8.3730  -16.9230 ca        1 FLD     -0.019000
     32 N7X         7.9500   -9.2070  -18.2310 na        1 FLD     -0.124300
     33 C8X         5.5880   -9.9860  -18.7270 ca        1 FLD     -0.083000
     34 C9X         4.3480  -10.2110  -18.1580 ca        1 FLD     -0.133000
     35 CAX         4.1280   -9.9660  -16.7790 ca        1 FLD      0.146100
     36 OAX         2.9200  -10.1590  -16.1510 os        1 FLD     -0.334900
     37 CBX         5.1460   -9.4930  -15.9440 ca        1 FLD     -0.152000
     38 CCX         9.5080   -7.9940  -14.5560 ca        1 FLD      0.008000
     39 CDX         8.5980   -8.7790  -17.0850 ca        1 FLD     -0.002200
     40 CEX         6.6220   -9.5090  -17.9020 ca        1 FLD     -0.027200
     41 CFX         6.4070   -9.2590  -16.4910 cp        1 FLD     -0.060000
     42 CGX         7.6680   -8.7940  -15.9670 cp        1 FLD     -0.065000
     43 CHX         8.1310   -8.4020  -14.6970 ca        1 FLD     -0.021000
     44 CIX         1.8640  -10.7120  -16.9410 c3        1 FLD      0.106700
     45 CJX         6.9370   -8.1370  -11.1450 c3        1 FLD     -0.006700
     46 CKX         6.5210   -6.7500  -10.5860 c3        1 FLD      0.074800
     47 NLX         5.7560   -6.8680   -9.3100 n4        1 FLD     -0.762000
     48 CMX         5.4100   -5.5250   -8.7350 c3        1 FLD      0.106800
     49 CNX         4.6600   -5.6290   -7.4080 c3        1 FLD     -0.109400
     50 COX         4.3640   -4.2360   -6.8760 c3        1 FLD     -0.077400
     51 H1         -1.0290    0.1880   -0.3150 h4        1 FLD      0.199000
     52 H3          2.7680   -1.1560    1.0400 h4        1 FLD      0.179000
     53 H4          1.9660   -1.2380    3.4170 ha        1 FLD      0.200000
     54 H5          0.1580   -0.8760    5.0670 ha        1 FLD      0.180000
     55 H6         -2.1660   -0.1780    5.6200 ha        1 FLD      0.188000
     56 HN7        -4.5270    0.7610    4.4290 hn        1 FLD      0.339700
     57 H8         -6.4910    1.6340    2.6020 ha        1 FLD      0.175000
     58 H9         -6.8460    2.0450    0.1770 ha        1 FLD      0.175000
     59 H11        -2.8060    0.7800   -0.7540 ha        1 FLD      0.122000
     60 H181       -7.0300    1.4720   -2.0050 h1        1 FLD      0.063700
     61 H182       -6.0210    2.2640   -3.3240 h1        1 FLD      0.063700
     62 H183       -6.3640    3.1720   -1.7610 h1        1 FLD      0.063700
     63 H191        0.7150    0.1860   -1.7160 h1        1 FLD      0.105200
     64 H192        2.4070    0.1610   -1.0140 h1        1 FLD      0.105200
     65 H201        0.6960   -2.3370   -1.8690 hx        1 FLD      0.126700
     66 H202        2.3380   -2.4240   -1.0610 hx        1 FLD      0.126700
     67 HN21        3.2180   -1.1520   -2.9610 hn        1 FLD      0.459800
     68 HN22        1.7300   -1.1490   -3.6990 hn        1 FLD      0.459800
     69 H221        3.2780   -3.5890   -2.9280 hx        1 FLD      0.116700
     70 H222        1.6550   -3.5660   -3.7820 hx        1 FLD      0.116700
     71 H231        4.3140   -2.3540   -4.8960 hc        1 FLD      0.077200
     72 H232        2.7090   -2.3580   -5.7450 hc        1 FLD      0.077200
     73 H241        2.6720   -4.8700   -5.6740 hc        1 FLD      0.067700
     74 H242        4.2610   -4.8760   -4.8050 hc        1 FLD      0.067700
     75 H3X         9.4400   -7.3900  -11.1590 h4        1 FLD      0.179000
     76 H4X        11.0090   -7.3080  -13.1160 ha        1 FLD      0.200000
     77 H5X        11.4230   -7.6700  -15.5280 ha        1 FLD      0.180000
     78 H6X        10.6340   -8.3670  -17.7840 ha        1 FLD      0.188000
     79 HN7X        8.3580   -9.3060  -19.1300 hn        1 FLD      0.339700
     80 H8X         5.7590  -10.1770  -19.7980 ha        1 FLD      0.175000
     81 H9X         3.5260  -10.5870  -18.7900 ha        1 FLD      0.175000
     82 H11X        4.9210   -9.3230  -14.8850 ha        1 FLD      0.122000
     83 HX81        1.5900  -10.0130  -17.7680 h1        1 FLD      0.063700
     84 HX82        1.0220  -10.8060  -16.2060 h1        1 FLD      0.063700
     85 HX83        2.1540  -11.7140  -17.3390 h1        1 FLD      0.063700
     86 HX91        7.5140   -8.7060  -10.3550 h1        1 FLD      0.105200
     87 HX92        6.0110   -8.7310  -11.4020 h1        1 FLD      0.105200
     88 HX01        5.8720   -6.2070  -11.3350 hx        1 FLD      0.126700
     89 HX02        7.4390   -6.1210  -10.3880 hx        1 FLD      0.126700
     90 HN1X        6.3130   -7.3930   -8.6220 hn        1 FLD      0.459800
     91 HN2X        4.8880   -7.3950   -9.4770 hn        1 FLD      0.459800
     92 HX21        4.7800   -4.9790   -9.4950 hx        1 FLD      0.116700
     93 HX22        6.3740   -4.9560   -8.5890 hx        1 FLD      0.116700
     94 HX31        3.6950   -6.1860   -7.5480 hc        1 FLD      0.077200
     95 HX32        5.2750   -6.1910   -6.6550 hc        1 FLD      0.077200
     96 HX41        3.7360   -3.6740   -7.6180 hc        1 FLD      0.067700
     97 HX42        5.3250   -3.6690   -6.7480 hc        1 FLD      0.067700
     98 H1X         6.2500   -8.7320  -13.6260 h4        1 FLD      0.199000
@<TRIPOS>BOND
     1    1    2 1   
     2    1   18 ar  
     3    1   51 1   
     4    2    3 2   
     5    2   20 1   
     6    3    4 ar  
     7    3   52 1   
     8    4   13 ar  
     9    4   53 1   
    10    5    6 ar  
    11    5   13 ar  
    12    5   54 1   
    13    6   14 ar  
    14    6   55 1   
    15    7   14 1   
    16    7   15 1   
    17    7   56 1   
    18    8    9 ar  
    19    8   15 ar  
    20    8   57 1   
    21    9   10 ar  
    22    9   58 1   
    23   10   11 1   
    24   10   12 ar  
    25   11   19 1   
    26   12   16 ar  
    27   12   59 1   
    28   13   18 ar  
    29   14   17 ar  
    30   15   16 ar  
    31   16   17 1   
    32   17   18 ar  
    33   19   60 1   
    34   19   61 1   
    35   19   62 1   
    36   20   21 1   
    37   20   63 1   
    38   20   64 1   
    39   21   22 1   
    40   21   65 1   
    41   21   66 1   
    42   22   23 1   
    43   22   67 1   
    44   22   68 1   
    45   23   24 1   
    46   23   69 1   
    47   23   70 1   
    48   24   25 1   
    49   24   71 1   
    50   24   72 1   
    51   25   50 1   
    52   25   73 1   
    53   25   74 1   
    54   26   27 1   
    55   26   43 ar  
    56   26   98 1   
    57   27   28 2   
    58   27   45 1   
    59   28   29 ar  
    60   28   75 1   
    61   29   38 ar  
    62   29   76 1   
    63   30   31 ar  
    64   30   38 ar  
    65   30   77 1   
    66   31   39 ar  
    67   31   78 1   
    68   32   39 1   
    69   32   40 1   
    70   32   79 1   
    71   33   34 ar  
    72   33   40 ar  
    73   33   80 1   
    74   34   35 ar  
    75   34   81 1   
    76   35   36 1   
    77   35   37 ar  
    78   36   44 1   
    79   37   41 ar  
    80   37   82 1   
    81   38   43 ar  
    82   39   42 ar  
    83   40   41 ar  
    84   41   42 1   
    85   42   43 ar  
    86   44   83 1   
    87   44   84 1   
    88   44   85 1   
    89   45   46 1   
    90   45   86 1   
    91   45   87 1   
    92   46   47 1   
    93   46   88 1   
    94   46   89 1   
    95   47   48 1   
    96   47   90 1   
    97   47   91 1   
    98   48   49 1   
    99   48   92 1   
   100   48   93 1   
   101   49   50 1   
   102   49   94 1   
   103   49   95 1   
   104   50   96 1   
   105   50   97 1   
@<TRIPOS>SUBSTRUCTURE
     1 FLD         1 TEMP              0 ****  ****    0 ROOT
