@<TRIPOS>MOLECULE
FLD
   98   105     1     0     0
SMALL
bcc


@<TRIPOS>ATOM
      1 C1         -0.3950   -0.1430    0.5400 ca        1 FLD      0.021700
      2 N2          0.8910   -0.4980    0.2620 na        1 FLD     -0.020100
      3 C3          1.7460   -0.8690    1.2970 ca        1 FLD     -0.137300
      4 C4          1.3090   -0.8950    2.6020 ca        1 FLD     -0.063000
      5 C5         -0.4820   -0.5370    4.2680 ca        1 FLD     -0.121000
      6 C6         -1.7730   -0.1650    4.5910 ca        1 FLD     -0.019000
      7 N7         -3.9700    0.6330    3.6360 na        1 FLD     -0.124300
      8 C8         -5.6890    1.3750    1.9260 ca        1 FLD     -0.083000
      9 C9         -5.8960    1.5870    0.5760 ca        1 FLD     -0.133000
     10 C10        -4.8610    1.3480   -0.3620 ca        1 FLD      0.146100
     11 O10        -5.0000    1.5290   -1.7190 os        1 FLD     -0.334900
     12 C11        -3.5980    0.8950    0.0350 ca        1 FLD     -0.152000
     13 C12        -0.0260   -0.5340    2.9330 ca        1 FLD      0.008000
     14 C13        -2.6500    0.2210    3.5530 ca        1 FLD     -0.002200
     15 C14        -4.4260    0.9190    2.3430 ca        1 FLD     -0.027200
     16 C15        -3.3610    0.6740    1.3920 cp        1 FLD     -0.060000
     17 C16        -2.2250    0.2310    2.1620 cp        1 FLD     -0.065000
     18 C17        -0.9040   -0.1460    1.8560 ca        1 FLD     -0.021000
     19 C18        -6.2470    2.0610   -2.1730 c3        1 FLD      0.106700
     20 C19         1.4160   -0.4020   -1.0880 c3        1 FLD     -0.006700
     21 C20         1.6720   -1.7910   -1.7320 c3        1 FLD      0.074800
     22 N21         2.3240   -1.6740   -3.0710 n4        1 FLD     -0.762000
     23 C22         2.6260   -3.0180   -3.6680 c3        1 FLD      0.106800
     24 C23         3.3330   -2.9150   -5.0180 c3        1 FLD     -0.109400
     25 C24         3.6230   -4.3090   -5.5520 c3        1 FLD     -0.077400
     26 C1X         7.3100   -8.4030  -13.5540 ca        1 FLD      0.021700
     27 N2X         7.7710   -8.0510  -12.3200 na        1 FLD     -0.020100
     28 C3X         9.1040   -7.6820  -12.1590 ca        1 FLD     -0.137300
     29 C4X         9.9670   -7.6580  -13.2300 ca        1 FLD     -0.063000
     30 C5X        10.4040   -8.0150  -15.6370 ca        1 FLD     -0.121000
     31 C6X         9.9790   -8.3840  -16.8990 ca        1 FLD     -0.019000
     32 N7X         7.9880   -9.1770  -18.2340 na        1 FLD     -0.124300
     33 C8X         5.6190   -9.9130  -18.7600 ca        1 FLD     -0.083000
     34 C9X         4.3700  -10.1220  -18.2070 ca        1 FLD     -0.133000
     35 CAX         4.1390   -9.8840  -16.8290 ca        1 FLD      0.146100
     36 OAX         2.9210  -10.0620  -16.2150 os        1 FLD     -0.334900
     37 CBX         5.1550   -9.4330  -15.9790 ca        1 FLD     -0.152000
     38 CCX         9.5260   -8.0170  -14.5330 ca        1 FLD      0.008000
     39 CDX         8.6310   -8.7680  -17.0780 ca        1 FLD     -0.002200
     40 CEX         6.6520   -9.4590  -17.9210 ca        1 FLD     -0.027200
     41 CFX         6.4270   -9.2160  -16.5110 cp        1 FLD     -0.060000
     42 CGX         7.6890   -8.7760  -15.9700 cp        1 FLD     -0.065000
     43 CHX         8.1450   -8.4010  -14.6910 ca        1 FLD     -0.021000
     44 CIX         1.8650  -10.5900  -17.0200 c3        1 FLD      0.106700
     45 CJX         6.9170   -8.1460  -11.1500 c3        1 FLD     -0.006700
     46 CKX         6.5150   -6.7560  -10.5860 c3        1 FLD      0.074800
     47 NLX         5.7390   -6.8730   -9.3160 n4        1 FLD     -0.762000
     48 CMX         5.4000   -5.5290   -8.7390 c3        1 FLD      0.106800
     49 CNX         4.6440   -5.6320   -7.4150 c3        1 FLD     -0.109400
     50 COX         4.3520   -4.2380   -6.8830 c3        1 FLD     -0.077400
     51 H1         -1.0430    0.1670   -0.3060 h4        1 FLD      0.199000
     52 H3          2.7850   -1.1160    1.0190 h4        1 FLD      0.179000
     53 H4          2.0100   -1.1900    3.4040 ha        1 FLD      0.200000
     54 H5          0.2140   -0.8380    5.0700 ha        1 FLD      0.180000
     55 H6         -2.1130   -0.1680    5.6420 ha        1 FLD      0.188000
     56 HN7        -4.4990    0.7310    4.4690 hn        1 FLD      0.339700
     57 H8         -6.4940    1.5610    2.6560 ha        1 FLD      0.175000
     58 H9         -6.8800    1.9470    0.2320 ha        1 FLD      0.175000
     59 H11        -2.8330    0.7290   -0.7320 ha        1 FLD      0.122000
     60 H181       -7.0790    1.3530   -1.9430 h1        1 FLD      0.063700
     61 H182       -6.4350    3.0640   -1.7200 h1        1 FLD      0.063700
     62 H183       -6.0950    2.1480   -3.2800 h1        1 FLD      0.063700
     63 H191        2.3860    0.1790   -1.0420 h1        1 FLD      0.105700
     64 H192        0.6860    0.1780   -1.7260 h1        1 FLD      0.105700
     65 H201        2.3450   -2.4090   -1.0670 hx        1 FLD      0.126700
     66 H202        0.6960   -2.3450   -1.8640 hx        1 FLD      0.126700
     67 HN21        1.7060   -1.1550   -3.7090 hn        1 FLD      0.459800
     68 HN22        3.2000   -1.1430   -2.9810 hn        1 FLD      0.459800
     69 H221        3.2750   -3.5810   -2.9350 hx        1 FLD      0.116700
     70 H222        1.6480   -3.5700   -3.7830 hx        1 FLD      0.116700
     71 H231        4.2980   -2.3510   -4.9110 hc        1 FLD      0.077200
     72 H232        2.6910   -2.3610   -5.7540 hc        1 FLD      0.077200
     73 H241        4.2490   -4.8750   -4.8110 hc        1 FLD      0.067700
     74 H242        2.6600   -4.8720   -5.6800 hc        1 FLD      0.067700
     75 H3X         9.4310   -7.4370  -11.1330 h4        1 FLD      0.179000
     76 H4X        11.0220   -7.3640  -13.0720 ha        1 FLD      0.200000
     77 H5X        11.4560   -7.7160  -15.4830 ha        1 FLD      0.180000
     78 H6X        10.6810   -8.3830  -17.7520 ha        1 FLD      0.188000
     79 HN7X        8.4040   -9.2740  -19.1290 hn        1 FLD      0.339700
     80 H8X         5.7990  -10.0990  -19.8320 ha        1 FLD      0.175000
     81 H9X         3.5490  -10.4800  -18.8500 ha        1 FLD      0.175000
     82 H11X        4.9220   -9.2680  -14.9210 ha        1 FLD      0.122000
     83 HX81        1.0140  -10.6760  -16.2960 h1        1 FLD      0.063700
     84 HX82        1.6110   -9.8810  -17.8440 h1        1 FLD      0.063700
     85 HX83        2.1420  -11.5940  -17.4230 h1        1 FLD      0.063700
     86 HX91        7.4790   -8.7280  -10.3590 h1        1 FLD      0.105700
     87 HX92        5.9860   -8.7250  -11.4210 h1        1 FLD      0.105700
     88 HX01        7.4390   -6.1410  -10.3770 hx        1 FLD      0.126700
     89 HX02        5.8790   -6.2020  -11.3360 hx        1 FLD      0.126700
     90 HN1X        6.2860   -7.4050   -8.6270 hn        1 FLD      0.459800
     91 HN2X        4.8680   -7.3920   -9.4920 hn        1 FLD      0.459800
     92 HX21        4.7770   -4.9760   -9.5000 hx        1 FLD      0.116700
     93 HX22        6.3680   -4.9670   -8.5870 hx        1 FLD      0.116700
     94 HX31        3.6770   -6.1850   -7.5600 hc        1 FLD      0.077200
     95 HX32        5.2540   -6.1970   -6.6600 hc        1 FLD      0.077200
     96 HX41        3.7250   -3.6750   -7.6250 hc        1 FLD      0.067700
     97 HX42        5.3140   -3.6730   -6.7550 hc        1 FLD      0.067700
     98 H1X         6.2480   -8.7110  -13.6430 h4        1 FLD      0.199000
@<TRIPOS>BOND
     1    1    2 1   
     2    1   18 ar  
     3    1   51 1   
     4    2    3 2   
     5    2   20 1   
     6    3    4 ar  
     7    3   52 1   
     8    4   13 ar  
     9    4   53 1   
    10    5    6 ar  
    11    5   13 ar  
    12    5   54 1   
    13    6   14 ar  
    14    6   55 1   
    15    7   14 1   
    16    7   15 1   
    17    7   56 1   
    18    8    9 ar  
    19    8   15 ar  
    20    8   57 1   
    21    9   10 ar  
    22    9   58 1   
    23   10   11 1   
    24   10   12 ar  
    25   11   19 1   
    26   12   16 ar  
    27   12   59 1   
    28   13   18 ar  
    29   14   17 ar  
    30   15   16 ar  
    31   16   17 1   
    32   17   18 ar  
    33   19   60 1   
    34   19   61 1   
    35   19   62 1   
    36   20   21 1   
    37   20   63 1   
    38   20   64 1   
    39   21   22 1   
    40   21   65 1   
    41   21   66 1   
    42   22   23 1   
    43   22   67 1   
    44   22   68 1   
    45   23   24 1   
    46   23   69 1   
    47   23   70 1   
    48   24   25 1   
    49   24   71 1   
    50   24   72 1   
    51   25   50 1   
    52   25   73 1   
    53   25   74 1   
    54   26   27 1   
    55   26   43 ar  
    56   26   98 1   
    57   27   28 2   
    58   27   45 1   
    59   28   29 ar  
    60   28   75 1   
    61   29   38 ar  
    62   29   76 1   
    63   30   31 ar  
    64   30   38 ar  
    65   30   77 1   
    66   31   39 ar  
    67   31   78 1   
    68   32   39 1   
    69   32   40 1   
    70   32   79 1   
    71   33   34 ar  
    72   33   40 ar  
    73   33   80 1   
    74   34   35 ar  
    75   34   81 1   
    76   35   36 1   
    77   35   37 ar  
    78   36   44 1   
    79   37   41 ar  
    80   37   82 1   
    81   38   43 ar  
    82   39   42 ar  
    83   40   41 ar  
    84   41   42 1   
    85   42   43 ar  
    86   44   83 1   
    87   44   84 1   
    88   44   85 1   
    89   45   46 1   
    90   45   86 1   
    91   45   87 1   
    92   46   47 1   
    93   46   88 1   
    94   46   89 1   
    95   47   48 1   
    96   47   90 1   
    97   47   91 1   
    98   48   49 1   
    99   48   92 1   
   100   48   93 1   
   101   49   50 1   
   102   49   94 1   
   103   49   95 1   
   104   50   96 1   
   105   50   97 1   
@<TRIPOS>SUBSTRUCTURE
     1 FLD         1 TEMP              0 ****  ****    0 ROOT
