@<TRIPOS>MOLECULE
FLE
   30    30     1     0     0
SMALL
bcc


@<TRIPOS>ATOM
      1 N           0.0030   -0.2160   -0.4270 n         1 FLE     -0.494900
      2 CA         -1.3860   -0.5520   -0.1770 c3        1 FLE     -0.051300
      3 CB         -2.3650    0.5540   -0.5820 c3        1 FLE     -0.067400
      4 CG         -2.2610    1.8260    0.2450 c3        1 FLE     -0.068700
      5 CD1        -3.1270    2.9090   -0.3670 c3        1 FLE     -0.087100
      6 CD2        -2.6570    1.5880    1.6870 c3        1 FLE     -0.087100
      7 C          -1.8140   -1.8520   -0.9610 c         1 FLE      0.912600
      8 OXT        -2.8810   -2.3990   -0.5790 o         1 FLE     -0.827800
      9 O          -1.0810   -2.2550   -1.9070 o         1 FLE     -0.827800
     10 C2          0.8600    0.1810    0.5560 c         1 FLE      0.570600
     11 O3          0.5020    0.5290    1.7080 o         1 FLE     -0.647100
     12 C4          2.3070    0.2730    0.2280 cc        1 FLE      0.215200
     13 O8          2.7510   -0.0940   -1.0490 os        1 FLE     -0.343800
     14 C5          3.3820    0.6730    1.0020 cd        1 FLE     -0.221300
     15 C6          4.5590    0.5510    0.1740 cd        1 FLE     -0.286300
     16 C7          4.1300    0.0850   -1.0530 cc        1 FLE      0.239600
     17 H           0.3770   -0.6340   -1.2580 hn        1 FLE      0.339500
     18 HA         -1.5170   -0.7620    0.9240 h1        1 FLE      0.065700
     19 HB2        -2.2140    0.8080   -1.6640 hc        1 FLE      0.049700
     20 HB3        -3.3950    0.1180   -0.4760 hc        1 FLE      0.049700
     21 HG         -1.1900    2.1780    0.2330 hc        1 FLE      0.048700
     22 HD11       -4.1980    2.5940   -0.3750 hc        1 FLE      0.025700
     23 HD12       -3.0420    3.8560    0.2190 hc        1 FLE      0.025700
     24 HD13       -2.8120    3.1140   -1.4180 hc        1 FLE      0.025700
     25 HD21       -1.8870    0.9520    2.1900 hc        1 FLE      0.025700
     26 HD22       -2.7280    2.5580    2.2370 hc        1 FLE      0.025700
     27 HD23       -3.6450    1.0730    1.7460 hc        1 FLE      0.025700
     28 H5          3.3440    1.0110    2.0340 ha        1 FLE      0.169000
     29 H6          5.5750    0.7850    0.4770 ha        1 FLE      0.149000
     30 H7          4.6100   -0.1700   -1.9930 h4        1 FLE      0.046100
@<TRIPOS>BOND
     1    1    2 1   
     2    1   10 1   
     3    1   17 1   
     4    2    3 1   
     5    2    7 1   
     6    2   18 1   
     7    3    4 1   
     8    3   19 1   
     9    3   20 1   
    10    4    5 1   
    11    4    6 1   
    12    4   21 1   
    13    5   22 1   
    14    5   23 1   
    15    5   24 1   
    16    6   25 1   
    17    6   26 1   
    18    6   27 1   
    19    7    8 1   
    20    7    9 1   
    21   10   11 2   
    22   10   12 1   
    23   12   13 1   
    24   12   14 2   
    25   13   16 1   
    26   14   15 1   
    27   14   28 1   
    28   15   16 2   
    29   15   29 1   
    30   16   30 1   
@<TRIPOS>SUBSTRUCTURE
     1 FLE         1 TEMP              0 ****  ****    0 ROOT
