@<TRIPOS>MOLECULE
FLF
   29    25     1     0     0
SMALL
bcc


@<TRIPOS>ATOM
      1 C1          1.7450    0.5930   -1.6610 c1        1 FLF     -0.129000
      2 O1          1.3500    1.3250   -3.9170 o         1 FLF     -0.560000
      3 C2          3.1310    0.5730   -1.6980 c1        1 FLF     -0.140833
      4 C3          3.8210   -0.5330   -1.2250 c1        1 FLF     -0.140833
      5 O2          1.2020    2.8320   -2.3470 o         1 FLF     -0.560000
      6 C4          3.1260   -1.6180   -0.7150 c1        1 FLF     -0.140833
      7 C5          1.7400   -1.5980   -0.6780 c1        1 FLF     -0.140833
      8 C6          1.0500   -0.4930   -1.1510 c1        1 FLF      0.054000
      9 C7          1.4170    1.6430   -2.7000 c2        1 FLF      0.360000
     10 N          -0.3690   -0.4920   -1.1560 n3        1 FLF     -0.249000
     11 C1'        -1.0830   -0.4870    0.0700 c2        1 FLF      0.118000
     12 C2'        -1.5530    0.7070    0.5940 c2        1 FLF     -0.155000
     13 C3'        -2.2990    0.7060    1.7630 c1        1 FLF     -0.121000
     14 C4'        -2.5740   -0.4890    2.4080 c1        1 FLF     -0.140833
     15 C5'        -2.1040   -1.6840    1.8850 c1        1 FLF     -0.140833
     16 C6'        -1.3580   -1.6830    0.7160 c1        1 FLF     -0.186000
     17 C7'        -2.8520    2.0050    2.3080 c3        1 FLF      0.464000
     18 F1         -4.0890    1.8000    2.7790 f         1 FLF     -0.176667
     19 F2         -2.8920    2.9180    1.3300 f         1 FLF     -0.176667
     20 F3         -2.0650    2.4440    3.2980 f         1 FLF     -0.176667
     21 H2          3.6200    1.3370   -2.0570 ha        1 FLF      0.124833
     22 H3          4.7970   -0.5430   -1.2420 ha        1 FLF      0.124833
     23 H4          3.6120   -2.3970   -0.3820 ha        1 FLF      0.124833
     24 H5          1.2500   -2.3630   -0.3190 ha        1 FLF      0.124833
     25 HN1        -0.8220   -0.5090   -1.9480 hn        1 FLF      0.282000
     26 H2'        -1.3590    1.5490    0.1390 ha        1 FLF      0.156000
     27 H4'        -3.1060   -0.4910    3.2270 ha        1 FLF      0.124833
     28 H5'        -2.2970   -2.5250    2.3390 ha        1 FLF      0.124833
     29 H6'        -1.0380   -2.5250    0.3400 ha        1 FLF      0.150000
@<TRIPOS>BOND
     1    1    8 1   
     2    1    9 1   
     3    2    9 1   
     4    3    4 1   
     5    3   21 1   
     6    4   22 1   
     7    5    9 1   
     8    6    7 1   
     9    6   23 1   
    10    7   24 1   
    11    8   10 1   
    12   10   11 1   
    13   10   25 1   
    14   11   12 1   
    15   11   16 1   
    16   12   13 1   
    17   12   26 1   
    18   13   17 1   
    19   14   15 1   
    20   14   27 1   
    21   15   28 1   
    22   16   29 1   
    23   17   18 1   
    24   17   19 1   
    25   17   20 1   
@<TRIPOS>SUBSTRUCTURE
     1 FLF         1 TEMP              0 ****  ****    0 ROOT
