@<TRIPOS>MOLECULE
FLF
   29    30     1     0     0
SMALL
bcc


@<TRIPOS>ATOM
      1 C1         -0.0780    0.0250    0.0600 ca        1 FLF     -0.149600
      2 O1         -2.1060    0.7080   -1.0540 o         1 FLF     -0.824800
      3 C2          1.2870   -0.1550   -0.1840 ca        1 FLF     -0.091000
      4 C3          2.2100   -0.2250    0.8560 ca        1 FLF     -0.172000
      5 O2         -0.5940   -0.4370   -2.2200 o         1 FLF     -0.824800
      6 C4          1.7700   -0.1120    2.1730 ca        1 FLF     -0.140000
      7 C5          0.4190    0.0650    2.4490 ca        1 FLF     -0.176000
      8 C6         -0.5270    0.1300    1.4000 ca        1 FLF      0.135600
      9 C7         -0.9970    0.1010   -1.1530 c         1 FLF      0.911200
     10 N          -1.8850    0.3960    1.6900 nu        1 FLF     -0.617000
     11 C1'        -2.6360   -0.4090    2.5370 ca        1 FLF      0.199600
     12 C2'        -4.0170   -0.1080    2.7140 ca        1 FLF     -0.156000
     13 C3'        -4.7740   -0.8200    3.6340 ca        1 FLF     -0.128300
     14 C4'        -4.2210   -1.8540    4.3920 ca        1 FLF     -0.166000
     15 C5'        -2.8800   -2.1770    4.2040 ca        1 FLF     -0.099000
     16 C6'        -2.0960   -1.4790    3.2940 ca        1 FLF     -0.186000
     17 C7'        -6.2400   -0.4620    3.8410 c3        1 FLF      0.685200
     18 F1         -7.0630   -1.5320    4.1110 f         1 FLF     -0.247967
     19 F2         -6.4730    0.3910    4.8960 f         1 FLF     -0.247967
     20 F3         -6.8540    0.1600    2.7810 f         1 FLF     -0.247967
     21 H2          1.6080   -0.2560   -1.2350 ha        1 FLF      0.156000
     22 H3          3.2770   -0.3680    0.6400 ha        1 FLF      0.110000
     23 H4          2.4910   -0.1580    3.0020 ha        1 FLF      0.107000
     24 H5          0.0900    0.1690    3.4940 ha        1 FLF      0.121000
     25 HN1        -2.3910    0.7760    0.8950 hn        1 FLF      0.486800
     26 H2'        -4.4900    0.6860    2.1130 ha        1 FLF      0.156000
     27 H4'        -4.8410   -2.4070    5.1110 ha        1 FLF      0.132000
     28 H5'        -2.4350   -3.0030    4.7790 ha        1 FLF      0.123000
     29 H6'        -1.0460   -1.7770    3.1470 ha        1 FLF      0.150000
@<TRIPOS>BOND
     1    1    3 ar  
     2    1    8 ar  
     3    1    9 1   
     4    2    9 1   
     5    3    4 ar  
     6    3   21 1   
     7    4    6 ar  
     8    4   22 1   
     9    5    9 1   
    10    6    7 ar  
    11    6   23 1   
    12    7    8 ar  
    13    7   24 1   
    14    8   10 1   
    15   10   11 1   
    16   10   25 1   
    17   11   12 ar  
    18   11   16 ar  
    19   12   13 ar  
    20   12   26 1   
    21   13   14 ar  
    22   13   17 1   
    23   14   15 ar  
    24   14   27 1   
    25   15   16 ar  
    26   15   28 1   
    27   16   29 1   
    28   17   18 1   
    29   17   19 1   
    30   17   20 1   
@<TRIPOS>SUBSTRUCTURE
     1 FLF         1 TEMP              0 ****  ****    0 ROOT
