@<TRIPOS>MOLECULE
FLF
   29    30     1     0     0
SMALL
bcc


@<TRIPOS>ATOM
      1 C1          0.2270    0.1190    3.2000 ca        1 FLF     -0.149600
      2 O1          2.4320    0.3710    2.2560 o         1 FLF     -0.824800
      3 C2         -0.4190    0.0040    4.4340 ca        1 FLF     -0.091000
      4 C3         -1.7840    0.2410    4.5670 ca        1 FLF     -0.172000
      5 O2          2.2030   -0.8740    4.0870 o         1 FLF     -0.824800
      6 C4         -2.5300    0.6050    3.4490 ca        1 FLF     -0.140000
      7 C5         -1.9180    0.7260    2.2070 ca        1 FLF     -0.176000
      8 C6         -0.5340    0.4800    2.0590 ca        1 FLF      0.135600
      9 C7          1.7270   -0.1500    3.1710 c         1 FLF      0.911200
     10 N           0.0920    0.6910    0.8080 nh        1 FLF     -0.617000
     11 C1'        -0.3150    0.0340   -0.3460 ca        1 FLF      0.199600
     12 C2'         0.4210    0.2510   -1.5460 ca        1 FLF     -0.156000
     13 C3'        -0.0170   -0.3010   -2.7420 ca        1 FLF     -0.128300
     14 C4'        -1.1660   -1.0930   -2.8050 ca        1 FLF     -0.166000
     15 C5'        -1.8730   -1.3370   -1.6310 ca        1 FLF     -0.099000
     16 C6'        -1.4620   -0.7950   -0.4200 ca        1 FLF     -0.186000
     17 C7'         0.7560   -0.0280   -4.0250 c3        1 FLF      0.685200
     18 F1          0.7800   -1.0750   -4.9180 f         1 FLF     -0.247967
     19 F2          0.2630    1.0160   -4.7750 f         1 FLF     -0.247967
     20 F3          2.0830    0.2900   -3.8620 f         1 FLF     -0.247967
     21 H2          0.1910   -0.2990    5.3020 ha        1 FLF      0.156000
     22 H3         -2.2700    0.1420    5.5470 ha        1 FLF      0.110000
     23 H4         -3.6070    0.8030    3.5440 ha        1 FLF      0.107000
     24 H5         -2.5180    1.0310    1.3360 ha        1 FLF      0.121000
     25 HN1         1.0930    0.8430    0.8890 hn        1 FLF      0.486800
     26 H2'         1.3450    0.8510   -1.5260 ha        1 FLF      0.156000
     27 H4'        -1.4900   -1.5230   -3.7620 ha        1 FLF      0.132000
     28 H5'        -2.7680   -1.9770   -1.6610 ha        1 FLF      0.123000
     29 H6'        -2.0270   -1.0310    0.4950 ha        1 FLF      0.150000
@<TRIPOS>BOND
     1    1    3 ar  
     2    1    8 ar  
     3    1    9 1   
     4    2    9 1   
     5    3    4 ar  
     6    3   21 1   
     7    4    6 ar  
     8    4   22 1   
     9    5    9 1   
    10    6    7 ar  
    11    6   23 1   
    12    7    8 ar  
    13    7   24 1   
    14    8   10 1   
    15   10   11 1   
    16   10   25 1   
    17   11   12 ar  
    18   11   16 ar  
    19   12   13 ar  
    20   12   26 1   
    21   13   14 ar  
    22   13   17 1   
    23   14   15 ar  
    24   14   27 1   
    25   15   16 ar  
    26   15   28 1   
    27   16   29 1   
    28   17   18 1   
    29   17   19 1   
    30   17   20 1   
@<TRIPOS>SUBSTRUCTURE
     1 FLF         1 TEMP              0 ****  ****    0 ROOT
