@<TRIPOS>MOLECULE
FLF
   30    31     1     0     0
SMALL
bcc


@<TRIPOS>ATOM
      1 C1         -0.0070    0.1810    0.0490 ca        1 FLF     -0.227600
      2 O1         -1.5740   -0.5750   -1.6890 oh        1 FLF     -0.583100
      3 C2          1.3740    0.3980    0.0300 ca        1 FLF     -0.045000
      4 C3          2.1380    0.2120    1.1770 ca        1 FLF     -0.168000
      5 O2         -0.7510    1.4250   -1.8950 o         1 FLF     -0.481000
      6 C4          1.5120   -0.1700    2.3640 ca        1 FLF     -0.070000
      7 C5          0.1370   -0.3680    2.4120 ca        1 FLF     -0.190000
      8 C6         -0.6540   -0.2070    1.2520 ca        1 FLF      0.184600
      9 C7         -0.7620    0.4100   -1.1980 c         1 FLF      0.637700
     10 N          -2.0380   -0.4430    1.2330 nh        1 FLF     -0.639000
     11 C1'        -2.7510   -0.8580    2.3760 ca        1 FLF      0.131600
     12 C2'        -3.9200   -0.1680    2.7680 ca        1 FLF     -0.125000
     13 C3'        -4.6770   -0.6410    3.8380 ca        1 FLF     -0.141300
     14 C4'        -4.2980   -1.7840    4.5420 ca        1 FLF     -0.099000
     15 C5'        -3.1440   -2.4650    4.1580 ca        1 FLF     -0.114000
     16 C6'        -2.3770   -2.0200    3.0870 ca        1 FLF     -0.124000
     17 C7'        -5.9500    0.1000    4.2350 c3        1 FLF      0.686200
     18 F1         -6.2740    0.0030    5.5660 f         1 FLF     -0.234633
     19 F2         -5.9240    1.4520    3.9930 f         1 FLF     -0.234633
     20 F3         -7.0790   -0.3360    3.5820 f         1 FLF     -0.234633
     21 H2          1.8490    0.7270   -0.9090 ha        1 FLF      0.154000
     22 H3          3.2250    0.3750    1.1500 ha        1 FLF      0.145000
     23 H4          2.1090   -0.3060    3.2800 ha        1 FLF      0.140000
     24 H5         -0.3340   -0.6380    3.3700 ha        1 FLF      0.148000
     25 HN1        -2.5520    0.1640    0.6240 hn        1 FLF      0.434800
     26 H2'        -4.2460    0.7420    2.2370 ha        1 FLF      0.157000
     27 H4'        -4.9040   -2.1380    5.3910 ha        1 FLF      0.156000
     28 H5'        -2.8400   -3.3720    4.7050 ha        1 FLF      0.147000
     29 H6'        -1.4770   -2.5830    2.7900 ha        1 FLF      0.151000
     30 HN3        -1.4740   -1.3830   -1.1670 ho        1 FLF      0.437000
@<TRIPOS>BOND
     1    1    3 ar  
     2    1    8 ar  
     3    1    9 1   
     4    2    9 1   
     5    2   30 1   
     6    3    4 ar  
     7    3   21 1   
     8    4    6 ar  
     9    4   22 1   
    10    5    9 2   
    11    6    7 ar  
    12    6   23 1   
    13    7    8 ar  
    14    7   24 1   
    15    8   10 1   
    16   10   11 1   
    17   10   25 1   
    18   11   12 ar  
    19   11   16 ar  
    20   12   13 ar  
    21   12   26 1   
    22   13   14 ar  
    23   13   17 1   
    24   14   15 ar  
    25   14   27 1   
    26   15   16 ar  
    27   15   28 1   
    28   16   29 1   
    29   17   18 1   
    30   17   19 1   
    31   17   20 1   
@<TRIPOS>SUBSTRUCTURE
     1 FLF         1 TEMP              0 ****  ****    0 ROOT
