@<TRIPOS>MOLECULE
FLG
   48    40     1     0     0
SMALL
bcc


@<TRIPOS>ATOM
      1 S1         -1.2780    3.9990    0.9030 s         1 FLG     -0.310000
      2 C21        -1.9980    3.9020   -0.5970 c1        1 FLG      0.156000
      3 N1         -1.6420    2.8290   -1.5050 n3        1 FLG     -0.257000
      4 C17        -0.9630    1.6340   -0.9970 c2        1 FLG      0.040000
      5 C18        -0.9490    0.4630   -1.7600 c2        1 FLG     -0.157000
      6 C19        -0.3180   -0.6830   -1.2700 c1        1 FLG     -0.047000
      7 C20        -0.2900   -1.9630   -2.1170 c1        1 FLG      0.357000
      8 O4          0.6690   -2.1660   -2.9250 o         1 FLG     -0.541000
      9 O5         -1.2780   -2.7530   -2.1000 o         1 FLG     -0.541000
     10 C16        -0.3480    1.6590    0.2560 c1        1 FLG     -0.154000
     11 C15         0.2850    0.5090    0.7490 c1        1 FLG     -0.111000
     12 C14         0.3000   -0.6590   -0.0120 c1        1 FLG     -0.087000
     13 C10         1.0600   -1.7930    0.4330 c1        1 FLG      0.166000
     14 C9          0.2960   -2.6550    1.2270 c1        1 FLG     -0.004000
     15 C4          0.8570   -3.8240    1.7150 c1        1 FLG     -0.004000
     16 O2          2.1880   -4.1430    1.4140 o         1 FLG     -0.247500
     17 C5          0.0620   -4.7400    2.4310 c1        1 FLG     -0.172500
     18 C8         -1.0680   -2.3840    1.4480 c1        1 FLG     -0.172500
     19 C7         -1.8540   -3.2920    2.1580 c1        1 FLG     -0.227500
     20 C6         -1.2890   -4.4700    2.6490 c1        1 FLG      0.217000
     21 O3         -1.9750   -5.2620    3.2690 o         1 FLG     -0.247500
     22 C11         2.3980   -2.1150    0.1320 c1        1 FLG     -0.152000
     23 C3          2.9530   -3.2830    0.6210 c1        1 FLG      0.217000
     24 C2          4.3040   -3.5920    0.3440 c1        1 FLG     -0.227500
     25 C12         3.1800   -1.2340   -0.6430 c1        1 FLG      0.012000
     26 C13         4.5170   -1.5420   -0.9150 c1        1 FLG     -0.242000
     27 C1          5.0770   -2.7200   -0.4220 c1        1 FLG      0.118000
     28 O1          6.4570   -3.0020   -0.5610 oh        1 FLG     -0.258000
     29 N2         -2.9630    4.9130   -1.0080 n2        1 FLG     -0.329000
     30 C22        -2.7780    6.2950   -0.6090 c3        1 FLG     -0.054000
     31 C23        -4.1040    6.8720   -0.1410 c3        1 FLG     -0.240000
     32 H18        -1.4110    0.4360   -2.6250 ha        1 FLG      0.141000
     33 H16        -0.3580    2.4770    0.7890 ha        1 FLG      0.174000
     34 H15         0.7150    0.5260    1.6240 ha        1 FLG      0.131000
     35 H5          0.4210   -5.5070    2.9270 ha        1 FLG      0.151000
     36 H8         -1.8740   -1.9300    1.1470 ha        1 FLG      0.151000
     37 H7         -2.8140   -3.2500    2.3390 ha        1 FLG      0.150500
     38 H2          4.6980   -4.4190    0.6900 ha        1 FLG      0.150500
     39 H12         2.7900   -0.4110   -0.9880 ha        1 FLG      0.202000
     40 H13         5.0460   -0.9520   -1.4790 ha        1 FLG      0.141000
     41 H221       -2.1290    6.3400    0.1190 h1        1 FLG      0.118500
     42 H222       -2.4460    6.8150   -1.3740 h1        1 FLG      0.118500
     43 H231       -4.3380    6.4890    0.7160 hc        1 FLG      0.079000
     44 H232       -4.0250    7.8450   -0.0540 hc        1 FLG      0.079000
     45 H233       -4.8040    6.6570   -0.7970 hc        1 FLG      0.079000
     46 HN1        -3.6880    4.6760   -1.5040 hn        1 FLG      0.201000
     47 HO1         6.5910   -3.4700   -1.3080 ho        1 FLG      0.218000
     48 HN2        -1.8840    2.8780   -2.3870 hn        1 FLG      0.216000
@<TRIPOS>BOND
     1    1    2 1   
     2    2    3 1   
     3    3    4 1   
     4    3   48 1   
     5    4    5 1   
     6    4   10 1   
     7    5    6 1   
     8    5   32 1   
     9    6   12 1   
    10    7    8 1   
    11    7    9 1   
    12   10   33 1   
    13   11   12 1   
    14   11   34 1   
    15   13   22 1   
    16   14   15 1   
    17   14   18 1   
    18   15   17 1   
    19   16   23 1   
    20   17   35 1   
    21   18   36 1   
    22   19   20 1   
    23   19   37 1   
    24   20   21 1   
    25   22   25 1   
    26   23   24 1   
    27   24   38 1   
    28   25   39 1   
    29   26   27 1   
    30   26   40 1   
    31   27   28 1   
    32   28   47 1   
    33   29   30 1   
    34   29   46 1   
    35   30   31 1   
    36   30   41 1   
    37   30   42 1   
    38   31   43 1   
    39   31   44 1   
    40   31   45 1   
@<TRIPOS>SUBSTRUCTURE
     1 FLG         1 TEMP              0 ****  ****    0 ROOT
