@<TRIPOS>MOLECULE
FLG
   49    52     1     0     0
SMALL
bcc


@<TRIPOS>ATOM
      1 S1          0.3400    1.2040   -0.2860 s         1 FLG     -0.340400
      2 C21         1.6400    0.6600    0.4390 c         1 FLG      0.357400
      3 N1          1.6970    0.2520    1.7460 ns        1 FLG     -0.368100
      4 C17         2.8170   -0.4450    2.2650 ca        1 FLG     -0.047400
      5 C18         3.3640   -1.4730    1.4860 ca        1 FLG     -0.157000
      6 C19         4.7290   -1.7740    1.5940 ca        1 FLG     -0.103600
      7 C20         5.3110   -2.1700    0.2320 c         1 FLG      0.927200
      8 O4          4.8970   -1.3830   -0.6960 o         1 FLG     -0.785800
      9 O5          6.0720   -3.1360    0.0750 o         1 FLG     -0.785800
     10 C16         3.4900   -0.0460    3.4380 ca        1 FLG     -0.140000
     11 C15         4.7510   -0.5740    3.6940 ca        1 FLG     -0.104000
     12 C14         5.4190   -1.3750    2.7430 ca        1 FLG     -0.032000
     13 C10         6.8260   -1.7120    2.9910 cc        1 FLG      0.113000
     14 C9          7.7960   -0.7470    3.0410 cd        1 FLG     -0.202100
     15 C4          9.1730   -1.0930    3.3610 cd        1 FLG      0.329700
     16 O2          9.5280   -2.4060    3.6460 os        1 FLG     -0.385800
     17 C5         10.1800   -0.1830    3.4230 cc        1 FLG     -0.304200
     18 C8          7.5530    0.6580    2.7790 cd        1 FLG     -0.059200
     19 C7          8.5290    1.5810    2.8300 cc        1 FLG     -0.232200
     20 C6          9.9230    1.2310    3.1620 c         1 FLG      0.572500
     21 O3         10.8140    2.0930    3.2150 o         1 FLG     -0.552100
     22 C11         7.2000   -3.0840    3.2430 ca        1 FLG     -0.210300
     23 C3          8.5430   -3.3710    3.5630 ca        1 FLG      0.406000
     24 C2          8.9800   -4.6780    3.8330 ca        1 FLG     -0.318300
     25 C12         6.2930   -4.1610    3.1640 ca        1 FLG     -0.008000
     26 C13         6.6950   -5.4570    3.4240 ca        1 FLG     -0.182000
     27 C1          8.0430   -5.7110    3.7620 ca        1 FLG      0.184100
     28 O1          8.3700   -7.0180    4.0160 oh        1 FLG     -0.488100
     29 N2          2.9030    0.6460   -0.3820 ny        1 FLG     -0.650800
     30 C22         3.8320    1.7530   -0.0020 c3        1 FLG      0.122800
     31 C23         5.0440    1.7980   -0.9120 c3        1 FLG     -0.141100
     32 H18         2.7870   -1.9630    0.6810 ha        1 FLG      0.159000
     33 H16         3.0440    0.6840    4.1290 ha        1 FLG      0.147000
     34 H15         5.2680   -0.3050    4.6290 ha        1 FLG      0.154000
     35 H5         11.2100   -0.4770    3.6680 ha        1 FLG      0.168000
     36 H8          6.5170    0.9390    2.5240 ha        1 FLG      0.124000
     37 H7          8.3370    2.6450    2.6250 ha        1 FLG      0.145000
     38 H2         10.0340   -4.8640    4.0790 ha        1 FLG      0.159000
     39 H12         5.2530   -3.9580    2.8570 ha        1 FLG      0.154000
     40 H13         5.9920   -6.2990    3.3560 ha        1 FLG      0.159000
     41 H221        4.1590    1.5690    1.0620 hx        1 FLG      0.086700
     42 H222        3.2640    2.7240   -0.0480 hx        1 FLG      0.086700
     43 H231        5.5530    0.7960   -0.9660 hc        1 FLG      0.083700
     44 H232        5.7650    2.5430   -0.4960 hc        1 FLG      0.083700
     45 H233        4.7620    2.1120   -1.9460 hc        1 FLG      0.083700
     46 HN1         3.4700   -0.2690   -0.3440 hn        1 FLG      0.498800
     47 HO1         9.3240   -7.0660    4.1800 ho        1 FLG      0.427000
     48 HN2         0.8530    0.3080    2.2820 hn        1 FLG      0.368500
     49 H22         2.6060    0.7780   -1.3600 hn        1 FLG      0.498800
@<TRIPOS>BOND
     1    1    2 2   
     2    2    3 1   
     3    2   29 1   
     4    3    4 1   
     5    3   48 1   
     6    4    5 ar  
     7    4   10 ar  
     8    5    6 ar  
     9    5   32 1   
    10    6    7 1   
    11    6   12 ar  
    12    7    8 1   
    13    7    9 1   
    14   10   11 ar  
    15   10   33 1   
    16   11   12 ar  
    17   11   34 1   
    18   12   13 1   
    19   13   14 2   
    20   13   22 1   
    21   14   15 1   
    22   14   18 1   
    23   15   16 1   
    24   15   17 2   
    25   16   23 1   
    26   17   20 1   
    27   17   35 1   
    28   18   19 2   
    29   18   36 1   
    30   19   20 1   
    31   19   37 1   
    32   20   21 2   
    33   22   23 ar  
    34   22   25 ar  
    35   23   24 ar  
    36   24   27 ar  
    37   24   38 1   
    38   25   26 ar  
    39   25   39 1   
    40   26   27 ar  
    41   26   40 1   
    42   27   28 1   
    43   28   47 1   
    44   29   30 1   
    45   29   46 1   
    46   29   49 1   
    47   30   31 1   
    48   30   41 1   
    49   30   42 1   
    50   31   43 1   
    51   31   44 1   
    52   31   45 1   
@<TRIPOS>SUBSTRUCTURE
     1 FLG         1 TEMP              0 ****  ****    0 ROOT
