@<TRIPOS>MOLECULE
FLG
   48    51     1     0     0
SMALL
bcc


@<TRIPOS>ATOM
      1 S1          8.1230   -0.5030    9.0440 s         1 FLG     -0.705400
      2 C21         6.8830   -1.3560    8.3610 c         1 FLG      0.617400
      3 N1          5.7030   -0.6840    8.1110 n         1 FLG     -0.430100
      4 C17         4.6350   -1.0890    7.2790 ca        1 FLG      0.014600
      5 C18         4.8430   -1.6110    5.9940 ca        1 FLG     -0.141000
      6 C19         3.7700   -2.0250    5.1930 ca        1 FLG     -0.072600
      7 C20         4.1470   -2.6660    3.8510 c         1 FLG      0.911200
      8 O4          4.3770   -3.9020    3.8600 o         1 FLG     -0.803300
      9 O5          4.2480   -1.8970    2.8580 o         1 FLG     -0.803300
     10 C16         3.3080   -0.9230    7.7400 ca        1 FLG     -0.174000
     11 C15         2.2480   -1.3110    6.9360 ca        1 FLG     -0.111000
     12 C14         2.4610   -1.8730    5.6620 ca        1 FLG     -0.084000
     13 C10         1.2660   -2.2830    4.9140 cc        1 FLG      0.160000
     14 C9          0.4380   -3.2710    5.3890 cd        1 FLG     -0.232100
     15 C4         -0.8280   -3.5600    4.7400 cd        1 FLG      0.341700
     16 O2         -1.2450   -2.8310    3.6330 os        1 FLG     -0.394800
     17 C5         -1.6970   -4.5120    5.1790 cc        1 FLG     -0.328200
     18 C8          0.7510   -4.0940    6.5390 cd        1 FLG     -0.026200
     19 C7         -0.0850   -5.0470    6.9910 cc        1 FLG     -0.263200
     20 C6         -1.3810   -5.3200    6.3520 c         1 FLG      0.580500
     21 O3         -2.1610   -6.1850    6.7910 o         1 FLG     -0.592100
     22 C11         0.8730   -1.5820    3.7120 ca        1 FLG     -0.220300
     23 C3         -0.3770   -1.8820    3.1280 ca        1 FLG      0.391000
     24 C2         -0.8440   -1.2240    1.9790 ca        1 FLG     -0.273300
     25 C12         1.6880   -0.6240    3.0770 ca        1 FLG      0.017000
     26 C13         1.2510    0.0360    1.9400 ca        1 FLG     -0.243000
     27 C1         -0.0130   -0.2620    1.3990 ca        1 FLG      0.166100
     28 O1         -0.4990    0.3730    0.2790 oh        1 FLG     -0.503100
     29 N2          7.0660   -2.6900    8.1080 n         1 FLG     -0.505900
     30 C22         6.0730   -3.6700    7.7470 c3        1 FLG      0.064000
     31 C23         6.4210   -5.0720    8.2250 c3        1 FLG     -0.110100
     32 H18         5.8620   -1.7120    5.5830 ha        1 FLG      0.157000
     33 H16         3.1100   -0.4940    8.7330 ha        1 FLG      0.130000
     34 H15         1.2180   -1.1840    7.3030 ha        1 FLG      0.130000
     35 H5         -2.6500   -4.7000    4.6690 ha        1 FLG      0.155000
     36 H8          1.7270   -3.9110    7.0210 ha        1 FLG      0.146000
     37 H7          0.1690   -5.6750    7.8570 ha        1 FLG      0.140000
     38 H2         -1.8220   -1.4700    1.5480 ha        1 FLG      0.162000
     39 H12         2.7120   -0.4460    3.4620 ha        1 FLG      0.201000
     40 H13         1.9060    0.7670    1.4440 ha        1 FLG      0.141000
     41 H221        5.0740   -3.3770    8.1800 h1        1 FLG      0.075200
     42 H222        5.9650   -3.6900    6.6200 h1        1 FLG      0.075200
     43 H231        7.3940   -5.4160    7.8000 hc        1 FLG      0.043700
     44 H232        6.4800   -5.1220    9.3390 hc        1 FLG      0.043700
     45 H233        5.6190   -5.7670    7.8760 hc        1 FLG      0.043700
     46 HN1         7.9760   -3.0310    8.3430 hn        1 FLG      0.339500
     47 HO1         0.2100    0.9320   -0.0720 ho        1 FLG      0.420000
     48 HN2         5.7090    0.2770    8.3900 hn        1 FLG      0.348500
@<TRIPOS>BOND
     1    1    2 2   
     2    2    3 1   
     3    2   29 1   
     4    3    4 1   
     5    3   48 1   
     6    4    5 ar  
     7    4   10 ar  
     8    5    6 ar  
     9    5   32 1   
    10    6    7 1   
    11    6   12 ar  
    12    7    8 1   
    13    7    9 1   
    14   10   11 ar  
    15   10   33 1   
    16   11   12 ar  
    17   11   34 1   
    18   12   13 1   
    19   13   14 2   
    20   13   22 1   
    21   14   15 1   
    22   14   18 1   
    23   15   16 1   
    24   15   17 2   
    25   16   23 1   
    26   17   20 1   
    27   17   35 1   
    28   18   19 2   
    29   18   36 1   
    30   19   20 1   
    31   19   37 1   
    32   20   21 2   
    33   22   23 ar  
    34   22   25 ar  
    35   23   24 ar  
    36   24   27 ar  
    37   24   38 1   
    38   25   26 ar  
    39   25   39 1   
    40   26   27 ar  
    41   26   40 1   
    42   27   28 1   
    43   28   47 1   
    44   29   30 1   
    45   29   46 1   
    46   30   31 1   
    47   30   41 1   
    48   30   42 1   
    49   31   43 1   
    50   31   44 1   
    51   31   45 1   
@<TRIPOS>SUBSTRUCTURE
     1 FLG         1 TEMP              0 ****  ****    0 ROOT
