@<TRIPOS>MOLECULE
FLG
   48    51     1     0     0
SMALL
bcc


@<TRIPOS>ATOM
      1 S1         -0.2720    0.8840    0.4130 s         1 FLG     -0.705400
      2 C21         1.3650    0.7250    0.5830 c         1 FLG      0.617400
      3 N1          1.8370    0.1800    1.7600 n         1 FLG     -0.430100
      4 C17         3.1280   -0.3320    2.0210 ca        1 FLG      0.015600
      5 C18         3.7930   -1.1800    1.1220 ca        1 FLG     -0.140000
      6 C19         5.0830   -1.6550    1.3890 ca        1 FLG     -0.072600
      7 C20         5.7350   -2.4850    0.2750 c         1 FLG      0.911200
      8 O4          6.3030   -1.8430   -0.6440 o         1 FLG     -0.802300
      9 O5          5.6070   -3.7360    0.3410 o         1 FLG     -0.802300
     10 C16         3.7560   -0.0130    3.2480 ca        1 FLG     -0.175000
     11 C15         5.0220   -0.5070    3.5200 ca        1 FLG     -0.110000
     12 C14         5.7050   -1.3220    2.5970 ca        1 FLG     -0.086000
     13 C10         7.0570   -1.7540    2.9700 cc        1 FLG      0.162000
     14 C9          8.0720   -0.8430    3.1310 cd        1 FLG     -0.233100
     15 C4          9.3620   -1.2470    3.6620 cd        1 FLG      0.341700
     16 O2          9.5950   -2.5630    4.0420 os        1 FLG     -0.396800
     17 C5         10.3960   -0.3850    3.8610 cc        1 FLG     -0.329200
     18 C8          7.9520    0.5580    2.7860 cd        1 FLG     -0.025200
     19 C7          8.9610    1.4320    2.9650 cc        1 FLG     -0.263200
     20 C6         10.2570    1.0290    3.5290 c         1 FLG      0.580500
     21 O3         11.1770    1.8470    3.7150 o         1 FLG     -0.592100
     22 C11         7.3270   -3.1400    3.2850 ca        1 FLG     -0.218300
     23 C3          8.5840   -3.4800    3.8230 ca        1 FLG      0.397000
     24 C2          8.9040   -4.7960    4.1960 ca        1 FLG     -0.333300
     25 C12         6.3980   -4.1780    3.0620 ca        1 FLG      0.011000
     26 C13         6.6880   -5.4840    3.4190 ca        1 FLG     -0.189000
     27 C1          7.9390   -5.7850    3.9920 ca        1 FLG      0.170100
     28 O1          8.1580   -7.0980    4.3390 oh        1 FLG     -0.498100
     29 N2          2.1760    1.1700   -0.4280 n         1 FLG     -0.505900
     30 C22         3.6040    1.3540   -0.4060 c3        1 FLG      0.063000
     31 C23         4.0740    2.4710   -1.3270 c3        1 FLG     -0.110100
     32 H18         3.3150   -1.4870    0.1760 ha        1 FLG      0.157000
     33 H16         3.2500    0.6280    3.9850 ha        1 FLG      0.129000
     34 H15         5.5070   -0.2500    4.4740 ha        1 FLG      0.129000
     35 H5         11.3570   -0.7220    4.2710 ha        1 FLG      0.154000
     36 H8          6.9890    0.8740    2.3490 ha        1 FLG      0.146000
     37 H7          8.8630    2.4920    2.6870 ha        1 FLG      0.141000
     38 H2          9.8900   -5.0230    4.6170 ha        1 FLG      0.147000
     39 H12         5.4490   -3.9450    2.5380 ha        1 FLG      0.201000
     40 H13         5.9680   -6.2930    3.2330 ha        1 FLG      0.157000
     41 H221        4.1080    0.3900   -0.7240 h1        1 FLG      0.075700
     42 H222        3.9430    1.5850    0.6440 h1        1 FLG      0.075700
     43 H231        3.6540    3.4580   -1.0200 hc        1 FLG      0.043700
     44 H232        5.1880    2.5200   -1.2730 hc        1 FLG      0.043700
     45 H233        3.7820    2.2730   -2.3870 hc        1 FLG      0.043700
     46 HN1         1.6830    1.5370   -1.2170 hn        1 FLG      0.339500
     47 HO1         9.0730   -7.1760    4.6470 ho        1 FLG      0.416000
     48 HN2         1.1230   -0.0580    2.4200 hn        1 FLG      0.348500
@<TRIPOS>BOND
     1    1    2 2   
     2    2    3 1   
     3    2   29 1   
     4    3    4 1   
     5    3   48 1   
     6    4    5 ar  
     7    4   10 ar  
     8    5    6 ar  
     9    5   32 1   
    10    6    7 1   
    11    6   12 ar  
    12    7    8 1   
    13    7    9 1   
    14   10   11 ar  
    15   10   33 1   
    16   11   12 ar  
    17   11   34 1   
    18   12   13 1   
    19   13   14 2   
    20   13   22 1   
    21   14   15 1   
    22   14   18 1   
    23   15   16 1   
    24   15   17 2   
    25   16   23 1   
    26   17   20 1   
    27   17   35 1   
    28   18   19 2   
    29   18   36 1   
    30   19   20 1   
    31   19   37 1   
    32   20   21 2   
    33   22   23 ar  
    34   22   25 ar  
    35   23   24 ar  
    36   24   27 ar  
    37   24   38 1   
    38   25   26 ar  
    39   25   39 1   
    40   26   27 ar  
    41   26   40 1   
    42   27   28 1   
    43   28   47 1   
    44   29   30 1   
    45   29   46 1   
    46   30   31 1   
    47   30   41 1   
    48   30   42 1   
    49   31   43 1   
    50   31   44 1   
    51   31   45 1   
@<TRIPOS>SUBSTRUCTURE
     1 FLG         1 TEMP              0 ****  ****    0 ROOT
