@<TRIPOS>MOLECULE
FLH
    4     3     1     0     0
SMALL
bcc


@<TRIPOS>ATOM
      1 C1         -0.4880   -0.0370    0.9880 c         1 FLH      0.562700
      2 O1         -1.0720   -1.0380    1.3940 o         1 FLH     -0.515100
      3 H11        -0.4160    0.8920    1.5910 h4        1 FLH     -0.023800
      4 H12         0.0030   -0.0010   -0.0070 h4        1 FLH     -0.023800
@<TRIPOS>BOND
     1    1    2 2   
     2    1    3 1   
     3    1    4 1   
@<TRIPOS>SUBSTRUCTURE
     1 FLH         1 TEMP              0 ****  ****    0 ROOT
