@<TRIPOS>MOLECULE
FLH
    4     2     1     0     0
SMALL
bcc


@<TRIPOS>ATOM
      1 C1         -0.0610   -0.0000    0.0000 c1        1 FLH      0.138000
      2 O1          1.1580   -0.0000    0.0000 o         1 FLH     -0.276000
      3 H11        -0.5490   -0.0000    0.8450 DU        1 FLH      0.069000
      4 H12        -0.5490    0.0000   -0.8450 ha        1 FLH      0.069000
@<TRIPOS>BOND
     1    1    2 1   
     2    1    4 1   
@<TRIPOS>SUBSTRUCTURE
     1 FLH         1 TEMP              0 ****  ****    0 ROOT
