@<TRIPOS>MOLECULE
FLM
   17    17     1     0     0
SMALL
bcc


@<TRIPOS>ATOM
      1 C1          0.7200   -0.0000    0.0220 ca        1 FLM     -0.173300
      2 C2          0.0480   -0.0820    1.2700 ca        1 FLM      0.166600
      3 C3         -0.0510    0.0760   -1.1550 ca        1 FLM      0.159900
      4 C4          2.1990   -0.0040   -0.0450 c3        1 FLM     -0.048800
      5 C5         -1.3670   -0.0700    1.2970 ca        1 FLM     -0.207000
      6 N6          0.7650   -0.2500    2.4570 nh        1 FLM     -0.821200
      7 C7         -1.4570    0.0780   -1.1130 ca        1 FLM     -0.207000
      8 F8          0.5630    0.1520   -2.3620 f         1 FLM     -0.143900
      9 C9         -2.0960    0.0040    0.1190 ca        1 FLM     -0.072000
     10 HC41        2.6100   -0.9450    0.4020 hc        1 FLM      0.047367
     11 HC42        2.5540    0.0600   -1.1040 hc        1 FLM      0.047367
     12 HC43        2.6220    0.8690    0.5140 hc        1 FLM      0.047367
     13 HC5        -1.8990   -0.1300    2.2590 ha        1 FLM      0.134000
     14 HN61        0.2700    0.0120    3.2800 hn        1 FLM      0.394800
     15 HN62        1.7040    0.0800    2.4330 hn        1 FLM      0.394800
     16 HC7        -2.0290    0.1380   -2.0490 ha        1 FLM      0.147000
     17 HC9        -3.1960    0.0060    0.1600 ha        1 FLM      0.135000
@<TRIPOS>BOND
     1    1    2 ar  
     2    1    3 ar  
     3    1    4 1   
     4    2    5 ar  
     5    2    6 1   
     6    3    7 ar  
     7    3    8 1   
     8    4   10 1   
     9    4   11 1   
    10    4   12 1   
    11    5    9 ar  
    12    5   13 1   
    13    6   14 1   
    14    6   15 1   
    15    7    9 ar  
    16    7   16 1   
    17    9   17 1   
@<TRIPOS>SUBSTRUCTURE
     1 FLM         1 TEMP              0 ****  ****    0 ROOT
