@<TRIPOS>MOLECULE
FLM
   18    18     1     0     0
SMALL
bcc


@<TRIPOS>ATOM
      1 C1         -0.0090    0.0010   -0.0250 ca        1 FLM     -0.085300
      2 C2          1.4010    0.0010    0.0280 ca        1 FLM     -0.053400
      3 C3         -0.7040    0.0010    1.2070 ca        1 FLM      0.165900
      4 C4         -0.7370    0.0010   -1.3130 c3        1 FLM     -0.090800
      5 C5          2.1030    0.0010    1.2430 ca        1 FLM     -0.112000
      6 N6          2.1480    0.0000   -1.2320 n4        1 FLM     -0.700000
      7 C7         -0.0050    0.0020    2.4320 ca        1 FLM     -0.102000
      8 F8         -2.0530    0.0020    1.2160 f         1 FLM     -0.096900
      9 C9          1.3850    0.0010    2.4380 ca        1 FLM     -0.079000
     10 HC41       -1.8460    0.0000   -1.1450 hc        1 FLM      0.074367
     11 HC42       -0.4890   -0.9120   -1.9130 hc        1 FLM      0.074367
     12 HC43       -0.4890    0.9130   -1.9130 hc        1 FLM      0.074367
     13 HC5         3.2050    0.0010    1.2760 ha        1 FLM      0.162000
     14 HN61        1.9000   -0.8370   -1.7740 hn        1 FLM      0.465467
     15 HN62        1.8980    0.8350   -1.7760 hn        1 FLM      0.465467
     16 HC7        -0.5760    0.0020    3.3780 ha        1 FLM      0.190000
     17 HC9         1.9300    0.0020    3.3990 ha        1 FLM      0.182000
     18 H63         3.1570    0.0020   -1.0470 hn        1 FLM      0.465467
@<TRIPOS>BOND
     1    1    2 ar  
     2    1    3 ar  
     3    1    4 1   
     4    2    5 ar  
     5    2    6 1   
     6    3    7 ar  
     7    3    8 1   
     8    4   10 1   
     9    4   11 1   
    10    4   12 1   
    11    5    9 ar  
    12    5   13 1   
    13    6   14 1   
    14    6   15 1   
    15    6   18 1   
    16    7    9 ar  
    17    7   16 1   
    18    9   17 1   
@<TRIPOS>SUBSTRUCTURE
     1 FLM         1 TEMP              0 ****  ****    0 ROOT
