@<TRIPOS>MOLECULE
FLM
   17    17     1     0     0
SMALL
bcc


@<TRIPOS>ATOM
      1 C1         -0.0090   -0.0410   -0.0380 ca        1 FLM     -0.173300
      2 C2          1.4110   -0.0450   -0.0230 ca        1 FLM      0.166600
      3 C3         -0.6960    0.0270    1.1900 ca        1 FLM      0.159900
      4 C4         -0.7540   -0.1180   -1.3150 c3        1 FLM     -0.048800
      5 C5          2.0910    0.0350    1.2160 ca        1 FLM     -0.207000
      6 N6          2.1380   -0.2020   -1.2060 nh        1 FLM     -0.821200
      7 C7         -0.0080    0.0970    2.4140 ca        1 FLM     -0.207000
      8 F8         -2.0530    0.0290    1.2060 f         1 FLM     -0.143900
      9 C9          1.3830    0.0990    2.4080 ca        1 FLM     -0.072000
     10 HC41       -1.8580   -0.1100   -1.1380 hc        1 FLM      0.047367
     11 HC42       -0.5040    0.7540   -1.9710 hc        1 FLM      0.047367
     12 HC43       -0.4980   -1.0590   -1.8640 hc        1 FLM      0.047367
     13 HC5         3.1910    0.0360    1.2400 ha        1 FLM      0.134000
     14 HN61        1.6630    0.0820   -2.0330 hn        1 FLM      0.394800
     15 HN62        3.0800    0.1140   -1.1570 hn        1 FLM      0.394800
     16 HC7        -0.5730    0.1480    3.3540 ha        1 FLM      0.147000
     17 HC9         1.9290    0.1540    3.3620 ha        1 FLM      0.135000
@<TRIPOS>BOND
     1    1    2 ar  
     2    1    3 ar  
     3    1    4 1   
     4    2    5 ar  
     5    2    6 1   
     6    3    7 ar  
     7    3    8 1   
     8    4   10 1   
     9    4   11 1   
    10    4   12 1   
    11    5    9 ar  
    12    5   13 1   
    13    6   14 1   
    14    6   15 1   
    15    7    9 ar  
    16    7   16 1   
    17    9   17 1   
@<TRIPOS>SUBSTRUCTURE
     1 FLM         1 TEMP              0 ****  ****    0 ROOT
