@<TRIPOS>MOLECULE
FLM
   17    17     1     0     0
SMALL
bcc


@<TRIPOS>ATOM
      1 C1         -0.0100    0.0570   -0.0340 ca        1 FLM     -0.173300
      2 C2          1.4090    0.0020   -0.0310 ca        1 FLM      0.166600
      3 C3         -0.6890    0.0510    1.2010 ca        1 FLM      0.159900
      4 C4         -0.7630    0.1300   -1.3070 c3        1 FLM     -0.048800
      5 C5          2.0960   -0.0730    1.2040 ca        1 FLM     -0.207000
      6 N6          2.1310    0.0960   -1.2230 nv        1 FLM     -0.821200
      7 C7          0.0080   -0.0140    2.4210 ca        1 FLM     -0.207000
      8 F8         -2.0440    0.1060    1.2280 f         1 FLM     -0.143900
      9 C9          1.3970   -0.0750    2.4040 ca        1 FLM     -0.072000
     10 HC41       -1.8650    0.1730   -1.1210 hc        1 FLM      0.047367
     11 HC42       -0.4730    1.0440   -1.8840 hc        1 FLM      0.047367
     12 HC43       -0.5550   -0.7690   -1.9410 hc        1 FLM      0.047367
     13 HC5         3.1950   -0.1190    1.2200 ha        1 FLM      0.134000
     14 HN61        1.6370   -0.1910   -2.0390 hn        1 FLM      0.394800
     15 HN62        3.0600   -0.2570   -1.1740 hn        1 FLM      0.394800
     16 HC7        -0.5500   -0.0170    3.3660 ha        1 FLM      0.147000
     17 HC9         1.9490   -0.1270    3.3550 ha        1 FLM      0.135000
@<TRIPOS>BOND
     1    1    2 ar  
     2    1    3 ar  
     3    1    4 1   
     4    2    5 ar  
     5    2    6 1   
     6    3    7 ar  
     7    3    8 1   
     8    4   10 1   
     9    4   11 1   
    10    4   12 1   
    11    5    9 ar  
    12    5   13 1   
    13    6   14 1   
    14    6   15 1   
    15    7    9 ar  
    16    7   16 1   
    17    9   17 1   
@<TRIPOS>SUBSTRUCTURE
     1 FLM         1 TEMP              0 ****  ****    0 ROOT
