@<TRIPOS>MOLECULE
FLN
   27    29     1     0     0
SMALL
bcc


@<TRIPOS>ATOM
      1 O1         -0.0590    0.0380    0.0510 os        1 FLN     -0.225200
      2 C8A         1.3270    0.0410    0.0880 ca        1 FLN      0.142100
      3 C4A         2.0680   -0.0420    1.2770 ca        1 FLN     -0.214600
      4 C4          1.3700   -0.1360    2.5680 c         1 FLN      0.590900
      5 C3         -0.0870   -0.1270    2.4590 cc        1 FLN     -0.319200
      6 C2         -0.7220   -0.0500    1.2670 cd        1 FLN      0.197900
      7 C1'        -2.1750   -0.0360    1.0830 ca        1 FLN     -0.078800
      8 C2'        -2.7480    0.6260   -0.0120 ca        1 FLN     -0.092000
      9 C3'        -4.1330    0.6480   -0.1670 ca        1 FLN     -0.136500
     10 C4'        -4.9520    0.0100    0.7640 ca        1 FLN     -0.108000
     11 C5'        -4.3850   -0.6550    1.8510 ca        1 FLN     -0.136500
     12 C6'        -3.0020   -0.6820    2.0140 ca        1 FLN     -0.092000
     13 O4          1.9620   -0.2160    3.6540 o         1 FLN     -0.546100
     14 C5          3.4690   -0.0320    1.1980 ca        1 FLN     -0.047000
     15 C6          4.1020    0.0580   -0.0350 ca        1 FLN     -0.166000
     16 C7          3.3470    0.1390   -1.2110 ca        1 FLN     -0.078000
     17 C8          1.9600    0.1310   -1.1660 ca        1 FLN     -0.159000
     18 H3         -0.6530   -0.1770    3.4010 ha        1 FLN      0.168000
     19 H2'        -2.0980    1.1240   -0.7480 ha        1 FLN      0.145500
     20 H3'        -4.5780    1.1710   -1.0260 ha        1 FLN      0.138500
     21 H4'        -6.0450    0.0300    0.6400 ha        1 FLN      0.137000
     22 H5'        -5.0300   -1.1620    2.5840 ha        1 FLN      0.138500
     23 H6'        -2.5580   -1.2160    2.8690 ha        1 FLN      0.145500
     24 H5          4.0480   -0.0970    2.1350 ha        1 FLN      0.161000
     25 H6          5.2010    0.0650   -0.0900 ha        1 FLN      0.141000
     26 H7          3.8580    0.2090   -2.1840 ha        1 FLN      0.140000
     27 H8          1.3520    0.1930   -2.0790 ha        1 FLN      0.154000
@<TRIPOS>BOND
     1    1    2 1   
     2    1    6 1   
     3    2    3 ar  
     4    2   17 ar  
     5    3    4 1   
     6    3   14 ar  
     7    4    5 1   
     8    4   13 2   
     9    5    6 2   
    10    5   18 1   
    11    6    7 1   
    12    7    8 ar  
    13    7   12 ar  
    14    8    9 ar  
    15    8   19 1   
    16    9   10 ar  
    17    9   20 1   
    18   10   11 ar  
    19   10   21 1   
    20   11   12 ar  
    21   11   22 1   
    22   12   23 1   
    23   14   15 ar  
    24   14   24 1   
    25   15   16 ar  
    26   15   25 1   
    27   16   17 ar  
    28   16   26 1   
    29   17   27 1   
@<TRIPOS>SUBSTRUCTURE
     1 FLN         1 TEMP              0 ****  ****    0 ROOT
