@<TRIPOS>MOLECULE
FLN
   27    29     1     0     0
SMALL
bcc


@<TRIPOS>ATOM
      1 O1         -0.1500    0.8600    0.0700 os        1 FLN     -0.225200
      2 C8A        -1.5290    0.7220    0.0550 ca        1 FLN      0.142100
      3 C4A        -2.1810   -0.5180   -0.0230 ca        1 FLN     -0.214600
      4 C4         -1.3910   -1.7560   -0.0950 c         1 FLN      0.590900
      5 C3          0.0550   -1.5410   -0.0830 cc        1 FLN     -0.319200
      6 C2          0.6010   -0.3060    0.0010 cd        1 FLN      0.197900
      7 C1'         2.0360   -0.0170    0.0190 ca        1 FLN     -0.078800
      8 C2'         2.5250    1.1950   -0.4900 ca        1 FLN     -0.092000
      9 C3'         3.8940    1.4520   -0.4850 ca        1 FLN     -0.136500
     10 C4'         4.7830    0.5070    0.0290 ca        1 FLN     -0.108000
     11 C5'         4.2990   -0.6970    0.5430 ca        1 FLN     -0.136500
     12 C6'         2.9310   -0.9610    0.5420 ca        1 FLN     -0.092000
     13 O4         -1.9020   -2.8840   -0.1620 o         1 FLN     -0.546100
     14 C5         -3.5840   -0.5410   -0.0300 ca        1 FLN     -0.047000
     15 C6         -4.3060    0.6430    0.0390 ca        1 FLN     -0.166000
     16 C7         -3.6390    1.8730    0.1170 ca        1 FLN     -0.078000
     17 C8         -2.2520    1.9280    0.1260 ca        1 FLN     -0.159000
     18 H3          0.6880   -2.4380   -0.1540 ha        1 FLN      0.168000
     19 H2'         1.8210    1.9400   -0.8910 ha        1 FLN      0.145500
     20 H3'         4.2740    2.4020   -0.8880 ha        1 FLN      0.138500
     21 H4'         5.8640    0.7120    0.0320 ha        1 FLN      0.137000
     22 H5'         4.9980   -1.4410    0.9540 ha        1 FLN      0.138500
     23 H6'         2.5540   -1.9090    0.9560 ha        1 FLN      0.145500
     24 H5         -4.0930   -1.5180   -0.0910 ha        1 FLN      0.161000
     25 H6         -5.4060    0.6190    0.0340 ha        1 FLN      0.141000
     26 H7         -4.2200    2.8060    0.1720 ha        1 FLN      0.140000
     27 H8         -1.7130    2.8830    0.1880 ha        1 FLN      0.154000
@<TRIPOS>BOND
     1    1    2 1   
     2    1    6 1   
     3    2    3 ar  
     4    2   17 ar  
     5    3    4 1   
     6    3   14 ar  
     7    4    5 1   
     8    4   13 2   
     9    5    6 2   
    10    5   18 1   
    11    6    7 1   
    12    7    8 ar  
    13    7   12 ar  
    14    8    9 ar  
    15    8   19 1   
    16    9   10 ar  
    17    9   20 1   
    18   10   11 ar  
    19   10   21 1   
    20   11   12 ar  
    21   11   22 1   
    22   12   23 1   
    23   14   15 ar  
    24   14   24 1   
    25   15   16 ar  
    26   15   25 1   
    27   16   17 ar  
    28   16   26 1   
    29   17   27 1   
@<TRIPOS>SUBSTRUCTURE
     1 FLN         1 TEMP              0 ****  ****    0 ROOT
