@<TRIPOS>MOLECULE
FLN
   27    20     1     0     0
SMALL
bcc


@<TRIPOS>ATOM
      1 O1          0.2500    0.0170   -0.7730 o         1 FLN     -0.136000
      2 C8A         1.6400   -0.0270   -0.7680 c1        1 FLN     -0.048500
      3 C4A         2.3220   -0.0660    0.4250 c1        1 FLN     -0.048500
      4 C4          1.6200   -0.0620    1.6280 c1        1 FLN      0.312000
      5 C3          0.2460   -0.0190    1.6210 c1        1 FLN     -0.300000
      6 C2         -0.4420    0.0210    0.4120 c1        1 FLN      0.142000
      7 C1'        -1.8200    0.0390    0.2750 c1        1 FLN     -0.067000
      8 C2'        -2.5280   -1.1520    0.2440 c1        1 FLN     -0.097000
      9 C3'        -3.9100   -1.1330    0.1430 c1        1 FLN     -0.118667
     10 C4'        -4.5840    0.0760    0.0740 c1        1 FLN     -0.118667
     11 C5'        -3.8750    1.2670    0.1060 c1        1 FLN     -0.118667
     12 C6'        -2.4930    1.2480    0.2060 c1        1 FLN     -0.118667
     13 O4          2.2210   -0.0960    2.6820 o         1 FLN     -0.307000
     14 C5          3.7290   -0.0890    0.4300 c1        1 FLN     -0.103000
     15 C6          4.4290   -0.0730   -0.7700 c1        1 FLN     -0.118667
     16 C7          3.7380   -0.0340   -1.9780 c1        1 FLN     -0.118667
     17 C8          2.3500   -0.0110   -1.9840 c1        1 FLN     -0.103000
     18 H3         -0.2470   -0.0160    2.4640 ha        1 FLN      0.168000
     19 H2'        -2.0540   -2.0040    0.2930 ha        1 FLN      0.143000
     20 H3'        -4.4090   -1.9710    0.1210 ha        1 FLN      0.140500
     21 H4'        -5.5560    0.0900    0.0040 ha        1 FLN      0.140500
     22 H5'        -4.3490    2.1180    0.0570 ha        1 FLN      0.140500
     23 H6'        -1.9940    2.0880    0.2280 ha        1 FLN      0.140500
     24 H5          4.2140   -0.1170    1.2770 ha        1 FLN      0.157500
     25 H6          5.4050   -0.0900   -0.7660 ha        1 FLN      0.140500
     26 H7          4.2310   -0.0220   -2.8210 ha        1 FLN      0.140500
     27 H8          1.8660    0.0170   -2.8310 ha        1 FLN      0.157500
@<TRIPOS>BOND
     1    1    6 1   
     2    2    3 1   
     3    2   17 1   
     4    3   14 1   
     5    4    5 1   
     6    4   13 1   
     7    5   18 1   
     8    7    8 1   
     9    8   19 1   
    10    9   10 1   
    11    9   20 1   
    12   10   21 1   
    13   11   12 1   
    14   11   22 1   
    15   12   23 1   
    16   14   24 1   
    17   15   16 1   
    18   15   25 1   
    19   16   26 1   
    20   17   27 1   
@<TRIPOS>SUBSTRUCTURE
     1 FLN         1 TEMP              0 ****  ****    0 ROOT
