@<TRIPOS>MOLECULE
FLP
   30    24     1     0     0
SMALL
bcc


@<TRIPOS>ATOM
      1 C          -4.2730    0.8300   -0.9680 c1        1 FLP     -0.135000
      2 C1         -2.8870    0.8570   -0.9480 c1        1 FLP     -0.117500
      3 C2         -2.1880   -0.0350   -0.1490 c1        1 FLP     -0.061000
      4 C3         -2.8750   -0.9520    0.6310 c1        1 FLP     -0.135000
      5 C4         -4.2610   -0.9780    0.6110 c1        1 FLP     -0.135000
      6 C5         -4.9600   -0.0870   -0.1890 c1        1 FLP     -0.135000
      7 C6         -0.8020   -0.0340   -0.1590 c1        1 FLP     -0.061000
      8 C7         -0.1160   -0.7370   -1.1360 c1        1 FLP     -0.117500
      9 C8          1.2700   -0.7360   -1.1470 c1        1 FLP     -0.165000
     10 C9          1.9700   -0.0320   -0.1800 c1        1 FLP      0.029000
     11 C10         1.2840    0.6710    0.7980 c1        1 FLP     -0.156000
     12 C11        -0.1030    0.6700    0.8090 c1        1 FLP      0.092000
     13 C12         3.4830   -0.0220   -0.1970 c3        1 FLP     -0.172000
     14 C13         4.0060   -0.8970    0.9210 c3        1 FLP     -0.180000
     15 C14         3.9800    1.3930   -0.0050 c2        1 FLP      0.344000
     16 O           3.9890    2.1950   -0.9760 o         1 FLP     -0.565000
     17 O1          4.4030    1.7640    1.1210 o         1 FLP     -0.565000
     18 F          -0.7660    1.3770    1.7330 f         1 FLP     -0.122000
     19 H          -4.7650    1.4680   -1.5200 ha        1 FLP      0.124500
     20 H1         -2.4030    1.5130   -1.4850 ha        1 FLP      0.126000
     21 H3         -2.3840   -1.5670    1.2080 ha        1 FLP      0.124500
     22 H4         -4.7450   -1.6240    1.1600 ha        1 FLP      0.124500
     23 H5         -5.9350   -0.1050   -0.2030 ha        1 FLP      0.124500
     24 H7         -0.6090   -1.2470   -1.8080 ha        1 FLP      0.126000
     25 H8          1.7530   -1.2310   -1.8350 ha        1 FLP      0.128000
     26 H10         1.7760    1.1670    1.4790 ha        1 FLP      0.203000
     27 H12         3.8010   -0.3650   -1.0540 hc        1 FLP      0.087000
     28 H131        3.4120   -0.8250    1.6970 hc        1 FLP      0.062000
     29 H132        4.9070   -0.6030    1.1710 hc        1 FLP      0.062000
     30 H133        4.0380   -1.8290    0.6190 hc        1 FLP      0.062000
@<TRIPOS>BOND
     1    1    6 1   
     2    1   19 1   
     3    2    3 1   
     4    2   20 1   
     5    4    5 1   
     6    4   21 1   
     7    5   22 1   
     8    6   23 1   
     9    7    8 1   
    10    8   24 1   
    11    9   10 1   
    12    9   25 1   
    13   10   13 1   
    14   11   12 1   
    15   11   26 1   
    16   12   18 1   
    17   13   14 1   
    18   13   15 1   
    19   13   27 1   
    20   14   28 1   
    21   14   29 1   
    22   14   30 1   
    23   15   16 1   
    24   15   17 1   
@<TRIPOS>SUBSTRUCTURE
     1 FLP         1 TEMP              0 ****  ****    0 ROOT
