@<TRIPOS>MOLECULE
FLP
   30    31     1     0     0
SMALL
bcc


@<TRIPOS>ATOM
      1 C          -0.0670   -0.2760    0.0680 ca        1 FLP     -0.137000
      2 C1          1.3240   -0.3500    0.0620 ca        1 FLP     -0.123000
      3 C2          2.0580   -0.0340    1.2150 cp        1 FLP      0.001000
      4 C3          1.3650    0.3520    2.3730 ca        1 FLP     -0.123000
      5 C4         -0.0260    0.4250    2.3740 ca        1 FLP     -0.137000
      6 C5         -0.7460    0.1130    1.2220 ca        1 FLP     -0.147000
      7 C6          3.5170   -0.0780    1.2170 cp        1 FLP     -0.123000
      8 C7          4.2390    0.9520    1.8380 ca        1 FLP     -0.108000
      9 C8          5.6270    0.9580    1.8490 ca        1 FLP     -0.165000
     10 C9          6.3540   -0.0770    1.2420 ca        1 FLP      0.021700
     11 C10         5.6560   -1.1280    0.6370 ca        1 FLP     -0.156000
     12 C11         4.2520   -1.1290    0.6170 ca        1 FLP      0.126900
     13 C12         7.8420   -0.0570    1.2350 c3        1 FLP     -0.175400
     14 C13         8.3730    0.2300   -0.1530 c3        1 FLP     -0.062100
     15 C14         8.4400   -1.4130    1.7310 c         1 FLP      0.924600
     16 O           8.2620   -2.4400    1.0190 o         1 FLP     -0.830300
     17 O1          9.0910   -1.3850    2.8090 o         1 FLP     -0.830300
     18 F           3.6090   -2.1640    0.0180 f         1 FLP     -0.156900
     19 H          -0.6300   -0.5270   -0.8430 ha        1 FLP      0.119500
     20 H1          1.8570   -0.6680   -0.8470 ha        1 FLP      0.138500
     21 H3          1.9300    0.5900    3.2870 ha        1 FLP      0.138500
     22 H4         -0.5560    0.7250    3.2890 ha        1 FLP      0.119500
     23 H5         -1.8430    0.1710    1.2240 ha        1 FLP      0.117000
     24 H7          3.6860    1.7740    2.3160 ha        1 FLP      0.117000
     25 H8          6.1650    1.7780    2.3460 ha        1 FLP      0.128000
     26 H10         6.2330   -1.9740    0.2140 ha        1 FLP      0.203000
     27 H12         8.2030    0.7420    1.9400 hc        1 FLP      0.047700
     28 H131        7.9520    1.1800   -0.5600 hc        1 FLP      0.022700
     29 H132        8.1100   -0.6120   -0.8390 hc        1 FLP      0.022700
     30 H133        9.4860    0.3190   -0.1150 hc        1 FLP      0.022700
@<TRIPOS>BOND
     1    1    2 ar  
     2    1    6 ar  
     3    1   19 1   
     4    2    3 ar  
     5    2   20 1   
     6    3    4 ar  
     7    3    7 1   
     8    4    5 ar  
     9    4   21 1   
    10    5    6 ar  
    11    5   22 1   
    12    6   23 1   
    13    7    8 ar  
    14    7   12 ar  
    15    8    9 ar  
    16    8   24 1   
    17    9   10 ar  
    18    9   25 1   
    19   10   11 ar  
    20   10   13 1   
    21   11   12 ar  
    22   11   26 1   
    23   12   18 1   
    24   13   14 1   
    25   13   15 1   
    26   13   27 1   
    27   14   28 1   
    28   14   29 1   
    29   14   30 1   
    30   15   16 1   
    31   15   17 1   
@<TRIPOS>SUBSTRUCTURE
     1 FLP         1 TEMP              0 ****  ****    0 ROOT
