@<TRIPOS>MOLECULE
FLP
   30    31     1     0     0
SMALL
bcc


@<TRIPOS>ATOM
      1 C          -0.0760   -0.2940    0.1090 ca        1 FLP     -0.137000
      2 C1          1.3150   -0.3680    0.0920 ca        1 FLP     -0.123000
      3 C2          2.0590   -0.0340    1.2330 cp        1 FLP      0.001000
      4 C3          1.3760    0.3700    2.3920 ca        1 FLP     -0.123000
      5 C4         -0.0150    0.4420    2.4040 ca        1 FLP     -0.137000
      6 C5         -0.7450    0.1120    1.2630 ca        1 FLP     -0.147000
      7 C6          3.5180   -0.0780    1.2230 cp        1 FLP     -0.123000
      8 C7          4.2450    0.9620    1.8210 ca        1 FLP     -0.108000
      9 C8          5.6330    0.9690    1.8210 ca        1 FLP     -0.165000
     10 C9          6.3550   -0.0750    1.2230 ca        1 FLP      0.021700
     11 C10         5.6530   -1.1360    0.6400 ca        1 FLP     -0.156000
     12 C11         4.2480   -1.1370    0.6330 ca        1 FLP      0.126900
     13 C12         7.8430   -0.0540    1.2020 c3        1 FLP     -0.175400
     14 C13         8.3620    0.2110   -0.1940 c3        1 FLP     -0.062100
     15 C14         8.4470   -1.4020    1.7150 c         1 FLP      0.924600
     16 O           8.2620   -2.4400    1.0200 o         1 FLP     -0.829800
     17 O1          9.1070   -1.3560    2.7860 o         1 FLP     -0.829800
     18 F           3.6000   -2.1820    0.0550 f         1 FLP     -0.156900
     19 H          -0.6470   -0.5590   -0.7930 ha        1 FLP      0.119500
     20 H1          1.8410   -0.7000   -0.8160 ha        1 FLP      0.138500
     21 H3          1.9490    0.6220    3.2970 ha        1 FLP      0.138500
     22 H4         -0.5370    0.7560    3.3190 ha        1 FLP      0.119500
     23 H5         -1.8420    0.1690    1.2740 ha        1 FLP      0.117000
     24 H7          3.6950    1.7920    2.2920 ha        1 FLP      0.117000
     25 H8          6.1750    1.7970    2.3000 ha        1 FLP      0.128000
     26 H10         6.2260   -1.9880    0.2250 ha        1 FLP      0.203000
     27 H12         8.2100    0.7560    1.8920 hc        1 FLP      0.047700
     28 H131        9.4750    0.3010   -0.1680 hc        1 FLP      0.022700
     29 H132        7.9360    1.1550   -0.6130 hc        1 FLP      0.022700
     30 H133        8.0930   -0.6410   -0.8650 hc        1 FLP      0.022700
@<TRIPOS>BOND
     1    1    2 ar  
     2    1    6 ar  
     3    1   19 1   
     4    2    3 ar  
     5    2   20 1   
     6    3    4 ar  
     7    3    7 1   
     8    4    5 ar  
     9    4   21 1   
    10    5    6 ar  
    11    5   22 1   
    12    6   23 1   
    13    7    8 ar  
    14    7   12 ar  
    15    8    9 ar  
    16    8   24 1   
    17    9   10 ar  
    18    9   25 1   
    19   10   11 ar  
    20   10   13 1   
    21   11   12 ar  
    22   11   26 1   
    23   12   18 1   
    24   13   14 1   
    25   13   15 1   
    26   13   27 1   
    27   14   28 1   
    28   14   29 1   
    29   14   30 1   
    30   15   16 1   
    31   15   17 1   
@<TRIPOS>SUBSTRUCTURE
     1 FLP         1 TEMP              0 ****  ****    0 ROOT
