@<TRIPOS>MOLECULE
FLP
   30    31     1     0     0
SMALL
bcc


@<TRIPOS>ATOM
      1 C           0.9220    0.3040   -4.6360 ca        1 FLP     -0.137000
      2 C1          0.9400    0.4010   -3.2460 ca        1 FLP     -0.123000
      3 C2         -0.1910    0.0540   -2.4930 cp        1 FLP      0.001000
      4 C3         -1.3380   -0.3990   -3.1650 ca        1 FLP     -0.123000
      5 C4         -1.3520   -0.4950   -4.5540 ca        1 FLP     -0.137000
      6 C5         -0.2240   -0.1430   -5.2940 ca        1 FLP     -0.147000
      7 C6         -0.1980    0.1780   -1.0380 cp        1 FLP     -0.123000
      8 C7         -1.3240    0.7140   -0.3970 ca        1 FLP     -0.108000
      9 C8         -1.3670    0.8650    0.9830 ca        1 FLP     -0.165000
     10 C9         -0.2800    0.4770    1.7810 ca        1 FLP      0.021700
     11 C10         0.8450   -0.0820    1.1660 ca        1 FLP     -0.156000
     12 C11         0.8920   -0.2260   -0.2310 ca        1 FLP      0.126900
     13 C12        -0.3190    0.6620    3.2580 c3        1 FLP     -0.175400
     14 C13         0.6170    1.7700    3.6900 c3        1 FLP     -0.062100
     15 C14         0.0720   -0.6490    4.0140 c         1 FLP      0.924600
     16 O           1.2580   -1.0680    3.9060 o         1 FLP     -0.830300
     17 O1         -0.8270   -1.1920    4.7090 o         1 FLP     -0.830300
     18 F           2.0020   -0.7710   -0.7930 f         1 FLP     -0.156900
     19 H           1.8160    0.5790   -5.2130 ha        1 FLP      0.119500
     20 H1          1.8490    0.7420   -2.7270 ha        1 FLP      0.138500
     21 H3         -2.2270   -0.6870   -2.5840 ha        1 FLP      0.138500
     22 H4         -2.2550   -0.8550   -5.0680 ha        1 FLP      0.119500
     23 H5         -0.2360   -0.2190   -6.3900 ha        1 FLP      0.117000
     24 H7         -2.1850    1.0270   -1.0070 ha        1 FLP      0.117000
     25 H8         -2.2650    1.2860    1.4590 ha        1 FLP      0.128000
     26 H10         1.6740   -0.4450    1.8040 ha        1 FLP      0.203000
     27 H12        -1.3680    0.9230    3.5690 hc        1 FLP      0.047700
     28 H131        1.6740    1.4740    3.4800 hc        1 FLP      0.022700
     29 H132        0.3920    2.7230    3.1540 hc        1 FLP      0.022700
     30 H133        0.5100    1.9410    4.7870 hc        1 FLP      0.022700
@<TRIPOS>BOND
     1    1    2 ar  
     2    1    6 ar  
     3    1   19 1   
     4    2    3 ar  
     5    2   20 1   
     6    3    4 ar  
     7    3    7 1   
     8    4    5 ar  
     9    4   21 1   
    10    5    6 ar  
    11    5   22 1   
    12    6   23 1   
    13    7    8 ar  
    14    7   12 ar  
    15    8    9 ar  
    16    8   24 1   
    17    9   10 ar  
    18    9   25 1   
    19   10   11 ar  
    20   10   13 1   
    21   11   12 ar  
    22   11   26 1   
    23   12   18 1   
    24   13   14 1   
    25   13   15 1   
    26   13   27 1   
    27   14   28 1   
    28   14   29 1   
    29   14   30 1   
    30   15   16 1   
    31   15   17 1   
@<TRIPOS>SUBSTRUCTURE
     1 FLP         1 TEMP              0 ****  ****    0 ROOT
