@<TRIPOS>MOLECULE
FLQ
   68    70     1     0     0
SMALL
bcc


@<TRIPOS>ATOM
      1 C1        209.1710   98.9210  154.8520 ca        1 FLQ      0.133000
      2 O1        208.5770  100.1300  155.0780 oh        1 FLQ     -0.220000
      3 C2        209.3290   97.9540  155.8550 ca        1 FLQ     -0.208000
      4 C3        209.9610   96.7590  155.5000 ca        1 FLQ      0.063000
      5 O2        210.0500   95.8250  156.5530 os        1 FLQ     -0.078000
      6 C4        210.4300   94.5730  156.2510 c2        1 FLQ      0.326000
      7 C5        210.3030   93.6350  157.3020 c2        1 FLQ     -0.345000
      8 C6        210.5980   92.3050  157.0640 c2        1 FLQ      0.242000
      9 O3        210.5020   91.3370  157.9890 oh        1 FLQ     -0.185000
     10 C7        211.0390   91.8070  155.7330 c3        1 FLQ     -0.186000
     11 C8        211.2010   92.8660  154.7240 c2        1 FLQ      0.026000
     12 C9        210.9360   94.1780  154.9620 c2        1 FLQ     -0.189000
     13 C10       211.1630   95.2260  153.8970 c3        1 FLQ      0.238000
     14 C11       210.4490   96.5030  154.2170 ca        1 FLQ     -0.156000
     15 C12       210.2520   97.4850  153.2320 ca        1 FLQ     -0.030000
     16 C13       209.6240   98.6840  153.5360 ca        1 FLQ     -0.139000
     17 C16      -466.7960 -231.2720 -332.7860 c3        1 FLQ     -0.239000
     18 C17       -11.3390    8.7160  -24.5160 c2        1 FLQ     -0.218000
     19 C18       -11.5110    8.3310  -23.2590 c2        1 FLQ     -0.218000
     20 C19       215.4090  100.0790  153.7470 c2        1 FLQ     -0.008000
     21 O4        215.2550   98.0280  151.7820 o         1 FLQ     -0.270000
     22 N1        214.8650   98.9330  153.9160 n2        1 FLQ     -0.266000
     23 C1'       214.9320   96.4700  153.5990 c3        1 FLQ     -0.065000
     24 C2'       215.2820   95.3270  152.6720 c2        1 FLQ     -0.096000
     25 C3'       214.2230   94.8360  152.0470 c1        1 FLQ      0.027000
     26 C4'       212.9280   94.8110  152.3160 c2        1 FLQ     -0.159000
     27 C5'       212.6430   95.4350  153.6400 c2        1 FLQ     -0.143000
     28 C6'       213.5420   96.2820  154.1750 c2        1 FLQ     -0.084000
     29 O8'       210.6270   94.6990  152.6460 os        1 FLQ     -0.258000
     30 C9'       211.6500   94.4890  151.7020 c2        1 FLQ      0.360000
     31 O9'       211.2710   94.0510  150.6290 o         1 FLQ     -0.222000
     32 C20      -466.5080 -229.7960 -332.7080 c3        1 FLQ     -0.193000
     33 C21      -467.4310 -228.9620 -333.5850 c3        1 FLQ     -0.128000
     34 N2       -467.2810 -229.2690 -335.0410 n4        1 FLQ     -0.122000
     35 C22      -468.2020 -228.4030 -335.8850 c2        1 FLQ      0.263000
     36 O5       -467.7020 -227.3730 -336.3030 o         1 FLQ     -0.151000
     37 C23      -469.5770 -228.9320 -336.1000 c3        1 FLQ     -0.255000
     38 HO1       208.2860  100.1710  156.0030 ho        1 FLQ      0.238000
     39 H2        208.9660   98.1160  156.8800 ha        1 FLQ      0.171000
     40 H5        209.9510   93.9840  158.2880 ha        1 FLQ      0.198000
     41 HO3       210.2000   91.7010  158.8450 ho        1 FLQ      0.275000
     42 H7        210.2870   91.0410  155.3600 hc        1 FLQ      0.203000
     43 H8        212.0120   91.2360  155.8500 hc        1 FLQ      0.203000
     44 H12       210.5970   97.2860  152.2030 ha        1 FLQ      0.172000
     45 H13       209.4680   99.4570  152.7670 ha        1 FLQ      0.183000
     46 H161     -467.8810 -231.4810 -332.6180 hc        1 FLQ      0.096333
     47 H162     -466.4950 -231.7010 -333.7730 hc        1 FLQ      0.096333
     48 H171     -466.2150 -231.8100 -331.9950 hc        1 FLQ      0.096333
     49 H172      -10.4650    9.2930  -24.8460 ha        1 FLQ      0.109000
     50 H181      -12.0600    8.4840  -25.3110 ha        1 FLQ      0.109000
     51 H182      -10.7900    8.5630  -22.4630 ha        1 FLQ      0.109000
     52 H191      -12.3850    7.7540  -22.9290 ha        1 FLQ      0.109000
     53 H192      216.0860  100.3660  152.9170 h4        1 FLQ      0.140000
     54 HN1       215.1940  100.8620  154.5010 h4        1 FLQ      0.140000
     55 H2'       215.6770   96.3950  154.4500 hc        1 FLQ      0.160000
     56 H3'       216.3010   94.9250  152.6680 ha        1 FLQ      0.188000
     57 H6'       211.5520   92.5410  153.7230 ha        1 FLQ      0.195000
     58 H201     -468.5060 -229.1540 -333.3050 hx        1 FLQ      0.147000
     59 H202     -465.4330 -229.5950 -332.9650 hc        1 FLQ      0.131000
     60 H211     -466.6640 -229.4360 -331.6520 hc        1 FLQ      0.131000
     61 H212     -467.2050 -227.8640 -333.4460 hx        1 FLQ      0.147000
     62 HN2      -466.3040 -229.0960 -335.3150 hn        1 FLQ      0.255000
     63 H231     -470.0610 -229.2280 -335.1360 hc        1 FLQ      0.156000
     64 H232     -470.1950 -228.1300 -336.5870 hc        1 FLQ      0.156000
     65 H233     -469.5460 -229.8200 -336.7850 hc        1 FLQ      0.156000
     66 C14       215.0550   97.8650  152.9920 c2        1 FLQ      0.255000
     67 H121      213.3100   96.9290  155.0360 ha        1 FLQ      0.171000
     68 H22      -467.4920 -230.2600 -335.1980 hn        1 FLQ      0.255000
@<TRIPOS>BOND
     1    1    2 1   
     2    1    3 1   
     3    1   16 1   
     4    2   38 1   
     5    3    4 1   
     6    3   39 1   
     7    4    5 1   
     8    4   14 1   
     9    5    6 1   
    10    6    7 1   
    11    6   12 1   
    12    7    8 1   
    13    7   40 1   
    14    8    9 1   
    15    8   10 1   
    16    9   41 1   
    17   10   11 1   
    18   10   42 1   
    19   10   43 1   
    20   11   12 1   
    21   11   57 1   
    22   12   13 1   
    23   13   14 1   
    24   13   27 1   
    25   13   29 1   
    26   14   15 1   
    27   15   16 1   
    28   15   44 1   
    29   16   45 1   
    30   17   32 1   
    31   17   46 1   
    32   17   47 1   
    33   17   48 1   
    34   18   19 1   
    35   18   49 1   
    36   18   50 1   
    37   19   51 1   
    38   19   52 1   
    39   20   22 1   
    40   20   53 1   
    41   20   54 1   
    42   21   66 1   
    43   22   66 1   
    44   23   24 1   
    45   23   28 1   
    46   23   55 1   
    47   23   66 1   
    48   24   25 1   
    49   24   56 1   
    50   25   26 1   
    51   26   27 1   
    52   26   30 1   
    53   27   28 1   
    54   28   67 1   
    55   29   30 1   
    56   30   31 1   
    57   32   33 1   
    58   32   59 1   
    59   32   60 1   
    60   33   34 1   
    61   33   58 1   
    62   33   61 1   
    63   34   35 1   
    64   34   62 1   
    65   34   68 1   
    66   35   36 1   
    67   35   37 1   
    68   37   63 1   
    69   37   64 1   
    70   37   65 1   
@<TRIPOS>SUBSTRUCTURE
     1 FLQ         1 TEMP              0 ****  ****    0 ROOT
