@<TRIPOS>MOLECULE
FLQ
   66    70     1     0     0
SMALL
bcc


@<TRIPOS>ATOM
      1 C1          0.2950    4.2850    6.1440 ca        1 FLQ      0.163100
      2 O1          0.0510    4.2570    7.4960 oh        1 FLQ     -0.491600
      3 C2         -0.7690    4.6930    5.3310 ca        1 FLQ     -0.215500
      4 C3         -0.5630    4.7250    3.9440 ca        1 FLQ      0.169600
      5 O2         -1.6710    5.1270    3.2110 os        1 FLQ     -0.235200
      6 C4         -1.4530    5.4090    1.8680 ca        1 FLQ      0.169600
      7 C5         -2.5280    6.0460    1.2300 ca        1 FLQ     -0.215500
      8 C6         -2.3980    6.3540   -0.1280 ca        1 FLQ      0.163100
      9 O3         -3.3970    6.9730   -0.8400 oh        1 FLQ     -0.491600
     10 C7         -1.2210    6.0460   -0.8380 ca        1 FLQ     -0.206500
     11 C8         -0.1790    5.4150   -0.1750 ca        1 FLQ     -0.030500
     12 C9         -0.2790    5.0750    1.1820 ca        1 FLQ     -0.173300
     13 C10         0.8500    4.3850    1.8820 c3        1 FLQ      0.327700
     14 C11         0.6590    4.3530    3.3670 ca        1 FLQ     -0.173300
     15 C12         1.7070    3.9660    4.2140 ca        1 FLQ     -0.030500
     16 C13         1.5370    3.9250    5.5910 ca        1 FLQ     -0.206500
     17 C16        -5.4710   -0.7860    1.5450 c3        1 FLQ     -0.073400
     18 C17        -4.3290   -0.8650    0.5530 c3        1 FLQ     -0.091400
     19 C18        -3.2560   -1.8240    1.0190 c3        1 FLQ     -0.094400
     20 C19        -1.9940   -1.7260    0.1620 c3        1 FLQ      0.088000
     21 O4          0.7590   -1.6630    0.5800 o         1 FLQ     -0.619100
     22 N1         -1.2200   -0.5280    0.3590 n         1 FLQ     -0.557900
     23 C1'         0.8930    0.7150    0.6590 ca        1 FLQ     -0.107600
     24 C2'         2.1930    0.7160    0.1410 ca        1 FLQ     -0.090000
     25 C3'         2.9860    1.8710    0.1860 ca        1 FLQ     -0.066000
     26 C4'         2.4460    3.0020    0.7680 ca        1 FLQ     -0.163600
     27 C5'         1.1350    3.0040    1.3070 ca        1 FLQ     -0.098300
     28 C6'         0.3470    1.8670    1.2540 ca        1 FLQ     -0.074000
     29 O8'         2.0830    5.1510    1.6090 os        1 FLQ     -0.405900
     30 C9'         3.0160    4.3480    0.9660 c         1 FLQ      0.723200
     31 O9'         4.0880    4.8710    0.6930 o         1 FLQ     -0.554500
     32 C20        -6.3930    0.3830    1.2790 c3        1 FLQ     -0.104400
     33 C21        -5.7280    1.7570    1.3990 c3        1 FLQ      0.083000
     34 N2         -5.0830    2.0330    2.6520 n         1 FLQ     -0.557900
     35 C22        -3.7180    1.9280    2.8340 c         1 FLQ      0.669100
     36 O5         -2.9440    1.7250    1.8700 o         1 FLQ     -0.652100
     37 C23        -3.1730    2.1270    4.2270 c3        1 FLQ     -0.180100
     38 HO1         0.8720    4.0000    7.9430 ho        1 FLQ      0.424500
     39 H2         -1.7320    4.9920    5.7660 ha        1 FLQ      0.160500
     40 H5         -3.4370    6.2910    1.7940 ha        1 FLQ      0.160500
     41 HO3        -4.1340    7.1470   -0.2360 ho        1 FLQ      0.424500
     42 H7         -1.1460    6.3110   -1.9010 ha        1 FLQ      0.151500
     43 H8          0.7530    5.1800   -0.7140 ha        1 FLQ      0.149500
     44 H12         2.6800    3.7000    3.7700 ha        1 FLQ      0.149500
     45 H13         2.3650    3.6190    6.2450 ha        1 FLQ      0.151500
     46 H161       -6.0680   -1.7360    1.5010 hc        1 FLQ      0.038700
     47 H162       -5.0590   -0.7090    2.5860 hc        1 FLQ      0.038700
     48 H171       -4.7190   -1.1890   -0.4470 hc        1 FLQ      0.051700
     49 H172       -3.8830    0.1570    0.4220 hc        1 FLQ      0.051700
     50 H181       -3.6340   -2.8770    0.9520 hc        1 FLQ      0.048200
     51 H182       -3.0060   -1.6270    2.0950 hc        1 FLQ      0.048200
     52 H191       -2.2960   -1.7690   -0.9250 h1        1 FLQ      0.058700
     53 H192       -1.3420   -2.6220    0.3750 h1        1 FLQ      0.058700
     54 HN1        -1.7130    0.3260    0.5000 hn        1 FLQ      0.337500
     55 H2'         2.5960   -0.2120   -0.2990 ha        1 FLQ      0.167000
     56 H3'         4.0060    1.8730   -0.2260 ha        1 FLQ      0.159000
     57 H6'        -0.6760    1.8710    1.6690 ha        1 FLQ      0.180000
     58 H201       -6.8050    0.3050    0.2380 hc        1 FLQ      0.045200
     59 H202       -7.2600    0.3260    1.9890 hc        1 FLQ      0.045200
     60 H211       -4.9700    1.8800    0.5730 h1        1 FLQ      0.061700
     61 H212       -6.5290    2.5400    1.2520 h1        1 FLQ      0.061700
     62 HN2        -5.6630    2.0430    3.4570 hn        1 FLQ      0.305500
     63 H231       -2.3940    1.3480    4.4170 hc        1 FLQ      0.070700
     64 H232       -2.6860    3.1360    4.2750 hc        1 FLQ      0.070700
     65 H233       -3.9530    2.0620    5.0210 hc        1 FLQ      0.070700
     66 C14         0.1410   -0.5750    0.5560 c         1 FLQ      0.662700
@<TRIPOS>BOND
     1    1    2 1   
     2    1    3 ar  
     3    1   16 ar  
     4    2   38 1   
     5    3    4 ar  
     6    3   39 1   
     7    4    5 1   
     8    4   14 ar  
     9    5    6 1   
    10    6    7 ar  
    11    6   12 ar  
    12    7    8 ar  
    13    7   40 1   
    14    8    9 1   
    15    8   10 ar  
    16    9   41 1   
    17   10   11 ar  
    18   10   42 1   
    19   11   12 ar  
    20   11   43 1   
    21   12   13 1   
    22   13   14 1   
    23   13   27 1   
    24   13   29 1   
    25   14   15 ar  
    26   15   16 ar  
    27   15   44 1   
    28   16   45 1   
    29   17   18 1   
    30   17   32 1   
    31   17   46 1   
    32   17   47 1   
    33   18   19 1   
    34   18   48 1   
    35   18   49 1   
    36   19   20 1   
    37   19   50 1   
    38   19   51 1   
    39   20   22 1   
    40   20   52 1   
    41   20   53 1   
    42   21   66 2   
    43   22   54 1   
    44   22   66 1   
    45   23   24 ar  
    46   23   28 ar  
    47   23   66 1   
    48   24   25 ar  
    49   24   55 1   
    50   25   26 ar  
    51   25   56 1   
    52   26   27 ar  
    53   26   30 1   
    54   27   28 ar  
    55   28   57 1   
    56   29   30 1   
    57   30   31 2   
    58   32   33 1   
    59   32   58 1   
    60   32   59 1   
    61   33   34 1   
    62   33   60 1   
    63   33   61 1   
    64   34   35 1   
    65   34   62 1   
    66   35   36 2   
    67   35   37 1   
    68   37   63 1   
    69   37   64 1   
    70   37   65 1   
@<TRIPOS>SUBSTRUCTURE
     1 FLQ         1 TEMP              0 ****  ****    0 ROOT
