@<TRIPOS>MOLECULE
FLQ
   66    64     1     0     0
SMALL
bcc


@<TRIPOS>ATOM
      1 C1          0.5780   -1.9440   -6.3180 c1        1 FLQ      0.118000
      2 O1         -0.0240   -1.8170   -7.5940 o         1 FLQ     -0.243000
      3 C2          1.9670   -1.8400   -6.3840 c1        1 FLQ     -0.176000
      4 C3          2.7220   -1.7070   -5.1990 c1        1 FLQ      0.119000
      5 O2          4.1970   -1.5720   -5.2700 os        1 FLQ     -0.136000
      6 C4          4.9720   -1.2220   -4.0510 c2        1 FLQ      0.120000
      7 C5          6.3590   -0.9790   -4.1410 c1        1 FLQ     -0.178000
      8 C6          7.0880   -0.6640   -2.9950 c1        1 FLQ      0.117000
      9 O3          8.3980   -1.1960   -3.0090 oh        1 FLQ     -0.243000
     10 C7          6.4450   -0.5880   -1.7570 c1        1 FLQ     -0.237000
     11 C8          5.0740   -0.8280   -1.6660 c1        1 FLQ     -0.030000
     12 C9          4.3350   -1.1470   -2.8230 c2        1 FLQ     -0.175000
     13 C10         2.8730   -1.4370   -2.7270 c3        1 FLQ      0.235000
     14 C11         2.0820   -1.6790   -3.9700 c2        1 FLQ     -0.174000
     15 C12         0.6780   -1.7840   -3.9050 c2        1 FLQ     -0.029000
     16 C13        -0.0680   -1.9160   -5.0780 c2        1 FLQ     -0.235000
     17 C14        -0.7060   -1.0320    1.0310 c1        1 FLQ      0.337000
     18 C16        -3.7850    3.7890    3.1090 c3        1 FLQ     -0.157000
     19 C17        -2.7960    3.1670    2.1060 c3        1 FLQ     -0.156000
     20 C18        -2.3040    1.8140    2.6420 c3        1 FLQ     -0.183000
     21 C19        -1.1510    1.3040    1.7640 c3        1 FLQ     -0.031000
     22 O4         -1.6680   -1.6470    0.6050 o         1 FLQ     -0.351000
     23 N1         -0.8780   -0.0710    2.0840 n2        1 FLQ     -0.374000
     24 C1'         0.6990   -1.3610    0.5190 c2        1 FLQ     -0.087000
     25 C2'         1.5730   -2.0950    1.3170 c2        1 FLQ     -0.121000
     26 C3'         2.7910   -2.5220    0.8030 c1        1 FLQ     -0.059000
     27 C4'         3.1440   -2.2130   -0.5280 c1        1 FLQ     -0.141000
     28 C5'         2.2840   -1.4910   -1.3150 c2        1 FLQ     -0.081000
     29 C6'         1.0470   -1.0570   -0.7940 c2        1 FLQ     -0.052000
     30 O8'         4.0230   -2.2810   -2.7550 os        1 FLQ     -0.240000
     31 C9'         4.2670   -2.7410   -1.4210 c2        1 FLQ      0.338000
     32 O9'         5.1840   -3.4630   -1.0680 o         1 FLQ     -0.277000
     33 C20        -5.2100    3.3000    2.7950 c3        1 FLQ     -0.182000
     34 C21        -6.0900    3.4390    4.0530 c3        1 FLQ     -0.030000
     35 N2         -6.4120    2.1280    4.5620 n         1 FLQ     -0.383000
     36 C22        -6.2490    1.8400    5.9610 c2        1 FLQ      0.298000
     37 O5         -6.4830    2.7030    6.7920 o         1 FLQ     -0.370000
     38 C23        -5.7370    0.4690    6.4060 c3        1 FLQ     -0.243000
     39 HO1        -0.3250   -2.6120   -7.8610 ho        1 FLQ      0.224000
     40 H2          2.4150   -1.8050   -7.2570 ha        1 FLQ      0.173000
     41 H5          6.8150   -1.0540   -5.0090 ha        1 FLQ      0.174000
     42 HO3         8.9900   -0.5340   -2.9210 ho        1 FLQ      0.224000
     43 H7          6.9590   -0.3650   -0.9500 ha        1 FLQ      0.142000
     44 H8          4.6230   -0.7740   -0.7970 ha        1 FLQ      0.147000
     45 H12         0.2260   -1.7640   -3.0380 ha        1 FLQ      0.147000
     46 H13        -1.0460   -2.0000   -5.0320 ha        1 FLQ      0.142000
     47 H161       -3.7510    4.7700    3.0380 hc        1 FLQ      0.086500
     48 H162       -3.5400    3.5190    4.0200 hc        1 FLQ      0.086500
     49 H171       -3.2470    3.0340    1.2430 hc        1 FLQ      0.084000
     50 H172       -2.0280    3.7710    1.9850 hc        1 FLQ      0.084000
     51 H181       -3.0420    1.1660    2.6220 hc        1 FLQ      0.082500
     52 H182       -1.9880    1.9230    3.5670 hc        1 FLQ      0.082500
     53 H191       -1.4030    1.3760    0.8180 h1        1 FLQ      0.104500
     54 H192       -0.3480    1.8450    1.9320 h1        1 FLQ      0.104500
     55 HN1        -0.8430   -0.3410    2.9620 hn        1 FLQ      0.223000
     56 H2'         1.3350   -2.2960    2.2480 ha        1 FLQ      0.142000
     57 H3'         3.4070   -3.0390    1.3660 ha        1 FLQ      0.159000
     58 H6'         0.4370   -0.5350   -1.3540 ha        1 FLQ      0.175000
     59 H201       -5.1800    2.3590    2.5190 hc        1 FLQ      0.085000
     60 H202       -5.5910    3.8440    2.0670 hc        1 FLQ      0.085000
     61 H211       -5.6040    3.9460    4.7390 h1        1 FLQ      0.101500
     62 H212       -6.9220    3.9140    3.8210 h1        1 FLQ      0.101500
     63 HN2        -6.6860    1.4670    3.9870 hn        1 FLQ      0.216000
     64 H231       -5.6010    0.4700    7.3800 hc        1 FLQ      0.104000
     65 H232       -4.8860    0.2760    5.9570 hc        1 FLQ      0.104000
     66 H233       -6.3960   -0.2200    6.1680 hc        1 FLQ      0.104000
@<TRIPOS>BOND
     1    1    3 1   
     2    1   16 1   
     3    2   39 1   
     4    3   40 1   
     5    4    5 1   
     6    4   14 1   
     7    5    6 1   
     8    6    7 1   
     9    6   12 1   
    10    7   41 1   
    11    8    9 1   
    12    8   10 1   
    13    9   42 1   
    14   10   43 1   
    15   11   12 1   
    16   11   44 1   
    17   12   13 1   
    18   13   14 1   
    19   13   28 1   
    20   13   30 1   
    21   14   15 1   
    22   15   16 1   
    23   15   45 1   
    24   16   46 1   
    25   17   22 1   
    26   17   24 1   
    27   18   19 1   
    28   18   33 1   
    29   18   47 1   
    30   18   48 1   
    31   19   20 1   
    32   19   49 1   
    33   19   50 1   
    34   20   21 1   
    35   20   51 1   
    36   20   52 1   
    37   21   23 1   
    38   21   53 1   
    39   21   54 1   
    40   23   55 1   
    41   24   25 1   
    42   24   29 1   
    43   25   26 1   
    44   25   56 1   
    45   26   57 1   
    46   27   28 1   
    47   27   31 1   
    48   28   29 1   
    49   29   58 1   
    50   30   31 1   
    51   31   32 1   
    52   33   34 1   
    53   33   59 1   
    54   33   60 1   
    55   34   35 1   
    56   34   61 1   
    57   34   62 1   
    58   35   36 1   
    59   35   63 1   
    60   36   37 1   
    61   36   38 1   
    62   38   64 1   
    63   38   65 1   
    64   38   66 1   
@<TRIPOS>SUBSTRUCTURE
     1 FLQ         1 TEMP              0 ****  ****    0 ROOT
