@<TRIPOS>MOLECULE
FLR
   30    22     1     0     0
SMALL
bcc


@<TRIPOS>ATOM
      1 C1          2.9110    0.8090    0.9000 c1        1 FLR     -0.129667
      2 C           4.2960    0.7580    0.8930 c1        1 FLR     -0.137500
      3 C5          4.9590    0.0580   -0.1030 c1        1 FLR     -0.137500
      4 C4          4.2360   -0.5910   -1.0920 c1        1 FLR     -0.137500
      5 C3          2.8510   -0.5400   -1.0850 c1        1 FLR     -0.137500
      6 C2          2.1880    0.1600   -0.0890 c1        1 FLR     -0.031000
      7 C6          0.8030    0.1870   -0.0640 c1        1 FLR     -0.031000
      8 C11         0.1040   -0.7790    0.6430 c1        1 FLR      0.092000
      9 C10        -1.2820   -0.7790    0.6310 c1        1 FLR     -0.155000
     10 F           0.7670   -1.6910    1.3650 f         1 FLR     -0.122000
     11 C7          0.1160    1.1520   -0.7840 c1        1 FLR     -0.129667
     12 C8         -1.2700    1.1510   -0.7960 c1        1 FLR     -0.129667
     13 C9         -1.9690    0.1860   -0.0890 c1        1 FLR     -0.031000
     14 C12        -3.4820    0.2200   -0.0550 c2        1 FLR     -0.172000
     15 C13        -4.0290   -1.0460   -0.6770 c3        1 FLR     -0.180000
     16 C14        -3.9520    0.3200    1.3790 c1        1 FLR      0.343000
     17 O1         -3.7020    1.3540    2.0530 o         1 FLR     -0.557000
     18 O          -4.6070   -0.6240    1.8950 os        1 FLR     -0.573000
     19 H1          2.4440    1.2880    1.6110 ha        1 FLR      0.130667
     20 H2          4.8060    1.2230    1.5840 ha        1 FLR      0.122250
     21 H3          5.9340    0.0190   -0.1070 ha        1 FLR      0.122250
     22 H4          4.7030   -1.0740   -1.8000 ha        1 FLR      0.122250
     23 H5          2.3410   -1.0090   -1.7730 ha        1 FLR      0.122250
     24 H6         -1.7740   -1.4640    1.1230 ha        1 FLR      0.202000
     25 H7          0.6080    1.8440   -1.2660 ha        1 FLR      0.130667
     26 H8         -1.7540    1.8310   -1.3030 ha        1 FLR      0.130667
     27 H9         -3.8010    0.9940   -0.5570 ha        1 FLR      0.087000
     28 H10        -4.0310   -1.7640   -0.0100 hc        1 FLR      0.062000
     29 H11        -4.9450   -0.8870   -0.9890 hc        1 FLR      0.062000
     30 H12        -3.4660   -1.3060   -1.4360 hc        1 FLR      0.062000
@<TRIPOS>BOND
     1    1    6 1   
     2    1   19 1   
     3    2    3 1   
     4    2   20 1   
     5    3   21 1   
     6    4    5 1   
     7    4   22 1   
     8    5   23 1   
     9    7   11 1   
    10    8    9 1   
    11    8   10 1   
    12    9   24 1   
    13   11   25 1   
    14   12   13 1   
    15   12   26 1   
    16   14   15 1   
    17   14   16 1   
    18   14   27 1   
    19   15   28 1   
    20   15   29 1   
    21   15   30 1   
    22   16   17 1   
@<TRIPOS>SUBSTRUCTURE
     1 FLR         1 TEMP              0 ****  ****    0 ROOT
