@<TRIPOS>MOLECULE
FLR
   30    31     1     0     0
SMALL
bcc


@<TRIPOS>ATOM
      1 C1         -3.3120   -1.2410   -0.2010 ca        1 FLR     -0.122500
      2 C          -4.6980   -1.1390   -0.1130 ca        1 FLR     -0.137000
      3 C5         -5.2900    0.0540    0.2990 ca        1 FLR     -0.147000
      4 C4         -4.4870    1.1480    0.6200 ca        1 FLR     -0.137000
      5 C3         -3.1000    1.0510    0.5330 ca        1 FLR     -0.122500
      6 C2         -2.4950   -0.1460    0.1230 cp        1 FLR      0.001000
      7 C6         -1.0420   -0.2730    0.0510 cp        1 FLR     -0.123000
      8 C11        -0.2110    0.7400   -0.4850 ca        1 FLR      0.126900
      9 C10         1.1830    0.5740   -0.5380 ca        1 FLR     -0.155000
     10 F          -0.7500    1.8880   -0.9710 f         1 FLR     -0.156900
     11 C7         -0.4260   -1.4350    0.5370 ca        1 FLR     -0.108000
     12 C8          0.9520   -1.5990    0.4850 ca        1 FLR     -0.165000
     13 C9          1.7730   -0.6010   -0.0610 ca        1 FLR      0.021700
     14 C12         3.2480   -0.7890   -0.1370 c3        1 FLR     -0.175400
     15 C13         3.6950   -0.9980   -1.5670 c3        1 FLR     -0.062100
     16 C14         4.0160    0.4380    0.4550 c         1 FLR      0.923600
     17 O1          3.9290    1.5430   -0.1490 o         1 FLR     -0.830300
     18 O           4.6990    0.2330    1.4930 o         1 FLR     -0.830300
     19 H1         -2.8490   -2.1830   -0.5310 ha        1 FLR      0.139500
     20 H2         -5.3270   -2.0030   -0.3710 ha        1 FLR      0.120000
     21 H3         -6.3840    0.1330    0.3680 ha        1 FLR      0.117000
     22 H4         -4.9480    2.0920    0.9440 ha        1 FLR      0.120000
     23 H5         -2.4670    1.9180    0.7800 ha        1 FLR      0.139500
     24 H6          1.8380    1.3820   -0.9180 ha        1 FLR      0.202000
     25 H7         -1.0530   -2.2260    0.9750 ha        1 FLR      0.117000
     26 H8          1.4080   -2.5170    0.8860 ha        1 FLR      0.128000
     27 H9          3.5380   -1.6870    0.4760 hc        1 FLR      0.047700
     28 H10         4.7900   -1.2130   -1.5880 hc        1 FLR      0.022700
     29 H11         3.1530   -1.8510   -2.0410 hc        1 FLR      0.022700
     30 H12         3.5070   -0.0700   -2.1610 hc        1 FLR      0.022700
@<TRIPOS>BOND
     1    1    2 ar  
     2    1    6 ar  
     3    1   19 1   
     4    2    3 ar  
     5    2   20 1   
     6    3    4 ar  
     7    3   21 1   
     8    4    5 ar  
     9    4   22 1   
    10    5    6 ar  
    11    5   23 1   
    12    6    7 1   
    13    7    8 ar  
    14    7   11 ar  
    15    8    9 ar  
    16    8   10 1   
    17    9   13 ar  
    18    9   24 1   
    19   11   12 ar  
    20   11   25 1   
    21   12   13 ar  
    22   12   26 1   
    23   13   14 1   
    24   14   15 1   
    25   14   16 1   
    26   14   27 1   
    27   15   28 1   
    28   15   29 1   
    29   15   30 1   
    30   16   17 1   
    31   16   18 1   
@<TRIPOS>SUBSTRUCTURE
     1 FLR         1 TEMP              0 ****  ****    0 ROOT
