@<TRIPOS>MOLECULE
FLR
   30    31     1     0     0
SMALL
bcc


@<TRIPOS>ATOM
      1 C1         -0.0040    0.0130    0.0040 ca        1 FLR     -0.122500
      2 C           1.3880    0.0660   -0.0400 ca        1 FLR     -0.137000
      3 C5          2.1260    0.1060    1.1420 ca        1 FLR     -0.147000
      4 C4          1.4650    0.0900    2.3700 ca        1 FLR     -0.137000
      5 C3          0.0740    0.0370    2.4180 ca        1 FLR     -0.122500
      6 C2         -0.6780   -0.0010    1.2350 cp        1 FLR      0.001000
      7 C6         -2.1380   -0.0300    1.2680 cp        1 FLR     -0.123000
      8 C11        -2.8660   -0.8420    2.1700 ca        1 FLR      0.126900
      9 C10        -4.2710   -0.8420    2.1640 ca        1 FLR     -0.155000
     10 F          -2.2180   -1.6460    3.0520 f         1 FLR     -0.156900
     11 C7         -2.8650    0.7770    0.3820 ca        1 FLR     -0.108000
     12 C8         -4.2530    0.7780    0.3760 ca        1 FLR     -0.165000
     13 C9         -4.9740   -0.0390    1.2610 ca        1 FLR      0.021700
     14 C12        -6.4620   -0.0540    1.2370 c3        1 FLR     -0.175400
     15 C13        -6.9820   -1.3590    0.6730 c3        1 FLR     -0.062100
     16 C14        -7.0630    0.1490    2.6660 c         1 FLR      0.923600
     17 O1         -6.8720   -0.7540    3.5270 o         1 FLR     -0.830300
     18 O          -7.7270    1.2020    2.8570 o         1 FLR     -0.830300
     19 H1         -0.5830   -0.0230   -0.9310 ha        1 FLR      0.139500
     20 H2          1.9040    0.0740   -1.0110 ha        1 FLR      0.120000
     21 H3          3.2230    0.1480    1.1060 ha        1 FLR      0.117000
     22 H4          2.0420    0.1200    3.3050 ha        1 FLR      0.120000
     23 H5         -0.4470    0.0160    3.3890 ha        1 FLR      0.139500
     24 H6         -4.8430   -1.4430    2.8980 ha        1 FLR      0.202000
     25 H7         -2.3160    1.4290   -0.3150 ha        1 FLR      0.117000
     26 H8         -4.7960    1.4320   -0.3220 ha        1 FLR      0.128000
     27 H9         -6.8310    0.7960    0.6000 hc        1 FLR      0.047700
     28 H10        -6.5590   -1.5600   -0.3400 hc        1 FLR      0.022700
     29 H11        -8.0950   -1.3140    0.5940 hc        1 FLR      0.022700
     30 H12        -6.7110   -2.2000    1.3570 hc        1 FLR      0.022700
@<TRIPOS>BOND
     1    1    2 ar  
     2    1    6 ar  
     3    1   19 1   
     4    2    3 ar  
     5    2   20 1   
     6    3    4 ar  
     7    3   21 1   
     8    4    5 ar  
     9    4   22 1   
    10    5    6 ar  
    11    5   23 1   
    12    6    7 1   
    13    7    8 ar  
    14    7   11 ar  
    15    8    9 ar  
    16    8   10 1   
    17    9   13 ar  
    18    9   24 1   
    19   11   12 ar  
    20   11   25 1   
    21   12   13 ar  
    22   12   26 1   
    23   13   14 1   
    24   14   15 1   
    25   14   16 1   
    26   14   27 1   
    27   15   28 1   
    28   15   29 1   
    29   15   30 1   
    30   16   17 1   
    31   16   18 1   
@<TRIPOS>SUBSTRUCTURE
     1 FLR         1 TEMP              0 ****  ****    0 ROOT
