@<TRIPOS>MOLECULE
FLR
   30    31     1     0     0
SMALL
bcc


@<TRIPOS>ATOM
      1 C1         -0.0020    0.0010    0.0060 ca        1 FLR     -0.122500
      2 C           1.3900    0.0490   -0.0360 ca        1 FLR     -0.137000
      3 C5          2.1270    0.0890    1.1470 ca        1 FLR     -0.147000
      4 C4          1.4650    0.0780    2.3740 ca        1 FLR     -0.137000
      5 C3          0.0740    0.0290    2.4210 ca        1 FLR     -0.122500
      6 C2         -0.6780   -0.0080    1.2370 cp        1 FLR      0.001000
      7 C6         -2.1370   -0.0330    1.2690 cp        1 FLR     -0.123000
      8 C11        -2.8690   -0.8400    2.1720 ca        1 FLR      0.126900
      9 C10        -4.2740   -0.8370    2.1640 ca        1 FLR     -0.155000
     10 F          -2.2240   -1.6450    3.0550 f         1 FLR     -0.156900
     11 C7         -2.8610    0.7750    0.3800 ca        1 FLR     -0.108000
     12 C8         -4.2490    0.7800    0.3730 ca        1 FLR     -0.165000
     13 C9         -4.9740   -0.0320    1.2580 ca        1 FLR      0.021700
     14 C12        -6.4620   -0.0430    1.2340 c3        1 FLR     -0.175400
     15 C13        -6.9850   -1.3470    0.6710 c3        1 FLR     -0.062100
     16 C14        -7.0630    0.1650    2.6620 c         1 FLR      0.923600
     17 O1         -6.8770   -0.7380    3.5240 o         1 FLR     -0.830300
     18 O          -7.7240    1.2200    2.8500 o         1 FLR     -0.830300
     19 H1         -0.5800   -0.0350   -0.9290 ha        1 FLR      0.139500
     20 H2          1.9070    0.0540   -1.0060 ha        1 FLR      0.120000
     21 H3          3.2250    0.1280    1.1120 ha        1 FLR      0.117000
     22 H4          2.0410    0.1080    3.3100 ha        1 FLR      0.120000
     23 H5         -0.4480    0.0120    3.3910 ha        1 FLR      0.139500
     24 H6         -4.8490   -1.4340    2.8980 ha        1 FLR      0.202000
     25 H7         -2.3090    1.4240   -0.3170 ha        1 FLR      0.117000
     26 H8         -4.7900    1.4350   -0.3270 ha        1 FLR      0.128000
     27 H9         -6.8270    0.8080    0.5950 hc        1 FLR      0.047700
     28 H10        -6.7180   -2.1880    1.3560 hc        1 FLR      0.022700
     29 H11        -8.0980   -1.2980    0.5910 hc        1 FLR      0.022700
     30 H12        -6.5610   -1.5500   -0.3420 hc        1 FLR      0.022700
@<TRIPOS>BOND
     1    1    2 ar  
     2    1    6 ar  
     3    1   19 1   
     4    2    3 ar  
     5    2   20 1   
     6    3    4 ar  
     7    3   21 1   
     8    4    5 ar  
     9    4   22 1   
    10    5    6 ar  
    11    5   23 1   
    12    6    7 1   
    13    7    8 ar  
    14    7   11 ar  
    15    8    9 ar  
    16    8   10 1   
    17    9   13 ar  
    18    9   24 1   
    19   11   12 ar  
    20   11   25 1   
    21   12   13 ar  
    22   12   26 1   
    23   13   14 1   
    24   14   15 1   
    25   14   16 1   
    26   14   27 1   
    27   15   28 1   
    28   15   29 1   
    29   15   30 1   
    30   16   17 1   
    31   16   18 1   
@<TRIPOS>SUBSTRUCTURE
     1 FLR         1 TEMP              0 ****  ****    0 ROOT
