@<TRIPOS>MOLECULE
FLS
   47    49     1     0     0
SMALL
bcc


@<TRIPOS>ATOM
      1 C1          4.7480   -1.4240   -0.1900 c3        1 FLS      0.255500
      2 C2          4.5590   -2.8990    0.1600 c3        1 FLS     -0.119100
      3 C3          6.1710   -1.0010    0.2100 c3        1 FLS     -0.332600
      4 C7         -2.0160    1.0750    0.7910 c         1 FLS      0.697700
      5 C8         -2.3710    0.5590   -0.5450 cc        1 FLS     -0.050100
      6 S4          6.4700    0.6850    0.0610 s6        1 FLS      1.350000
      7 O28         5.9550    1.3330    1.1890 o         1 FLS     -0.644800
      8 N17         3.7810   -0.5280    0.4210 nh        1 FLS     -0.848900
      9 C14         2.4460   -0.5050    0.0000 ca        1 FLS      0.927900
     10 N15         1.5520    0.1130    0.8490 nb        1 FLS     -0.797000
     11 C10         0.2640    0.2630    0.4000 ca        1 FLS      0.622200
     12 N6         -0.6750    0.8980    1.2170 n         1 FLS     -0.423300
     13 C20        -0.2660    1.4300    2.4990 c3        1 FLS      0.068300
     14 N13         2.1220   -1.0470   -1.2550 nb        1 FLS     -0.756000
     15 C12         0.8660   -0.8880   -1.6530 ca        1 FLS      0.520200
     16 C11        -0.1340   -0.2380   -0.8890 ca        1 FLS     -0.418400
     17 C9         -1.4730   -0.0700   -1.3470 cd        1 FLS      0.000800
     18 O18        -3.6280    0.8910   -1.0370 os        1 FLS     -0.211200
     19 C19        -4.6970    0.1700   -0.5150 ca        1 FLS      0.073100
     20 C25        -5.9700    0.7730   -0.6830 ca        1 FLS      0.147900
     21 F26        -6.0830    1.9870   -1.2640 f         1 FLS     -0.116900
     22 C24        -7.1160    0.0910   -0.2510 ca        1 FLS     -0.185000
     23 C23        -6.9830   -1.1730    0.3500 ca        1 FLS      0.126900
     24 F27        -8.0910   -1.8290    0.7720 f         1 FLS     -0.136900
     25 C22        -5.7170   -1.7600    0.5190 ca        1 FLS     -0.152000
     26 C21        -4.5810   -1.0860    0.0830 ca        1 FLS     -0.134000
     27 H1          4.6620   -1.3080   -1.3150 h1        1 FLS      0.104700
     28 H2          5.3470   -3.5000   -0.3530 hc        1 FLS      0.049367
     29 H2A         4.6410   -3.0680    1.2600 hc        1 FLS      0.049367
     30 H2B         3.5590   -3.2570   -0.1850 hc        1 FLS      0.049367
     31 H3          6.3620   -1.3370    1.2640 h1        1 FLS      0.114700
     32 H3A         6.8660   -1.6050   -0.4300 h1        1 FLS      0.114700
     33 H5          8.6460    0.2410   -0.7500 h1        1 FLS      0.117033
     34 H5A         8.5790    1.6610    0.3330 h1        1 FLS      0.117033
     35 H5B         8.5340    0.0180    1.0270 h1        1 FLS      0.117033
     36 HN17        3.9390   -0.3050    1.3850 hn        1 FLS      0.450800
     37 H20        -1.1390    1.9330    2.9950 h1        1 FLS      0.066700
     38 H20A        0.1010    0.5970    3.1550 h1        1 FLS      0.066700
     39 H20B        0.5590    2.1780    2.3580 h1        1 FLS      0.066700
     40 H12         0.6170   -1.3060   -2.6490 h4        1 FLS      0.034100
     41 H9         -1.7530   -0.4360   -2.3480 ha        1 FLS      0.159000
     42 H24        -8.1090    0.5470   -0.3760 ha        1 FLS      0.167000
     43 H22        -5.6320   -2.7470    0.9950 ha        1 FLS      0.154000
     44 H21        -3.5860   -1.5360    0.2170 ha        1 FLS      0.150000
     45 O16        -2.8250    1.6370    1.5480 o         1 FLS     -0.594500
     46 C5          8.1570    0.6350    0.1750 c3        1 FLS     -0.374300
     47 O29         6.1130    1.1380   -1.2100 o         1 FLS     -0.644800
@<TRIPOS>BOND
     1    1    2 1   
     2    1    3 1   
     3    1    8 1   
     4    1   27 1   
     5    2   28 1   
     6    2   29 1   
     7    2   30 1   
     8    3    6 1   
     9    3   31 1   
    10    3   32 1   
    11    4    5 1   
    12    4   12 1   
    13    4   45 2   
    14    5   17 2   
    15    5   18 1   
    16    6    7 2   
    17    6   46 1   
    18    6   47 2   
    19    8    9 1   
    20    8   36 1   
    21    9   10 ar  
    22    9   14 ar  
    23   10   11 ar  
    24   11   12 1   
    25   11   16 ar  
    26   12   13 1   
    27   13   37 1   
    28   13   38 1   
    29   13   39 1   
    30   14   15 ar  
    31   15   16 ar  
    32   15   40 1   
    33   16   17 1   
    34   17   41 1   
    35   18   19 1   
    36   19   20 ar  
    37   19   26 ar  
    38   20   21 1   
    39   20   22 ar  
    40   22   23 ar  
    41   22   42 1   
    42   23   24 1   
    43   23   25 ar  
    44   25   26 ar  
    45   25   43 1   
    46   26   44 1   
    47   33   46 1   
    48   34   46 1   
    49   35   46 1   
@<TRIPOS>SUBSTRUCTURE
     1 FLS         1 TEMP              0 ****  ****    0 ROOT
