@<TRIPOS>MOLECULE
FLS
   47    47     1     0     0
SMALL
bcc


@<TRIPOS>ATOM
      1 C1          1.8440   -1.5920   -0.0620 c2        1 FLS     -0.172000
      2 C2          2.3330   -1.9740   -1.2400 c2        1 FLS     -0.183000
      3 C3          0.9650   -0.4130    0.1090 c3        1 FLS     -0.836000
      4 C7          4.3400    1.9790   -7.2150 c2        1 FLS      0.275000
      5 C8          2.9330    1.3710   -7.3240 c3        1 FLS     -0.064000
      6 S4          1.4990    0.6090    1.3570 s6        1 FLS      2.836000
      7 O28         2.5380    1.4600    0.9300 o         1 FLS     -0.954500
      8 N17         4.0520    2.7920   -1.2850 n3        1 FLS     -0.259000
      9 C14         3.6400    2.2940   -2.4670 c2        1 FLS      0.254000
     10 N15         4.3400    2.7400   -3.6340 n2        1 FLS     -0.294000
     11 C10         4.0970    2.1270   -4.7760 c2        1 FLS      0.101000
     12 N6          4.6670    2.6700   -5.9800 n         1 FLS     -0.193000
     13 C20         5.4450    3.7430   -6.0760 c1        1 FLS     -0.043000
     14 N13         2.5570    1.3850   -2.5220 n2        1 FLS     -0.295000
     15 C12         2.3370    0.7220   -3.6100 c1        1 FLS     -0.077000
     16 C11         3.1750    0.9100   -4.8720 c3        1 FLS     -0.264000
     17 C9          2.3600    0.8470   -6.0710 c1        1 FLS      0.062000
     18 O18         2.0780    2.2400   -8.0610 os        1 FLS     -0.142000
     19 C19         1.3560    3.1620   -7.3100 ca        1 FLS     -0.043000
     20 C25         1.4800    4.5240   -7.6720 ca        1 FLS      0.130000
     21 F26         2.3510    4.9050   -8.6300 f         1 FLS     -0.076000
     22 C24         0.6760    5.4840   -7.0360 ca        1 FLS     -0.204000
     23 C23        -0.2310    5.0720   -6.0460 ca        1 FLS      0.117000
     24 F27        -1.0010    5.9960   -5.4240 f         1 FLS     -0.096000
     25 C22        -0.3510    3.7140   -5.6940 ca        1 FLS     -0.168000
     26 C21         0.4370    2.7640   -6.3320 ca        1 FLS     -0.107000
     27 H1          3.5820    2.5250   -0.4370 hn        1 FLS      0.278000
     28 H2          2.0440   -2.1590    0.8640 ha        1 FLS      0.137000
     29 H2A         2.1340   -1.4240   -2.1750 ha        1 FLS      0.130000
     30 H2B         2.9700   -2.8630   -1.3390 ha        1 FLS      0.130000
     31 H3          0.8950    0.1390   -0.8730 h1        1 FLS      0.174500
     32 H3A        -0.0760   -0.7960    0.3020 h1        1 FLS      0.174500
     33 H5         -0.3340    1.9010    0.5840 h1        1 FLS      0.157000
     34 H5A        -0.7210    0.9790    2.0720 h1        1 FLS      0.157000
     35 H5B         0.2920    2.4490    2.1650 h1        1 FLS      0.157000
     36 HN17        4.8330    3.4040   -1.2270 hn        1 FLS      0.278000
     37 H20         7.6340    2.9970   -6.5750 ha        1 FLS      0.005500
     38 H20A        7.7490    2.9720   -5.9060 ha        1 FLS      0.005500
     39 H20B        5.7090    4.2920   -5.1500 ha        1 FLS      0.077000
     40 H12         3.8070   -0.0430   -4.8830 hc        1 FLS      0.214000
     41 H9          3.0310    0.4700   -8.0230 h1        1 FLS      0.194000
     42 H24         0.7590    6.5450   -7.3130 ha        1 FLS      0.171000
     43 H22        -1.0720    3.4120   -4.9200 ha        1 FLS      0.162000
     44 H21         0.3340    1.6910   -6.0730 ha        1 FLS      0.201000
     45 O16         5.1820    1.8530   -8.0980 o         1 FLS     -0.205000
     46 C5          0.0960    1.5350    1.5480 c3        1 FLS     -0.948000
     47 O29         1.7440   -0.1130    2.5320 o         1 FLS     -0.954500
@<TRIPOS>BOND
     1    1    2 1   
     2    1    3 1   
     3    1   28 1   
     4    2   29 1   
     5    2   30 1   
     6    3    6 1   
     7    3   31 1   
     8    3   32 1   
     9    4    5 1   
    10    4   12 1   
    11    4   45 1   
    12    5   17 1   
    13    5   18 1   
    14    5   41 1   
    15    6    7 1   
    16    6   46 1   
    17    6   47 1   
    18    8    9 1   
    19    8   27 1   
    20    8   36 1   
    21    9   10 1   
    22    9   14 1   
    23   10   11 1   
    24   11   12 1   
    25   11   16 1   
    26   12   13 1   
    27   13   39 1   
    28   14   15 1   
    29   15   16 1   
    30   16   17 1   
    31   16   40 1   
    32   18   19 1   
    33   19   20 1   
    34   19   26 1   
    35   20   21 1   
    36   20   22 1   
    37   22   23 1   
    38   22   42 1   
    39   23   24 1   
    40   23   25 1   
    41   25   26 1   
    42   25   43 1   
    43   26   44 1   
    44   33   46 1   
    45   34   46 1   
    46   35   46 1   
    47   37   38 1   
@<TRIPOS>SUBSTRUCTURE
     1 FLS         1 TEMP              0 ****  ****    0 ROOT
