@<TRIPOS>MOLECULE
FLS
   47    44     1     0     0
SMALL
bcc


@<TRIPOS>ATOM
      1 C1         -1.5760   -0.9150    3.5960 c3        1 FLS      0.053000
      2 C2         -2.4690    0.3060    3.7310 c3        1 FLS     -0.259000
      3 C3         -1.2420   -1.4420    4.9650 c3        1 FLS     -0.874000
      4 C5         -2.1650   -3.2060    7.1140 c3        1 FLS     -0.952000
      5 C7          2.4350    1.2190   -2.1920 c1        1 FLS      0.336000
      6 C8          1.8730    0.1990   -3.0990 c1        1 FLS     -0.075000
      7 O29        -3.6660   -2.4620    5.0380 o         1 FLS     -0.927000
      8 S4         -2.3280   -2.7740    5.3660 s6        1 FLS      2.823000
      9 O28        -2.0880   -3.9320    4.5070 o         1 FLS     -0.927000
     10 N17        -0.3730   -0.5540    2.9200 n3        1 FLS     -0.267000
     11 C14        -0.3250   -0.5680    1.4790 c2        1 FLS      0.202000
     12 N15         0.6140    0.3170    1.0080 n1        1 FLS     -0.283000
     13 C10         1.0190    0.2520   -0.2750 c1        1 FLS      0.214000
     14 N6          2.0300    1.2540   -0.8010 n3        1 FLS     -0.241000
     15 C20         2.6200    2.2060    0.0880 c3        1 FLS     -0.086000
     16 N13        -0.8560   -1.5250    0.6410 n2        1 FLS     -0.226000
     17 C12        -0.4530   -1.5970   -0.6500 c1        1 FLS      0.056000
     18 C11         0.4840   -0.7160   -1.1250 c1        1 FLS     -0.277000
     19 C9          0.9120   -0.7640   -2.5940 c2        1 FLS     -0.010000
     20 O16         3.2510    2.0410   -2.6180 o         1 FLS     -0.319000
     21 O18         2.3970    0.0620   -4.4480 os        1 FLS     -0.122000
     22 C19         1.6730    0.9510   -5.3440 c2        1 FLS      0.026000
     23 C25         2.2640    2.1240   -5.7820 c2        1 FLS      0.114000
     24 F26         3.5290    2.3820   -5.4780 f         1 FLS     -0.082000
     25 C24         1.5670    2.9740   -6.6420 c1        1 FLS     -0.185000
     26 C23         0.2850    2.6440   -7.0580 c1        1 FLS      0.093000
     27 F27        -0.4310    3.5230   -7.7950 f         1 FLS     -0.101000
     28 C22        -0.3060    1.4660   -6.6170 c1        1 FLS     -0.152000
     29 C21         0.3820    0.6210   -5.7630 c1        1 FLS     -0.133000
     30 H1         -2.0380   -1.6000    3.0900 h1        1 FLS      0.150000
     31 H2         -2.6520    0.6710    2.8550 hc        1 FLS      0.097333
     32 H2A        -2.0170    0.9850    4.2800 hc        1 FLS      0.097333
     33 H2B        -3.3340    0.0420    4.1710 hc        1 FLS      0.097333
     34 H3         -1.3500   -0.7120    5.6380 h1        1 FLS      0.154500
     35 H3A        -0.3150   -1.7610    4.9740 h1        1 FLS      0.154500
     36 H5         -1.2110   -3.3600    7.3280 h1        1 FLS      0.159667
     37 H5A        -2.5100   -2.4690    7.6680 h1        1 FLS      0.159667
     38 H5B        -2.6780   -4.0240    7.3000 h1        1 FLS      0.159667
     39 HN17        0.3190   -0.2600    3.3810 hn        1 FLS      0.229000
     40 H20         2.9810    1.7330    0.8920 h1        1 FLS      0.104333
     41 H20A        3.3480    2.6710   -0.3700 h1        1 FLS      0.104333
     42 H20B        1.9390    2.8580    0.3690 h1        1 FLS      0.104333
     43 H12        -0.8320   -2.2750   -1.2440 ha        1 FLS      0.173000
     44 H9          0.5430   -1.4320   -3.1820 ha        1 FLS      0.160000
     45 H24         1.9830    3.8030   -6.9530 ha        1 FLS      0.168000
     46 H22        -1.2070    1.2350   -6.9090 ha        1 FLS      0.155000
     47 H21        -0.0290   -0.1920   -5.4600 ha        1 FLS      0.150000
@<TRIPOS>BOND
     1    1    2 1   
     2    1    3 1   
     3    1   10 1   
     4    1   30 1   
     5    2   31 1   
     6    2   32 1   
     7    2   33 1   
     8    3    8 1   
     9    3   34 1   
    10    3   35 1   
    11    4    8 1   
    12    4   36 1   
    13    4   37 1   
    14    4   38 1   
    15    5   14 1   
    16    5   20 1   
    17    6   19 1   
    18    6   21 1   
    19    7    8 1   
    20    8    9 1   
    21   10   11 1   
    22   10   39 1   
    23   11   12 1   
    24   11   16 1   
    25   13   14 1   
    26   13   18 1   
    27   14   15 1   
    28   15   40 1   
    29   15   41 1   
    30   15   42 1   
    31   16   17 1   
    32   17   43 1   
    33   18   19 1   
    34   19   44 1   
    35   21   22 1   
    36   22   23 1   
    37   22   29 1   
    38   23   24 1   
    39   23   25 1   
    40   25   45 1   
    41   26   27 1   
    42   26   28 1   
    43   28   46 1   
    44   29   47 1   
@<TRIPOS>SUBSTRUCTURE
     1 FLS         1 TEMP              0 ****  ****    0 ROOT
