@<TRIPOS>MOLECULE
FLS
   48    48     1     0     0
SMALL
bcc


@<TRIPOS>ATOM
      1 C1          0.2790   -1.8220   -1.2230 c2        1 FLS     -0.180200
      2 C2         -0.8940   -1.2740   -1.5380 c2        1 FLS     -0.251000
      3 C3          0.9440   -1.6690    0.0850 c3        1 FLS     -0.092900
      4 C7          0.7600    4.6600   -5.2870 c         1 FLS      0.719700
      5 C8          0.1920    3.2830   -5.4300 cc        1 FLS      0.154900
      6 S4          5.0760    0.6810   -0.2930 s6        1 FLS      1.470000
      7 O28         3.9710   -0.1570   -0.0790 o         1 FLS     -0.618800
      8 N17         4.5190    1.9080   -1.3330 nh        1 FLS     -0.538600
      9 C14         3.3270    2.0560   -2.0330 cc        1 FLS      0.630800
     10 N15         3.2210    3.1400   -2.8880 nc        1 FLS     -0.724000
     11 C10         2.0860    3.3210   -3.5980 cd        1 FLS      0.533200
     12 N6          2.0010    4.4800   -4.4780 n         1 FLS     -0.246900
     13 C20         2.9340    5.3980   -4.6470 c1        1 FLS      0.045500
     14 N13         2.2810    1.1410   -1.8690 na        1 FLS     -0.254400
     15 C12         1.1210    1.3060   -2.5890 cc        1 FLS      0.019900
     16 C11         0.9680    2.3690   -3.4550 cd        1 FLS     -0.164600
     17 C9         -0.1940    2.8120   -4.1700 cd        1 FLS     -0.314000
     18 C19         1.4560    2.8650   -7.3870 ca        1 FLS     -0.045900
     19 C25         2.7990    2.4320   -7.4670 ca        1 FLS      0.168900
     20 F26         3.3490    1.7210   -6.4590 f         1 FLS     -0.129900
     21 C24         3.5560    2.7520   -8.6040 ca        1 FLS     -0.196000
     22 C23         2.9600    3.4960   -9.6380 ca        1 FLS      0.193900
     23 F27         3.6860    3.8070  -10.7310 f         1 FLS     -0.103900
     24 C22         1.6160    3.9190   -9.5470 ca        1 FLS     -0.159000
     25 C21         0.8660    3.5960   -8.4240 ca        1 FLS     -0.061000
     26 H1          0.8060   -2.4780   -1.9390 ha        1 FLS      0.129000
     27 H2         -1.4680   -0.6530   -0.8360 ha        1 FLS      0.122000
     28 H2A         0.3270    0.5370   -2.4240 h4        1 FLS      0.236000
     29 H2B        -1.3830   -1.4490   -2.5060 ha        1 FLS      0.122000
     30 H3          0.8790   -2.6340    0.6510 hc        1 FLS      0.055033
     31 H3A         0.4660   -0.8730    0.7080 hc        1 FLS      0.055033
     32 H5          4.5710    2.0900    1.5500 h1        1 FLS      0.152700
     33 H5A         5.8340    0.8820    1.8910 h1        1 FLS      0.152700
     34 H5B         6.2380    2.3330    0.9480 h1        1 FLS      0.152700
     35 HN17        2.0310   -1.4260   -0.0390 hc        1 FLS      0.055033
     36 H20         3.8920    5.3430   -4.0960 ha        1 FLS      0.045500
     37 H20A        6.2690    4.3680   -2.2550 ha        1 FLS      0.002500
     38 H20B        5.7810    4.5590   -2.6850 ha        1 FLS      0.002500
     39 H12         2.3530    0.3430   -1.2420 hn        1 FLS      0.377700
     40 H9         -1.1200    3.1010   -3.6670 ha        1 FLS      0.205000
     41 H24         4.6020    2.4180   -8.6860 ha        1 FLS      0.185000
     42 H22         1.1710    4.4980  -10.3720 ha        1 FLS      0.181000
     43 H21        -0.1880    3.9070   -8.3470 ha        1 FLS      0.172000
     44 O16         0.3440    5.7460   -5.6350 o         1 FLS     -0.402500
     45 C5          5.4380    1.5570    1.0790 c3        1 FLS     -0.411300
     46 O29         6.2230    0.1460   -0.8600 o         1 FLS     -0.618800
     47 H172        5.1820    2.6330   -1.5680 hn        1 FLS      0.336700
     48 O18         0.6770    2.3900   -6.3200 os        1 FLS     -0.162200
@<TRIPOS>BOND
     1    1    2 2   
     2    1    3 1   
     3    1   26 1   
     4    2   27 1   
     5    2   29 1   
     6    3   30 1   
     7    3   31 1   
     8    3   35 1   
     9    4    5 1   
    10    4   12 1   
    11    4   44 2   
    12    5   17 2   
    13    5   48 1   
    14    6    7 2   
    15    6    8 1   
    16    6   45 1   
    17    6   46 2   
    18    8    9 2   
    19    8   47 1   
    20    9   10 1   
    21    9   14 1   
    22   10   11 2   
    23   11   12 1   
    24   11   16 1   
    25   12   13 3   
    26   13   36 1   
    27   14   15 1   
    28   14   39 1   
    29   15   16 2   
    30   15   28 1   
    31   16   17 1   
    32   17   40 1   
    33   18   19 ar  
    34   18   25 ar  
    35   18   48 1   
    36   19   20 1   
    37   19   21 ar  
    38   21   22 ar  
    39   21   41 1   
    40   22   23 1   
    41   22   24 ar  
    42   24   25 ar  
    43   24   42 1   
    44   25   43 1   
    45   32   45 1   
    46   33   45 1   
    47   34   45 1   
    48   37   38 1   
@<TRIPOS>SUBSTRUCTURE
     1 FLS         1 TEMP              0 ****  ****    0 ROOT
