@<TRIPOS>MOLECULE
FLS
   47    47     1     0     0
SMALL
bcc


@<TRIPOS>ATOM
      1 C1          2.1160   -1.6790   -0.1250 c2        1 FLS     -0.171000
      2 C2          2.6380   -2.0020   -1.3070 c2        1 FLS     -0.183000
      3 C3          1.1450   -0.5760    0.0600 c3        1 FLS     -0.836000
      4 C7          4.3340    2.1940   -7.2120 c2        1 FLS      0.275000
      5 C8          2.9780    1.4810   -7.3350 c3        1 FLS     -0.064000
      6 S4          1.5930    0.4660    1.3250 s6        1 FLS      2.836000
      7 O28         2.5660    1.4000    0.9170 o         1 FLS     -0.954500
      8 N17         3.9790    2.8810   -1.2700 n8        1 FLS     -0.259000
      9 C14         3.6070    2.3730   -2.4610 c2        1 FLS      0.254000
     10 N15         4.2720    2.8910   -3.6190 n2        1 FLS     -0.294000
     11 C10         4.0780    2.2810   -4.7720 c2        1 FLS      0.101000
     12 N6          4.6060    2.8870   -5.9650 n         1 FLS     -0.193000
     13 C20         5.2990    4.0180   -6.0410 c1        1 FLS     -0.043000
     14 N13         2.5980    1.3850   -2.5340 n2        1 FLS     -0.295000
     15 C12         2.4310    0.7260   -3.6340 c1        1 FLS     -0.077000
     16 C11         3.2530    0.9990   -4.8900 c3        1 FLS     -0.264000
     17 C9          2.4460    0.8930   -6.0920 c1        1 FLS      0.062000
     18 O18         2.0590    2.2950   -8.0580 os        1 FLS     -0.142000
     19 C19         1.2680    3.1450   -7.2920 ca        1 FLS     -0.043000
     20 C25         1.2870    4.5190   -7.6300 ca        1 FLS      0.130000
     21 F26         2.1270    4.9830   -8.5790 f         1 FLS     -0.076000
     22 C24         0.4110    5.4030   -6.9780 ca        1 FLS     -0.204000
     23 C23        -0.4630    4.9050   -5.9970 ca        1 FLS      0.117000
     24 F27        -1.3010    5.7560   -5.3610 f         1 FLS     -0.096000
     25 C22        -0.4770    3.5350   -5.6690 ca        1 FLS     -0.168000
     26 C21         0.3820    2.6610   -6.3230 ca        1 FLS     -0.107000
     27 H1          3.5290    2.5640   -0.4280 hn        1 FLS      0.278000
     28 H2          2.3570   -2.2420    0.7930 ha        1 FLS      0.137000
     29 H2A         2.3990   -1.4560   -2.2340 ha        1 FLS      0.130000
     30 H2B         3.3440   -2.8370   -1.4170 ha        1 FLS      0.130000
     31 H3          0.1380   -1.0430    0.2420 h1        1 FLS      0.174500
     32 H3A         1.0350   -0.0170   -0.9150 h1        1 FLS      0.174500
     33 H5         -0.3290    1.6270    0.5580 h1        1 FLS      0.157000
     34 H5A         0.2440    2.1950    2.1530 h1        1 FLS      0.157000
     35 H5B        -0.6530    0.6530    2.0290 h1        1 FLS      0.157000
     36 HN17        4.7100    3.5510   -1.2000 hn        1 FLS      0.278000
     37 H20         7.6560    3.4240   -5.8800 ha        1 FLS      0.005500
     38 H20A        7.5390    3.4520   -6.5480 ha        1 FLS      0.005500
     39 H20B        5.5190    4.5690   -5.1060 ha        1 FLS      0.077000
     40 H12         3.9570    0.0980   -4.9160 hc        1 FLS      0.214000
     41 H9          3.1450    0.6040   -8.0490 h1        1 FLS      0.194000
     42 H24         0.4130    6.4720   -7.2360 ha        1 FLS      0.171000
     43 H22        -1.1740    3.1650   -4.9030 ha        1 FLS      0.162000
     44 H21         0.3610    1.5780   -6.0840 ha        1 FLS      0.201000
     45 O16         5.1840    2.1490   -8.0950 o         1 FLS     -0.205000
     46 C5          0.1220    1.2790    1.5200 c3        1 FLS     -0.948000
     47 O29         1.8860   -0.2520    2.4910 o         1 FLS     -0.954500
@<TRIPOS>BOND
     1    1    2 1   
     2    1    3 1   
     3    1   28 1   
     4    2   29 1   
     5    2   30 1   
     6    3    6 1   
     7    3   31 1   
     8    3   32 1   
     9    4    5 1   
    10    4   12 1   
    11    4   45 1   
    12    5   17 1   
    13    5   18 1   
    14    5   41 1   
    15    6    7 1   
    16    6   46 1   
    17    6   47 1   
    18    8    9 1   
    19    8   27 1   
    20    8   36 1   
    21    9   10 1   
    22    9   14 1   
    23   10   11 1   
    24   11   12 1   
    25   11   16 1   
    26   12   13 1   
    27   13   39 1   
    28   14   15 1   
    29   15   16 1   
    30   16   17 1   
    31   16   40 1   
    32   18   19 1   
    33   19   20 1   
    34   19   26 1   
    35   20   21 1   
    36   20   22 1   
    37   22   23 1   
    38   22   42 1   
    39   23   24 1   
    40   23   25 1   
    41   25   26 1   
    42   25   43 1   
    43   26   44 1   
    44   33   46 1   
    45   34   46 1   
    46   35   46 1   
    47   37   38 1   
@<TRIPOS>SUBSTRUCTURE
     1 FLS         1 TEMP              0 ****  ****    0 ROOT
