@<TRIPOS>MOLECULE
FLT
   30    30     1     0     0
SMALL
bcc


@<TRIPOS>ATOM
      1 N           1.1120    1.3770    3.9730 n3        1 FLT     -0.903800
      2 CA          0.0600    0.4030    4.1950 c3        1 FLT      0.047500
      3 CB          0.1070   -0.8430    3.2890 c3        1 FLT     -0.044100
      4 CG          0.2430   -0.5710    1.8320 ca        1 FLT     -0.153300
      5 CD1         1.5090   -0.4330    1.2500 ca        1 FLT     -0.114500
      6 CE1         1.6570   -0.2310   -0.1170 ca        1 FLT     -0.204500
      7 CD2        -0.8790   -0.5040    0.9940 ca        1 FLT     -0.114500
      8 CE2        -0.7570   -0.3080   -0.3770 ca        1 FLT     -0.204500
      9 CZ          0.5190   -0.1650   -0.9540 ca        1 FLT      0.187100
     10 OH          0.7990    0.0650   -2.2700 os        1 FLT     -0.323900
     11 C1         -0.2500    0.1580   -3.2590 c3        1 FLT      0.135100
     12 C2          0.5010    0.4730   -4.6170 c         1 FLT      0.924600
     13 F1         -0.9610    1.2660   -2.8420 f         1 FLT     -0.270300
     14 O3         -0.1730    1.0690   -5.5060 o         1 FLT     -0.841800
     15 O4          1.7140    0.1660   -4.7530 o         1 FLT     -0.841800
     16 C3         -1.1530   -1.1220   -3.3320 c         1 FLT      0.924600
     17 C           0.0450   -0.1070    5.6710 c         1 FLT      0.912600
     18 OXT        -1.0730   -0.2080    6.2530 o         1 FLT     -0.865800
     19 H           1.3670    1.3810    3.0010 hn        1 FLT      0.333300
     20 H2          1.9210    1.1080    4.5050 hn        1 FLT      0.333300
     21 HA1        -0.9160    0.9350    4.0000 h1        1 FLT      0.045700
     22 HB2         0.9650   -1.4860    3.6260 hc        1 FLT      0.035700
     23 HB3        -0.8370   -1.4210    3.4780 hc        1 FLT      0.035700
     24 HD1         2.4040   -0.4950    1.8860 ha        1 FLT      0.101500
     25 HE1         2.6510   -0.1280   -0.5700 ha        1 FLT      0.156000
     26 HD2        -1.8820   -0.6150    1.4320 ha        1 FLT      0.101500
     27 HE2        -1.6460   -0.2800   -1.0340 ha        1 FLT      0.156000
     28 O           1.1450   -0.4080    6.2240 o         1 FLT     -0.865800
     29 O1         -0.6320   -2.2300   -3.6270 o         1 FLT     -0.841800
     30 O2         -2.3860   -0.9810   -3.0790 o         1 FLT     -0.841800
@<TRIPOS>BOND
     1    1    2 1   
     2    1   19 1   
     3    1   20 1   
     4    2    3 1   
     5    2   17 1   
     6    2   21 1   
     7    3    4 1   
     8    3   22 1   
     9    3   23 1   
    10    4    5 ar  
    11    4    7 ar  
    12    5    6 ar  
    13    5   24 1   
    14    6    9 ar  
    15    6   25 1   
    16    7    8 ar  
    17    7   26 1   
    18    8    9 ar  
    19    8   27 1   
    20    9   10 1   
    21   10   11 1   
    22   11   12 1   
    23   11   13 1   
    24   11   16 1   
    25   12   14 1   
    26   12   15 1   
    27   16   29 1   
    28   16   30 1   
    29   17   18 1   
    30   17   28 1   
@<TRIPOS>SUBSTRUCTURE
     1 FLT         1 TEMP              0 ****  ****    0 ROOT
