@<TRIPOS>MOLECULE
FLU
   36    28     1     0     0
SMALL
bcc


@<TRIPOS>ATOM
      1 C1         -2.5720    0.8220   -3.2120 c1        1 FLU      0.121000
      2 O1         -3.2780    0.5580   -4.4320 o         1 FLU     -0.254000
      3 C2         -1.1910    0.8940   -3.2920 c1        1 FLU     -0.268000
      4 C3         -0.4180    0.8120   -2.1200 c1        1 FLU      0.136000
      5 O2          0.9760    0.9560   -2.1870 o         1 FLU     -0.140000
      6 C4          1.7470    0.9460   -1.0000 c1        1 FLU     -0.006500
      7 C5          3.1550    1.1500   -1.0680 c1        1 FLU     -0.172000
      8 C6          3.9210    1.1970    0.1200 c1        1 FLU      0.304000
      9 O3          5.0980    1.2540    0.0570 o         1 FLU     -0.362000
     10 C7          3.2870    1.0420    1.3790 c1        1 FLU     -0.252000
     11 C8          1.9110    0.8430    1.4470 c1        1 FLU     -0.172000
     12 C9          1.1260    0.7930    0.2330 c1        1 FLU     -0.006500
     13 C10        -0.2670    0.6490    0.3010 c1        1 FLU      0.173000
     14 C11        -1.0400    0.6600   -0.8870 c1        1 FLU     -0.152000
     15 C12        -2.4370    0.5880   -0.8090 c1        1 FLU      0.005000
     16 C13        -3.2000    0.6680   -1.9610 c2        1 FLU     -0.189000
     17 C14        -0.2500   -0.6600    0.9560 c1        1 FLU     -0.090000
     18 C15         0.4060   -1.7320    0.3460 c1        1 FLU     -0.136000
     19 C16         0.5940   -2.9330    1.0490 c1        1 FLU     -0.136000
     20 C17         0.1410   -3.0550    2.3170 c1        1 FLU     -0.136000
     21 C18        -0.5280   -1.9650    2.9400 c1        1 FLU     -0.136000
     22 C19        -0.7130   -0.7830    2.2500 c1        1 FLU     -0.054000
     23 C20        -1.4930    0.3670    2.8970 c2        1 FLU      0.355000
     24 O4         -0.8800    1.2930    3.4620 o         1 FLU     -0.544000
     25 O5         -2.6910    0.3520    2.9030 o         1 FLU     -0.544000
     26 HO1        -3.5170    1.4180   -4.8710 ho        1 FLU      0.213000
     27 H2         -0.7620    0.8390   -4.1460 ha        1 FLU      0.145000
     28 H5          3.6240    1.3140   -2.0060 ha        1 FLU      0.151000
     29 H7          3.8260    1.0750    2.2150 ha        1 FLU      0.139000
     30 H8          1.4970    0.7420    2.2720 ha        1 FLU      0.151000
     31 H12        -2.8860    0.4760    0.0850 ha        1 FLU      0.207000
     32 H13        -4.2500    0.6900   -1.8940 ha        1 FLU      0.156000
     33 H15         0.8340   -1.6110   -0.5740 ha        1 FLU      0.122750
     34 H16         1.0270   -3.6370    0.6440 ha        1 FLU      0.122750
     35 H17         0.1660   -3.9280    2.7640 ha        1 FLU      0.122750
     36 H18        -0.9620   -2.0950    3.8250 ha        1 FLU      0.122750
@<TRIPOS>BOND
     1    1    3 1   
     2    1   16 1   
     3    2   26 1   
     4    3   27 1   
     5    4    5 1   
     6    4   14 1   
     7    6    7 1   
     8    6   12 1   
     9    7   28 1   
    10    8    9 1   
    11    8   10 1   
    12   10   29 1   
    13   11   12 1   
    14   11   30 1   
    15   13   14 1   
    16   15   16 1   
    17   15   31 1   
    18   16   32 1   
    19   17   22 1   
    20   18   19 1   
    21   18   33 1   
    22   19   34 1   
    23   20   21 1   
    24   20   35 1   
    25   21   36 1   
    26   22   23 1   
    27   23   24 1   
    28   23   25 1   
@<TRIPOS>SUBSTRUCTURE
     1 FLU         1 TEMP              0 ****  ****    0 ROOT
