@<TRIPOS>MOLECULE
FLU
   36    39     1     0     0
SMALL
bcc


@<TRIPOS>ATOM
      1 C1         -0.1630    0.2000    4.0420 ca        1 FLU      0.163100
      2 O1         -0.1140    0.3350    5.4110 oh        1 FLU     -0.505100
      3 C2          1.0620    0.0710    3.3830 ca        1 FLU     -0.274300
      4 C3          1.0400   -0.0760    1.9860 ca        1 FLU      0.390000
      5 O2          2.2900   -0.1820    1.4060 os        1 FLU     -0.395800
      6 C4          2.3490   -0.2820    0.0210 cc        1 FLU      0.343700
      7 C5          3.6010   -0.3510   -0.5100 cd        1 FLU     -0.332200
      8 C6          3.7880   -0.4870   -1.9500 c         1 FLU      0.581500
      9 O3          4.9190   -0.5760   -2.4660 o         1 FLU     -0.600100
     10 C7          2.5620   -0.5150   -2.7580 cd        1 FLU     -0.270200
     11 C8          1.3350   -0.4520   -2.2040 cc        1 FLU     -0.019200
     12 C9          1.1370   -0.3490   -0.7730 cc        1 FLU     -0.238100
     13 C10        -0.1030   -0.3050   -0.1810 cd        1 FLU      0.171000
     14 C11        -0.1650   -0.1210    1.2520 ca        1 FLU     -0.218300
     15 C12        -1.3750    0.0370    1.9570 ca        1 FLU      0.012000
     16 C13        -1.3800    0.1880    3.3340 ca        1 FLU     -0.243000
     17 C14        -1.3220   -0.5500   -0.9600 ca        1 FLU     -0.089000
     18 C15        -1.4450   -1.8220   -1.5540 ca        1 FLU     -0.123000
     19 C16        -2.5610   -2.1470   -2.3140 ca        1 FLU     -0.168000
     20 C17        -3.5690   -1.1990   -2.5040 ca        1 FLU     -0.131000
     21 C18        -3.4510    0.0580   -1.9260 ca        1 FLU     -0.122000
     22 C19        -2.3340    0.4000   -1.1470 ca        1 FLU     -0.074600
     23 C20        -2.3200    1.8070   -0.5470 c         1 FLU      0.906200
     24 O4         -1.6550    2.6960   -1.1360 o         1 FLU     -0.809800
     25 O5         -3.0180    1.9790    0.4930 o         1 FLU     -0.809800
     26 HO1        -1.0130    0.5180    5.7190 ho        1 FLU      0.419000
     27 H2          2.0120    0.0970    3.9310 ha        1 FLU      0.160000
     28 H5          4.4980   -0.3060    0.1220 ha        1 FLU      0.152000
     29 H7          2.7000   -0.5800   -3.8470 ha        1 FLU      0.139000
     30 H8          0.4230   -0.4600   -2.8260 ha        1 FLU      0.151000
     31 H12        -2.3280    0.0990    1.3920 ha        1 FLU      0.205000
     32 H13        -2.3300    0.3310    3.8680 ha        1 FLU      0.140000
     33 H15        -0.6440   -2.5630   -1.4110 ha        1 FLU      0.122000
     34 H16        -2.6470   -3.1440   -2.7660 ha        1 FLU      0.114000
     35 H17        -4.4510   -1.4510   -3.1100 ha        1 FLU      0.114000
     36 H18        -4.2400    0.8140   -2.0650 ha        1 FLU      0.142000
@<TRIPOS>BOND
     1    1    2 1   
     2    1    3 ar  
     3    1   16 ar  
     4    2   26 1   
     5    3    4 ar  
     6    3   27 1   
     7    4    5 1   
     8    4   14 ar  
     9    5    6 1   
    10    6    7 2   
    11    6   12 1   
    12    7    8 1   
    13    7   28 1   
    14    8    9 2   
    15    8   10 1   
    16   10   11 2   
    17   10   29 1   
    18   11   12 1   
    19   11   30 1   
    20   12   13 2   
    21   13   14 1   
    22   13   17 1   
    23   14   15 ar  
    24   15   16 ar  
    25   15   31 1   
    26   16   32 1   
    27   17   18 ar  
    28   17   22 ar  
    29   18   19 ar  
    30   18   33 1   
    31   19   20 ar  
    32   19   34 1   
    33   20   21 ar  
    34   20   35 1   
    35   21   22 ar  
    36   21   36 1   
    37   22   23 1   
    38   23   24 1   
    39   23   25 1   
@<TRIPOS>SUBSTRUCTURE
     1 FLU         1 TEMP              0 ****  ****    0 ROOT
