@<TRIPOS>MOLECULE
FLU
   36    39     1     0     0
SMALL
bcc


@<TRIPOS>ATOM
      1 C1         -0.0180   -0.2900    0.0340 ca        1 FLU      0.166100
      2 O1         -0.7600   -0.3130   -1.1250 oh        1 FLU     -0.500100
      3 C2          1.3600   -0.0670    0.0250 ca        1 FLU     -0.333300
      4 C3          2.0310   -0.0460    1.2580 ca        1 FLU      0.396000
      5 O2          3.3930    0.1680    1.1630 os        1 FLU     -0.398800
      6 C4          4.1280    0.1680    2.3420 cc        1 FLU      0.343700
      7 C5          5.4690    0.3550    2.2000 cd        1 FLU     -0.333200
      8 C6          6.3380    0.4030    3.3700 c         1 FLU      0.581500
      9 O3          7.5660    0.5960    3.2760 o         1 FLU     -0.601100
     10 C7          5.6780    0.2150    4.6690 cd        1 FLU     -0.271200
     11 C8          4.3470    0.0390    4.7800 cc        1 FLU     -0.018200
     12 C9          3.4710    0.0200    3.6270 cc        1 FLU     -0.239100
     13 C10         2.1080   -0.1380    3.7140 cd        1 FLU      0.173000
     14 C11         1.3530   -0.2170    2.4820 ca        1 FLU     -0.217300
     15 C12        -0.0330   -0.4740    2.4410 ca        1 FLU      0.005000
     16 C13        -0.7190   -0.5020    1.2380 ca        1 FLU     -0.189000
     17 C14         1.4250   -0.1110    5.0120 ca        1 FLU     -0.090000
     18 C15         1.5040    1.0920    5.7430 ca        1 FLU     -0.123000
     19 C16         0.8920    1.2100    6.9830 ca        1 FLU     -0.168000
     20 C17         0.2010    0.1220    7.5220 ca        1 FLU     -0.131000
     21 C18         0.1250   -1.0680    6.8100 ca        1 FLU     -0.122000
     22 C19         0.7300   -1.2010    5.5490 ca        1 FLU     -0.074600
     23 C20         0.5720   -2.5500    4.8460 c         1 FLU      0.906200
     24 O4          1.5120   -3.3780    4.9360 o         1 FLU     -0.809300
     25 O5         -0.5240   -2.7450    4.2480 o         1 FLU     -0.809300
     26 HO1        -0.1480   -0.2330   -1.8700 ho        1 FLU      0.414000
     27 H2          1.9200    0.0750   -0.9080 ha        1 FLU      0.145000
     28 H5          5.9330    0.4730    1.2120 ha        1 FLU      0.151000
     29 H7          6.3350    0.2150    5.5510 ha        1 FLU      0.139000
     30 H8          3.8680   -0.1160    5.7620 ha        1 FLU      0.151000
     31 H12        -0.5660   -0.7170    3.3840 ha        1 FLU      0.207000
     32 H13        -1.7960   -0.7160    1.2070 ha        1 FLU      0.156000
     33 H15         2.0570    1.9440    5.3200 ha        1 FLU      0.121000
     34 H16         0.9560    2.1550    7.5400 ha        1 FLU      0.114000
     35 H17        -0.2800    0.2110    8.5060 ha        1 FLU      0.114000
     36 H18        -0.4180   -1.9330    7.2210 ha        1 FLU      0.142000
@<TRIPOS>BOND
     1    1    2 1   
     2    1    3 ar  
     3    1   16 ar  
     4    2   26 1   
     5    3    4 ar  
     6    3   27 1   
     7    4    5 1   
     8    4   14 ar  
     9    5    6 1   
    10    6    7 2   
    11    6   12 1   
    12    7    8 1   
    13    7   28 1   
    14    8    9 2   
    15    8   10 1   
    16   10   11 2   
    17   10   29 1   
    18   11   12 1   
    19   11   30 1   
    20   12   13 2   
    21   13   14 1   
    22   13   17 1   
    23   14   15 ar  
    24   15   16 ar  
    25   15   31 1   
    26   16   32 1   
    27   17   18 ar  
    28   17   22 ar  
    29   18   19 ar  
    30   18   33 1   
    31   19   20 ar  
    32   19   34 1   
    33   20   21 ar  
    34   20   35 1   
    35   21   22 ar  
    36   21   36 1   
    37   22   23 1   
    38   23   24 1   
    39   23   25 1   
@<TRIPOS>SUBSTRUCTURE
     1 FLU         1 TEMP              0 ****  ****    0 ROOT
