@<TRIPOS>MOLECULE
FLU
   36    39     1     0     0
SMALL
bcc


@<TRIPOS>ATOM
      1 C1         -0.0280   -0.3090    0.0400 ca        1 FLU      0.166100
      2 O1         -0.7720   -0.3390   -1.1170 oh        1 FLU     -0.500100
      3 C2          1.3500   -0.0780    0.0260 ca        1 FLU     -0.333300
      4 C3          2.0240   -0.0510    1.2580 ca        1 FLU      0.396000
      5 O2          3.3840    0.1710    1.1580 os        1 FLU     -0.398800
      6 C4          4.1220    0.1780    2.3350 cc        1 FLU      0.343700
      7 C5          5.4620    0.3730    2.1890 cd        1 FLU     -0.333200
      8 C6          6.3340    0.4280    3.3570 c         1 FLU      0.581500
      9 O3          7.5600    0.6280    3.2590 o         1 FLU     -0.601100
     10 C7          5.6790    0.2390    4.6580 cd        1 FLU     -0.271200
     11 C8          4.3490    0.0560    4.7730 cc        1 FLU     -0.018200
     12 C9          3.4700    0.0290    3.6230 cc        1 FLU     -0.239100
     13 C10         2.1080   -0.1360    3.7130 cd        1 FLU      0.173000
     14 C11         1.3500   -0.2230    2.4840 ca        1 FLU     -0.217300
     15 C12        -0.0350   -0.4880    2.4470 ca        1 FLU      0.005000
     16 C13        -0.7240   -0.5230    1.2460 ca        1 FLU     -0.189000
     17 C14         1.4280   -0.1110    5.0130 ca        1 FLU     -0.090000
     18 C15         1.5020    1.0940    5.7410 ca        1 FLU     -0.123000
     19 C16         0.8940    1.2110    6.9830 ca        1 FLU     -0.168000
     20 C17         0.2100    0.1200    7.5260 ca        1 FLU     -0.131000
     21 C18         0.1390   -1.0720    6.8160 ca        1 FLU     -0.122000
     22 C19         0.7410   -1.2040    5.5550 ca        1 FLU     -0.074600
     23 C20         0.5890   -2.5560    4.8550 c         1 FLU      0.906200
     24 O4          1.5340   -3.3780    4.9430 o         1 FLU     -0.809300
     25 O5         -0.5080   -2.7580    4.2610 o         1 FLU     -0.809300
     26 HO1        -0.1630   -0.2570   -1.8650 ho        1 FLU      0.414000
     27 H2          1.9060    0.0650   -0.9080 ha        1 FLU      0.145000
     28 H5          5.9220    0.4910    1.1990 ha        1 FLU      0.151000
     29 H7          6.3380    0.2450    5.5380 ha        1 FLU      0.139000
     30 H8          3.8730   -0.1000    5.7570 ha        1 FLU      0.151000
     31 H12        -0.5630   -0.7320    3.3920 ha        1 FLU      0.207000
     32 H13        -1.8000   -0.7430    1.2190 ha        1 FLU      0.156000
     33 H15         2.0500    1.9480    5.3150 ha        1 FLU      0.121000
     34 H16         0.9530    2.1580    7.5380 ha        1 FLU      0.114000
     35 H17        -0.2690    0.2090    8.5110 ha        1 FLU      0.114000
     36 H18        -0.3980   -1.9380    7.2310 ha        1 FLU      0.142000
@<TRIPOS>BOND
     1    1    2 1   
     2    1    3 ar  
     3    1   16 ar  
     4    2   26 1   
     5    3    4 ar  
     6    3   27 1   
     7    4    5 1   
     8    4   14 ar  
     9    5    6 1   
    10    6    7 2   
    11    6   12 1   
    12    7    8 1   
    13    7   28 1   
    14    8    9 2   
    15    8   10 1   
    16   10   11 2   
    17   10   29 1   
    18   11   12 1   
    19   11   30 1   
    20   12   13 2   
    21   13   14 1   
    22   13   17 1   
    23   14   15 ar  
    24   15   16 ar  
    25   15   31 1   
    26   16   32 1   
    27   17   18 ar  
    28   17   22 ar  
    29   18   19 ar  
    30   18   33 1   
    31   19   20 ar  
    32   19   34 1   
    33   20   21 ar  
    34   20   35 1   
    35   21   22 ar  
    36   21   36 1   
    37   22   23 1   
    38   23   24 1   
    39   23   25 1   
@<TRIPOS>SUBSTRUCTURE
     1 FLU         1 TEMP              0 ****  ****    0 ROOT
