@<TRIPOS>MOLECULE
FLV
   21    22     1     0     0
SMALL
bcc


@<TRIPOS>ATOM
      1 OAB        -2.4960    0.0700   -1.5920 o         1 FLV     -0.464100
      2 CAM        -1.2850    0.0190   -1.3700 c         1 FLV      0.573900
      3 CAN        -0.7200    0.0300    0.0020 ca        1 FLV     -0.067600
      4 CAH        -1.6230    0.1020    1.0520 ca        1 FLV     -0.142000
      5 CAI        -1.1410    0.1160    2.3810 ca        1 FLV      0.179100
      6 OAC        -2.0910    0.1880    3.3650 oh        1 FLV     -0.482100
      7 CAF         0.2220    0.0590    2.6460 ca        1 FLV     -0.252000
      8 CAK         1.1310   -0.0130    1.5650 ca        1 FLV      0.241100
      9 OAE         2.4340   -0.0630    1.9620 oh        1 FLV     -0.499100
     10 CAO         0.6770   -0.0290    0.2300 ca        1 FLV     -0.265600
     11 CAL         1.6110   -0.1030   -0.9030 c         1 FLV      0.608900
     12 OAA         2.8450   -0.1570   -0.7500 o         1 FLV     -0.571100
     13 CAG         1.0430   -0.1140   -2.2530 cc        1 FLV     -0.319200
     14 CAJ        -0.2860   -0.0580   -2.4730 cd        1 FLV      0.085900
     15 OAD        -0.8660   -0.0650   -3.7090 oh        1 FLV     -0.460100
     16 HAH        -2.7080    0.1470    0.8660 ha        1 FLV      0.180000
     17 HAC        -1.6400    0.1900    4.2240 ho        1 FLV      0.430000
     18 HAF         0.6150    0.0700    3.6720 ha        1 FLV      0.163000
     19 HAE         3.0310   -0.1120    1.1950 ho        1 FLV      0.468000
     20 HAG         1.7720   -0.1710   -3.0770 ha        1 FLV      0.162000
     21 HAD        -0.1660   -0.1170   -4.3800 ho        1 FLV      0.430000
@<TRIPOS>BOND
     1    1    2 2   
     2    2    3 1   
     3    2   14 1   
     4    3    4 ar  
     5    3   10 ar  
     6    4    5 ar  
     7    4   16 1   
     8    5    6 1   
     9    5    7 ar  
    10    6   17 1   
    11    7    8 ar  
    12    7   18 1   
    13    8    9 1   
    14    8   10 ar  
    15    9   19 1   
    16   10   11 1   
    17   11   12 2   
    18   11   13 1   
    19   13   14 2   
    20   13   20 1   
    21   14   15 1   
    22   15   21 1   
@<TRIPOS>SUBSTRUCTURE
     1 FLV         1 TEMP              0 ****  ****    0 ROOT
