@<TRIPOS>MOLECULE
FLV
   21    22     1     0     0
SMALL
bcc


@<TRIPOS>ATOM
      1 OAB         0.0320    0.3210   -0.0340 o         1 FLV     -0.519100
      2 CAM         1.2630    0.1900   -0.0070 c         1 FLV      0.553900
      3 CAN         2.0460    0.1100    1.2430 ca        1 FLV     -0.062600
      4 CAH         1.3600    0.1860    2.4540 ca        1 FLV     -0.203000
      5 CAI         2.0770    0.1120    3.6610 ca        1 FLV      0.179100
      6 OAC         1.4650    0.1800    4.8860 oh        1 FLV     -0.486100
      7 CAF         3.4660   -0.0350    3.6630 ca        1 FLV     -0.240000
      8 CAK         4.1400   -0.1100    2.4320 ca        1 FLV      0.206100
      9 OAE         5.4980   -0.2550    2.3720 oh        1 FLV     -0.450100
     10 CAO         3.4440   -0.0390    1.2040 ca        1 FLV     -0.195600
     11 CAL         4.1760   -0.1200   -0.0770 c         1 FLV      0.581900
     12 OAA         5.4050   -0.2510   -0.1350 o         1 FLV     -0.491100
     13 CAG         3.3730   -0.0380   -1.3070 cc        1 FLV     -0.236200
     14 CAJ         2.0330    0.1040   -1.2750 cd        1 FLV      0.043900
     15 OAD         1.3390    0.1750   -2.4560 oh        1 FLV     -0.482100
     16 HAH         0.2650    0.3020    2.4560 ha        1 FLV      0.163000
     17 HAC         0.5110    0.2810    4.7440 ho        1 FLV      0.431000
     18 HAF         4.0130   -0.0910    4.6150 ha        1 FLV      0.163000
     19 HAE         5.8420   -0.2890    3.2790 ho        1 FLV      0.425000
     20 HAG         3.9230   -0.1000   -2.2590 ha        1 FLV      0.176000
     21 HAD         0.3930    0.2760   -2.2460 ho        1 FLV      0.443000
@<TRIPOS>BOND
     1    1    2 2   
     2    2    3 1   
     3    2   14 1   
     4    3    4 ar  
     5    3   10 ar  
     6    4    5 ar  
     7    4   16 1   
     8    5    6 1   
     9    5    7 ar  
    10    6   17 1   
    11    7    8 ar  
    12    7   18 1   
    13    8    9 1   
    14    8   10 ar  
    15    9   19 1   
    16   10   11 1   
    17   11   12 2   
    18   11   13 1   
    19   13   14 2   
    20   13   20 1   
    21   14   15 1   
    22   15   21 1   
@<TRIPOS>SUBSTRUCTURE
     1 FLV         1 TEMP              0 ****  ****    0 ROOT
