@<TRIPOS>MOLECULE
FLV
   21    19     1     0     0
SMALL
bcc


@<TRIPOS>ATOM
      1 OAB        -2.7020   -0.0240   -1.3500 o         1 FLV     -0.233000
      2 CAM        -1.4870   -0.0240   -1.3500 c1        1 FLV      0.300000
      3 CAN        -0.7110   -0.0240   -0.0060 c1        1 FLV     -0.042000
      4 CAH        -1.4100   -0.0240    1.2030 c1        1 FLV     -0.207000
      5 CAI        -0.7130   -0.0240    2.4110 c1        1 FLV      0.136000
      6 OAC        -1.3880    0.2730    3.6090 oh        1 FLV     -0.241000
      7 CAF         0.6910   -0.0240    2.4130 c1        1 FLV     -0.243000
      8 CAK         1.3910   -0.0240    1.2070 c1        1 FLV      0.161000
      9 OAE         2.7590   -0.3440    1.2860 oh        1 FLV     -0.205000
     10 CAO         0.6960   -0.0240   -0.0040 c2        1 FLV     -0.178000
     11 CAL         1.4760   -0.0240   -1.3460 c2        1 FLV      0.313000
     12 OAA         2.6910   -0.0240   -1.3420 o         1 FLV     -0.259000
     13 CAG         0.7340   -0.0240   -2.6410 c2        1 FLV     -0.289000
     14 CAJ        -0.7400   -0.0240   -2.6440 c2        1 FLV      0.045000
     15 OAD        -1.4420   -0.0920   -3.8610 oh        1 FLV     -0.221000
     16 HAH        -2.3860   -0.0320    1.2020 ha        1 FLV      0.164000
     17 HAC        -1.6350   -0.4820    4.0050 ho        1 FLV      0.230000
     18 HAF         1.1770   -0.0240    3.2600 ha        1 FLV      0.162000
     19 HAE         3.1940    0.3130    1.6950 ho        1 FLV      0.223000
     20 HAG         1.2240   -0.0240   -3.4860 ha        1 FLV      0.160000
     21 HAD        -1.4200    0.7010   -4.2600 ho        1 FLV      0.227000
@<TRIPOS>BOND
     1    1    2 1   
     2    2   14 1   
     3    3    4 1   
     4    3   10 1   
     5    4   16 1   
     6    5    6 1   
     7    5    7 1   
     8    6   17 1   
     9    7   18 1   
    10    8    9 1   
    11    8   10 1   
    12    9   19 1   
    13   10   11 1   
    14   11   12 1   
    15   11   13 1   
    16   13   14 1   
    17   13   20 1   
    18   14   15 1   
    19   15   21 1   
@<TRIPOS>SUBSTRUCTURE
     1 FLV         1 TEMP              0 ****  ****    0 ROOT
