@<TRIPOS>MOLECULE
FLV
   21    22     1     0     0
SMALL
bcc


@<TRIPOS>ATOM
      1 OAB         0.0360    0.3620   -0.0320 o         1 FLV     -0.519100
      2 CAM         1.2660    0.2190   -0.0060 c         1 FLV      0.553900
      3 CAN         2.0470    0.1160    1.2440 ca        1 FLV     -0.062600
      4 CAH         1.3600    0.1850    2.4540 ca        1 FLV     -0.203000
      5 CAI         2.0750    0.0900    3.6610 ca        1 FLV      0.179100
      6 OAC         1.4630    0.1500    4.8870 oh        1 FLV     -0.486100
      7 CAF         3.4630   -0.0710    3.6620 ca        1 FLV     -0.240000
      8 CAK         4.1370   -0.1380    2.4310 ca        1 FLV      0.206100
      9 OAE         5.4940   -0.2950    2.3710 oh        1 FLV     -0.450100
     10 CAO         3.4440   -0.0460    1.2040 ca        1 FLV     -0.195600
     11 CAL         4.1760   -0.1190   -0.0770 c         1 FLV      0.581900
     12 OAA         5.4030   -0.2610   -0.1360 o         1 FLV     -0.491100
     13 CAG         3.3740   -0.0150   -1.3070 cc        1 FLV     -0.236200
     14 CAJ         2.0360    0.1410   -1.2740 cd        1 FLV      0.043900
     15 OAD         1.3430    0.2320   -2.4550 oh        1 FLV     -0.482100
     16 HAH         0.2660    0.3120    2.4570 ha        1 FLV      0.163000
     17 HAC         0.5100    0.2630    4.7450 ho        1 FLV      0.431000
     18 HAF         4.0090   -0.1430    4.6140 ha        1 FLV      0.163000
     19 HAE         5.8370   -0.3430    3.2770 ho        1 FLV      0.425000
     20 HAG         3.9250   -0.0700   -2.2600 ha        1 FLV      0.176000
     21 HAD         0.3990    0.3400   -2.2450 ho        1 FLV      0.443000
@<TRIPOS>BOND
     1    1    2 2   
     2    2    3 1   
     3    2   14 1   
     4    3    4 ar  
     5    3   10 ar  
     6    4    5 ar  
     7    4   16 1   
     8    5    6 1   
     9    5    7 ar  
    10    6   17 1   
    11    7    8 ar  
    12    7   18 1   
    13    8    9 1   
    14    8   10 ar  
    15    9   19 1   
    16   10   11 1   
    17   11   12 2   
    18   11   13 1   
    19   13   14 2   
    20   13   20 1   
    21   14   15 1   
    22   15   21 1   
@<TRIPOS>SUBSTRUCTURE
     1 FLV         1 TEMP              0 ****  ****    0 ROOT
