@<TRIPOS>MOLECULE
FLW
   49    51     1     0     0
SMALL
bcc


@<TRIPOS>ATOM
      1 C14        -0.0940   -0.2930   -0.2000 ca        1 FLW     -0.185000
      2 C15         1.2800   -0.0380   -0.3420 ca        1 FLW      0.127900
      3 C20         2.0320    1.0500   12.3350 c3        1 FLW     -0.102400
      4 C21         0.6680    1.4140   11.7790 c3        1 FLW      0.132400
      5 C23         4.4930    1.1050   12.0130 c3        1 FLW     -0.102400
      6 C29         1.7260   -2.8590    6.5970 c3        1 FLW      0.069300
      7 F28        -1.9930   -0.5030    1.2270 f         1 FLW     -0.116900
      8 C13        -0.6730   -0.2610    1.0770 ca        1 FLW      0.147900
      9 F27         1.8400   -0.0730   -1.5750 f         1 FLW     -0.135900
     10 C16         2.0790    0.2520    0.7790 ca        1 FLW     -0.152000
     11 C17         1.5020    0.2900    2.0440 ca        1 FLW     -0.134000
     12 C12         0.1380    0.0390    2.2000 ca        1 FLW      0.071100
     13 O11        -0.5380    0.1150    3.4140 os        1 FLW     -0.211200
     14 C9          0.2430   -0.0150    4.5570 cc        1 FLW     -0.052100
     15 C10         0.4500    1.0580    5.3630 cd        1 FLW      0.002800
     16 C5          1.0950    0.8670    6.6200 ca        1 FLW     -0.427400
     17 C4          1.3350    1.9230    7.5320 ca        1 FLW      0.521200
     18 N1          1.9290    1.7730    8.7090 nb        1 FLW     -0.766000
     19 C8          0.6690   -1.3790    4.9260 c         1 FLW      0.697700
     20 O26         0.4990   -2.3720    4.2010 o         1 FLW     -0.593500
     21 N7          1.3130   -1.5370    6.1790 n         1 FLW     -0.425300
     22 C6          1.5250   -0.4460    7.0270 ca        1 FLW      0.626200
     23 N3          2.1380   -0.6450    8.2370 nb        1 FLW     -0.815000
     24 C2          2.3430    0.4680    9.0320 ca        1 FLW      0.928900
     25 N18         3.0650    0.2570   10.2000 nh        1 FLW     -0.834900
     26 C19         3.1420    1.2180   11.2840 c3        1 FLW      0.221500
     27 C24         5.6580    1.4290   11.0940 c3        1 FLW      0.132400
     28 O25         6.8050    1.5470   11.9220 oh        1 FLW     -0.603800
     29 O22        -0.2440    1.3450   12.8650 oh        1 FLW     -0.603800
     30 H14        -0.7120   -0.5230   -1.0800 ha        1 FLW      0.168000
     31 H20         2.0110    0.0010   12.7260 hc        1 FLW      0.066200
     32 H20A        2.2580    1.7240   13.2030 hc        1 FLW      0.066200
     33 H21         0.6780    2.4530   11.3510 h1        1 FLW      0.027950
     34 H21A        0.3560    0.6940   10.9750 h1        1 FLW      0.027950
     35 H23         4.6280    0.0810   12.4470 hc        1 FLW      0.066200
     36 H23A        4.4910    1.8320   12.8670 hc        1 FLW      0.066200
     37 H29         1.1940   -3.1450    7.5430 h1        1 FLW      0.065033
     38 H29A        1.4750   -3.6040    5.7950 h1        1 FLW      0.065033
     39 H29B        2.8330   -2.8720    6.7790 h1        1 FLW      0.065033
     40 H16         3.1530    0.4450    0.6480 ha        1 FLW      0.154000
     41 H17         2.1210    0.5110    2.9270 ha        1 FLW      0.150000
     42 H10         0.1150    2.0670    5.0750 ha        1 FLW      0.159000
     43 H4          1.0140    2.9530    7.2790 h4        1 FLW      0.033100
     44 HN18        3.2300   -0.6940   10.4580 hn        1 FLW      0.444800
     45 H19         3.0700    2.2630   10.8550 h1        1 FLW      0.093700
     46 H24         5.8160    0.6140   10.3390 h1        1 FLW      0.027950
     47 H24A        5.4780    2.3970   10.5520 h1        1 FLW      0.027950
     48 HO25        7.5490    1.7290   11.3370 ho        1 FLW      0.403000
     49 HO22       -1.1110    1.5750   12.5110 ho        1 FLW      0.403000
@<TRIPOS>BOND
     1    1    2 ar  
     2    1    8 ar  
     3    1   30 1   
     4    2    9 1   
     5    2   10 ar  
     6    3    4 1   
     7    3   26 1   
     8    3   31 1   
     9    3   32 1   
    10    4   29 1   
    11    4   33 1   
    12    4   34 1   
    13    5   26 1   
    14    5   27 1   
    15    5   35 1   
    16    5   36 1   
    17    6   21 1   
    18    6   37 1   
    19    6   38 1   
    20    6   39 1   
    21    7    8 1   
    22    8   12 ar  
    23   10   11 ar  
    24   10   40 1   
    25   11   12 ar  
    26   11   41 1   
    27   12   13 1   
    28   13   14 1   
    29   14   15 2   
    30   14   19 1   
    31   15   16 1   
    32   15   42 1   
    33   16   17 ar  
    34   16   22 ar  
    35   17   18 ar  
    36   17   43 1   
    37   18   24 ar  
    38   19   20 2   
    39   19   21 1   
    40   21   22 1   
    41   22   23 ar  
    42   23   24 ar  
    43   24   25 1   
    44   25   26 1   
    45   25   44 1   
    46   26   45 1   
    47   27   28 1   
    48   27   46 1   
    49   27   47 1   
    50   28   48 1   
    51   29   49 1   
@<TRIPOS>SUBSTRUCTURE
     1 FLW         1 TEMP              0 ****  ****    0 ROOT
