@<TRIPOS>MOLECULE
FLW
   49    51     1     0     0
SMALL
bcc


@<TRIPOS>ATOM
      1 C14        -0.0950   -0.2930   -0.1990 ca        1 FLW     -0.185000
      2 C15         1.2800   -0.0390   -0.3410 ca        1 FLW      0.127900
      3 C20         2.0320    1.0570   12.3350 c3        1 FLW     -0.102400
      4 C21         0.6680    1.4220   11.7780 c3        1 FLW      0.132400
      5 C23         4.4930    1.1090   12.0140 c3        1 FLW     -0.102400
      6 C29         1.7260   -2.8570    6.5990 c3        1 FLW      0.069300
      7 F28        -1.9930   -0.5020    1.2290 f         1 FLW     -0.116900
      8 C13        -0.6730   -0.2610    1.0780 ca        1 FLW      0.147900
      9 F27         1.8390   -0.0750   -1.5750 f         1 FLW     -0.135900
     10 C16         2.0790    0.2500    0.7790 ca        1 FLW     -0.152000
     11 C17         1.5030    0.2890    2.0450 ca        1 FLW     -0.134000
     12 C12         0.1390    0.0390    2.2010 ca        1 FLW      0.071100
     13 O11        -0.5370    0.1160    3.4150 os        1 FLW     -0.211200
     14 C9          0.2440   -0.0130    4.5580 cc        1 FLW     -0.052100
     15 C10         0.4510    1.0600    5.3640 cd        1 FLW      0.002800
     16 C5          1.0960    0.8690    6.6200 ca        1 FLW     -0.427400
     17 C4          1.3360    1.9260    7.5320 ca        1 FLW      0.521200
     18 N1          1.9300    1.7760    8.7090 nb        1 FLW     -0.766000
     19 C8          0.6690   -1.3770    4.9280 c         1 FLW      0.697700
     20 O26         0.5000   -2.3710    4.2030 o         1 FLW     -0.593500
     21 N7          1.3140   -1.5350    6.1810 n         1 FLW     -0.425300
     22 C6          1.5250   -0.4440    7.0280 ca        1 FLW      0.626200
     23 N3          2.1390   -0.6420    8.2380 nb        1 FLW     -0.815000
     24 C2          2.3430    0.4710    9.0330 ca        1 FLW      0.928900
     25 N18         3.0650    0.2600   10.2020 nu        1 FLW     -0.834900
     26 C19         3.1430    1.2230   11.2840 c3        1 FLW      0.221500
     27 C24         5.6590    1.4290   11.0960 c3        1 FLW      0.132400
     28 O25         6.8060    1.5480   11.9250 oh        1 FLW     -0.603800
     29 O22        -0.2440    1.3560   12.8640 oh        1 FLW     -0.603800
     30 H14        -0.7130   -0.5230   -1.0790 ha        1 FLW      0.168000
     31 H20         2.0090    0.0080   12.7270 hc        1 FLW      0.066200
     32 H20A        2.2590    1.7310   13.2030 hc        1 FLW      0.066200
     33 H21         0.6800    2.4600   11.3490 h1        1 FLW      0.027950
     34 H21A        0.3560    0.7010   10.9750 h1        1 FLW      0.027950
     35 H23         4.6260    0.0850   12.4500 hc        1 FLW      0.066200
     36 H23A        4.4920    1.8370   12.8680 hc        1 FLW      0.066200
     37 H29         1.4760   -3.6030    5.7980 h1        1 FLW      0.065033
     38 H29A        2.8330   -2.8700    6.7820 h1        1 FLW      0.065033
     39 H29B        1.1950   -3.1430    7.5460 h1        1 FLW      0.065033
     40 H16         3.1540    0.4430    0.6480 ha        1 FLW      0.154000
     41 H17         2.1220    0.5100    2.9270 ha        1 FLW      0.150000
     42 H10         0.1170    2.0690    5.0750 ha        1 FLW      0.159000
     43 H4          1.0160    2.9560    7.2790 h4        1 FLW      0.033100
     44 HN18        3.2290   -0.6900   10.4600 hn        1 FLW      0.444800
     45 H19         3.0720    2.2670   10.8550 h1        1 FLW      0.092700
     46 H24         5.8160    0.6120   10.3420 h1        1 FLW      0.027950
     47 H24A        5.4800    2.3960   10.5520 h1        1 FLW      0.027950
     48 HO25        7.5500    1.7280   11.3390 ho        1 FLW      0.403000
     49 HO22       -1.1100    1.5870   12.5090 ho        1 FLW      0.403000
@<TRIPOS>BOND
     1    1    2 ar  
     2    1    8 ar  
     3    1   30 1   
     4    2    9 1   
     5    2   10 ar  
     6    3    4 1   
     7    3   26 1   
     8    3   31 1   
     9    3   32 1   
    10    4   29 1   
    11    4   33 1   
    12    4   34 1   
    13    5   26 1   
    14    5   27 1   
    15    5   35 1   
    16    5   36 1   
    17    6   21 1   
    18    6   37 1   
    19    6   38 1   
    20    6   39 1   
    21    7    8 1   
    22    8   12 ar  
    23   10   11 ar  
    24   10   40 1   
    25   11   12 ar  
    26   11   41 1   
    27   12   13 1   
    28   13   14 1   
    29   14   15 2   
    30   14   19 1   
    31   15   16 1   
    32   15   42 1   
    33   16   17 ar  
    34   16   22 ar  
    35   17   18 ar  
    36   17   43 1   
    37   18   24 ar  
    38   19   20 2   
    39   19   21 1   
    40   21   22 1   
    41   22   23 ar  
    42   23   24 ar  
    43   24   25 1   
    44   25   26 1   
    45   25   44 1   
    46   26   45 1   
    47   27   28 1   
    48   27   46 1   
    49   27   47 1   
    50   28   48 1   
    51   29   49 1   
@<TRIPOS>SUBSTRUCTURE
     1 FLW         1 TEMP              0 ****  ****    0 ROOT
