@<TRIPOS>MOLECULE
FLW
   49    47     1     0     0
SMALL
bcc


@<TRIPOS>ATOM
      1 C14         1.3360    1.5900   -7.2680 c1        1 FLW     -0.206000
      2 C15         2.6700    1.8250   -7.6030 c1        1 FLW      0.116000
      3 C20        -1.1700   -2.0990    4.5140 c3        1 FLW     -0.182000
      4 C21        -2.5750   -2.4930    5.0260 c3        1 FLW     -0.018500
      5 C23        -1.0670    0.4370    4.7300 c3        1 FLW     -0.182000
      6 C29         2.8670   -1.2390   -1.2810 c3        1 FLW     -0.085000
      7 F28        -0.3190    1.2190   -5.6120 f         1 FLW     -0.096000
      8 C13         0.9640    1.4780   -5.9340 c2        1 FLW      0.111000
      9 F27         3.0920    2.6270   -8.5890 f         1 FLW     -0.099000
     10 C16         3.6270    1.9460   -6.6020 c1        1 FLW     -0.175000
     11 C17         3.2540    1.8330   -5.2630 c1        1 FLW     -0.075000
     12 C12         1.9250    1.5990   -4.9290 c2        1 FLW     -0.014000
     13 O11         1.5270    1.5330   -3.5310 os        1 FLW     -0.134000
     14 C9          0.6460    0.4000   -3.3360 c2        1 FLW     -0.074000
     15 C10        -0.5180    0.8670   -2.6070 c1        1 FLW     -0.008000
     16 C5         -0.6810    0.3010   -1.2510 c1        1 FLW     -0.275000
     17 C4         -1.6610    0.7250   -0.3680 c2        1 FLW      0.055000
     18 N1         -1.6150    0.3370    0.9320 n1        1 FLW     -0.236000
     19 C8          1.4020   -0.9120   -2.5330 c2        1 FLW      0.343000
     20 O26         0.7110   -1.9190   -2.5430 o         1 FLW     -0.344000
     21 N7          1.5970   -0.7750   -1.7900 n         1 FLW     -0.239000
     22 C6          0.3720   -0.5410   -0.7890 c2        1 FLW      0.214000
     23 N3          0.4100   -0.9210    0.5020 n2        1 FLW     -0.283000
     24 C2         -0.5730   -0.4950    1.3830 c1        1 FLW      0.204000
     25 N18        -0.2300   -0.6860    2.7400 n3        1 FLW     -0.270000
     26 C19        -1.2570   -0.7310    3.7380 c3        1 FLW      0.025000
     27 C24        -2.4460    1.0380    5.0900 c3        1 FLW     -0.018500
     28 O25        -2.3620    1.6990    6.3660 oh        1 FLW     -0.328500
     29 O22        -2.4520   -3.5180    6.0190 oh        1 FLW     -0.328500
     30 H14         0.6520    1.5600   -7.9720 ha        1 FLW      0.166000
     31 H20        -0.8320   -2.8030    3.9060 hc        1 FLW      0.105000
     32 H20A       -0.5640   -2.0040    5.2680 hc        1 FLW      0.105000
     33 H21        -3.0060   -1.7190    5.4120 h1        1 FLW      0.067500
     34 H21A       -3.1160   -2.8270    4.2760 h1        1 FLW      0.067500
     35 H23        -0.6410    0.1150    5.5290 hc        1 FLW      0.105000
     36 H23A       -0.5010    1.1350    4.3140 hc        1 FLW      0.105000
     37 H29         3.2150   -0.5940   -0.6420 h1        1 FLW      0.104000
     38 H29A        3.4950   -1.3380   -2.0160 h1        1 FLW      0.104000
     39 H29B        2.7460   -2.0970   -0.8410 h1        1 FLW      0.104000
     40 H16         4.5810    2.1140   -6.8420 ha        1 FLW      0.158000
     41 H17         3.9240    1.9180   -4.5640 ha        1 FLW      0.186000
     42 H10        -1.3010    1.2160   -3.0960 ha        1 FLW      0.163000
     43 H4         -2.3880    1.3050   -0.6820 h4        1 FLW      0.170000
     44 HN18        0.6400   -0.8300    2.9740 hn        1 FLW      0.235000
     45 H19        -2.1380   -0.6520    3.3040 h1        1 FLW      0.122000
     46 H24        -2.7150    1.6960    4.3900 h1        1 FLW      0.067500
     47 H24A       -3.1180    0.3150    5.1370 h1        1 FLW      0.067500
     48 HO25       -3.1590    2.0520    6.5740 ho        1 FLW      0.202000
     49 HO22       -3.2470   -3.6900    6.3630 ho        1 FLW      0.202000
@<TRIPOS>BOND
     1    1    8 1   
     2    1   30 1   
     3    2    9 1   
     4    2   10 1   
     5    3    4 1   
     6    3   26 1   
     7    3   31 1   
     8    3   32 1   
     9    4   29 1   
    10    4   33 1   
    11    4   34 1   
    12    5   26 1   
    13    5   27 1   
    14    5   35 1   
    15    5   36 1   
    16    6   21 1   
    17    6   37 1   
    18    6   38 1   
    19    6   39 1   
    20    7    8 1   
    21    8   12 1   
    22   10   40 1   
    23   11   12 1   
    24   11   41 1   
    25   12   13 1   
    26   13   14 1   
    27   14   15 1   
    28   14   19 1   
    29   15   42 1   
    30   16   17 1   
    31   16   22 1   
    32   17   18 1   
    33   17   43 1   
    34   19   20 1   
    35   19   21 1   
    36   21   22 1   
    37   22   23 1   
    38   23   24 1   
    39   24   25 1   
    40   25   26 1   
    41   25   44 1   
    42   26   45 1   
    43   27   28 1   
    44   27   46 1   
    45   27   47 1   
    46   28   48 1   
    47   29   49 1   
@<TRIPOS>SUBSTRUCTURE
     1 FLW         1 TEMP              0 ****  ****    0 ROOT
