@<TRIPOS>MOLECULE
FLW
   49    51     1     0     0
SMALL
bcc


@<TRIPOS>ATOM
      1 C14        -6.7070    0.1820    0.3720 ca        1 FLW     -0.185000
      2 C15        -6.4370    1.5100    0.7460 ca        1 FLW      0.127900
      3 C20         6.0000   -1.1650   -0.0310 c3        1 FLW     -0.102400
      4 C21         5.1450   -2.3710    0.3110 c3        1 FLW      0.132400
      5 C23         6.3690    1.2730    0.2530 c3        1 FLW     -0.102400
      6 C29        -0.0480    0.4600   -3.0450 c3        1 FLW      0.069300
      7 F28        -5.8860   -1.9850   -0.1900 f         1 FLW     -0.116900
      8 C13        -5.6420   -0.7060    0.1690 ca        1 FLW      0.147900
      9 F27        -7.4670    2.3690    0.9380 f         1 FLW     -0.135900
     10 C16        -5.1150    1.9540    0.9230 ca        1 FLW     -0.152000
     11 C17        -4.0590    1.0700    0.7280 ca        1 FLW     -0.134000
     12 C12        -4.3110   -0.2520    0.3550 ca        1 FLW      0.071100
     13 O11        -3.3270   -1.2220    0.1980 os        1 FLW     -0.211200
     14 C9         -2.0410   -0.7530   -0.0440 cc        1 FLW     -0.052100
     15 C10        -1.0810   -0.8830    0.9080 cd        1 FLW      0.002800
     16 C5          0.2690   -0.5670    0.5780 ca        1 FLW     -0.427400
     17 C4          1.3370   -0.6910    1.5000 ca        1 FLW      0.521200
     18 N1          2.6030   -0.4080    1.2190 nb        1 FLW     -0.766000
     19 C8         -1.7440   -0.2880   -1.4120 c         1 FLW      0.697700
     20 O26        -2.6070   -0.1520   -2.2950 o         1 FLW     -0.593500
     21 N7         -0.3930    0.0250   -1.7090 n         1 FLW     -0.425300
     22 C6          0.6100   -0.1130   -0.7450 ca        1 FLW      0.626200
     23 N3          1.9060    0.1850   -1.0780 nb        1 FLW     -0.815000
     24 C2          2.8600    0.0510   -0.0860 ca        1 FLW      0.928900
     25 N18         4.1440    0.4660   -0.4160 nh        1 FLW     -0.834900
     26 C19         5.3200    0.1530    0.3750 c3        1 FLW      0.221500
     27 C24         5.8480    2.5930    0.7960 c3        1 FLW      0.132400
     28 O25         6.9650    3.4660    0.8730 oh        1 FLW     -0.603800
     29 O22         5.9250   -3.5200    0.0130 oh        1 FLW     -0.603800
     30 H14        -7.7430   -0.1580    0.2320 ha        1 FLW      0.168000
     31 H20         6.9750   -1.2480    0.5190 hc        1 FLW      0.066200
     32 H20A        6.2370   -1.1700   -1.1260 hc        1 FLW      0.066200
     33 H21         4.8690   -2.3660    1.4000 h1        1 FLW      0.027950
     34 H21A        4.2030   -2.3830   -0.3020 h1        1 FLW      0.027950
     35 H23         7.2740    0.9700    0.8420 hc        1 FLW      0.066200
     36 H23A        6.6910    1.4040   -0.8110 hc        1 FLW      0.066200
     37 H29        -0.9750    0.5110   -3.6770 h1        1 FLW      0.065033
     38 H29A        0.4250    1.4770   -3.0020 h1        1 FLW      0.065033
     39 H29B        0.6750   -0.2620   -3.5090 h1        1 FLW      0.065033
     40 H16        -4.9240    2.9980    1.2120 ha        1 FLW      0.154000
     41 H17        -3.0210    1.4110    0.8580 ha        1 FLW      0.150000
     42 H10        -1.3200   -1.2420    1.9210 ha        1 FLW      0.159000
     43 H4          1.1380   -1.0480    2.5300 h4        1 FLW      0.033100
     44 HN18        4.3160    0.6630   -1.3800 hn        1 FLW      0.444800
     45 H19         5.0220    0.0790    1.4630 h1        1 FLW      0.093700
     46 H24         5.0690    3.0300    0.1170 h1        1 FLW      0.027950
     47 H24A        5.4030    2.4520    1.8180 h1        1 FLW      0.027950
     48 HO25        6.6320    4.3110    1.1950 ho        1 FLW      0.403000
     49 HO22        5.3800   -4.2850    0.2290 ho        1 FLW      0.403000
@<TRIPOS>BOND
     1    1    2 ar  
     2    1    8 ar  
     3    1   30 1   
     4    2    9 1   
     5    2   10 ar  
     6    3    4 1   
     7    3   26 1   
     8    3   31 1   
     9    3   32 1   
    10    4   29 1   
    11    4   33 1   
    12    4   34 1   
    13    5   26 1   
    14    5   27 1   
    15    5   35 1   
    16    5   36 1   
    17    6   21 1   
    18    6   37 1   
    19    6   38 1   
    20    6   39 1   
    21    7    8 1   
    22    8   12 ar  
    23   10   11 ar  
    24   10   40 1   
    25   11   12 ar  
    26   11   41 1   
    27   12   13 1   
    28   13   14 1   
    29   14   15 2   
    30   14   19 1   
    31   15   16 1   
    32   15   42 1   
    33   16   17 ar  
    34   16   22 ar  
    35   17   18 ar  
    36   17   43 1   
    37   18   24 ar  
    38   19   20 2   
    39   19   21 1   
    40   21   22 1   
    41   22   23 ar  
    42   23   24 ar  
    43   24   25 1   
    44   25   26 1   
    45   25   44 1   
    46   26   45 1   
    47   27   28 1   
    48   27   46 1   
    49   27   47 1   
    50   28   48 1   
    51   29   49 1   
@<TRIPOS>SUBSTRUCTURE
     1 FLW         1 TEMP              0 ****  ****    0 ROOT
