@<TRIPOS>MOLECULE
FLW
   50    52     1     0     0
SMALL
bcc


@<TRIPOS>ATOM
      1 C14        -0.6070   -0.8220    0.3060 ca        1 FLW     -0.197000
      2 C15         0.6430   -1.1600   -0.2400 ca        1 FLW      0.172900
      3 C20         1.8430    0.6560   12.4210 c3        1 FLW     -0.146400
      4 C21         0.6230    0.0300   11.7640 c3        1 FLW      0.110400
      5 C23         4.0510    1.7810   12.2220 c3        1 FLW     -0.146400
      6 C29         0.8220   -2.1810    6.7260 c3        1 FLW      0.059300
      7 F28        -1.8480    0.2730    2.0250 f         1 FLW     -0.110900
      8 C13        -0.6590   -0.0620    1.4860 ca        1 FLW      0.190900
      9 F27         0.6960   -1.8970   -1.3710 f         1 FLW     -0.118900
     10 C16         1.8410   -0.7400    0.3740 ca        1 FLW     -0.170000
     11 C17         1.7880    0.0180    1.5360 ca        1 FLW     -0.090000
     12 C12         0.5490    0.3550    2.0910 ca        1 FLW      0.011100
     13 O11         0.4570    1.2420    3.1670 os        1 FLW     -0.209200
     14 C9          0.9720    0.8230    4.3770 cc        1 FLW      0.060900
     15 C10         1.6360    1.7390    5.1310 cd        1 FLW     -0.098200
     16 C5          2.0410    1.3940    6.4590 ca        1 FLW     -0.285400
     17 C4          2.7100    2.2990    7.3090 ca        1 FLW      0.491200
     18 N1          3.0910    1.9950    8.5590 nb        1 FLW     -0.702000
     19 C8          0.6740   -0.5420    4.8750 c         1 FLW      0.682700
     20 O26         0.0760   -1.4020    4.2170 o         1 FLW     -0.544500
     21 N7          1.1120   -0.8660    6.1910 n         1 FLW     -0.412300
     22 C6          1.7640    0.0750    6.9780 ca        1 FLW      0.585200
     23 N3          2.1500   -0.2570    8.2620 nb        1 FLW     -0.711000
     24 C2          2.7850    0.7160    8.9700 ca        1 FLW      0.748900
     25 N18         3.2310    0.3140   10.3410 n4        1 FLW     -0.756700
     26 C19         2.8320    1.2860   11.4310 c3        1 FLW      0.150500
     27 C24         5.1520    2.3800   11.3610 c3        1 FLW      0.110400
     28 O25         5.9060    1.3490   10.7450 oh        1 FLW     -0.627800
     29 O22         0.9580   -1.2370   11.2250 oh        1 FLW     -0.627800
     30 H14        -1.5380   -1.1510   -0.1810 ha        1 FLW      0.180000
     31 H20         1.5060    1.4800   13.1070 hc        1 FLW      0.084950
     32 H20A        2.3650   -0.1150   13.0460 hc        1 FLW      0.084950
     33 H21         0.2710    0.6420   10.8890 h1        1 FLW      0.077450
     34 H21A       -0.2120   -0.0510   12.5090 h1        1 FLW      0.077450
     35 H23         4.4720    0.9430   12.8380 hc        1 FLW      0.084950
     36 H23A        3.6750    2.5690   12.9290 hc        1 FLW      0.084950
     37 H29         1.7810   -2.6980    6.9950 h1        1 FLW      0.076700
     38 H29A        0.2810   -2.7920    5.9530 h1        1 FLW      0.076700
     39 H29B        0.1770   -2.0900    7.6390 h1        1 FLW      0.076700
     40 H16         2.8070   -1.0140   -0.0760 ha        1 FLW      0.165000
     41 H17         2.7150    0.3610    2.0200 ha        1 FLW      0.150000
     42 H10         1.8460    2.7510    4.7470 ha        1 FLW      0.182000
     43 H4          2.9540    3.3260    6.9680 h4        1 FLW      0.066100
     44 HN18        2.8280   -0.6170   10.5560 hn        1 FLW      0.490300
     45 H19         2.3320    2.1760   10.9430 hx        1 FLW      0.120700
     46 H24         4.7290    2.9870   10.5150 h1        1 FLW      0.077450
     47 H24A        5.8080    3.0380   11.9910 h1        1 FLW      0.077450
     48 HO25        6.6400    1.1220   11.3280 ho        1 FLW      0.428500
     49 HO22        0.7740   -1.9070   11.8950 ho        1 FLW      0.428500
     50 H182        4.2630    0.2380   10.3070 hn        1 FLW      0.490300
@<TRIPOS>BOND
     1    1    2 ar  
     2    1    8 ar  
     3    1   30 1   
     4    2    9 1   
     5    2   10 ar  
     6    3    4 1   
     7    3   26 1   
     8    3   31 1   
     9    3   32 1   
    10    4   29 1   
    11    4   33 1   
    12    4   34 1   
    13    5   26 1   
    14    5   27 1   
    15    5   35 1   
    16    5   36 1   
    17    6   21 1   
    18    6   37 1   
    19    6   38 1   
    20    6   39 1   
    21    7    8 1   
    22    8   12 ar  
    23   10   11 ar  
    24   10   40 1   
    25   11   12 ar  
    26   11   41 1   
    27   12   13 1   
    28   13   14 1   
    29   14   15 2   
    30   14   19 1   
    31   15   16 1   
    32   15   42 1   
    33   16   17 ar  
    34   16   22 ar  
    35   17   18 ar  
    36   17   43 1   
    37   18   24 ar  
    38   19   20 2   
    39   19   21 1   
    40   21   22 1   
    41   22   23 ar  
    42   23   24 ar  
    43   24   25 1   
    44   25   26 1   
    45   25   44 1   
    46   25   50 1   
    47   26   45 1   
    48   27   28 1   
    49   27   46 1   
    50   27   47 1   
    51   28   48 1   
    52   29   49 1   
@<TRIPOS>SUBSTRUCTURE
     1 FLW         1 TEMP              0 ****  ****    0 ROOT
