@<TRIPOS>MOLECULE
FLX
   57    59     1     0     0
SMALL
bcc


@<TRIPOS>ATOM
      1 N           0.3180    0.0530    0.1280 n         1 FLX     -0.564900
      2 C17        -0.8650    0.6370   -0.2880 c         1 FLX      0.604600
      3 O5         -0.9300    1.3320   -1.3210 o         1 FLX     -0.585100
      4 C18        -2.0660    0.4060    0.5300 cc        1 FLX      0.169200
      5 O6         -1.9620   -0.3510    1.7090 os        1 FLX     -0.368800
      6 C19        -3.3740    0.8200    0.3470 cd        1 FLX     -0.162300
      7 C20        -4.1320    0.3010    1.4630 cd        1 FLX     -0.276300
      8 C21        -3.2410   -0.3970    2.2560 cc        1 FLX      0.272600
      9 CA          1.5530    0.2230   -0.5850 c3        1 FLX      0.039700
     10 CB          2.7130    0.7390    0.2820 c3        1 FLX     -0.094400
     11 CG          2.5580    2.2030    0.6640 c3        1 FLX     -0.065700
     12 CD1         3.4770    2.5280    1.8260 c3        1 FLX     -0.094600
     13 CD2         2.8590    3.1150   -0.5080 c3        1 FLX     -0.094600
     14 C           2.0380   -1.0910   -1.2540 c         1 FLX      0.635100
     15 O           2.3000   -1.1120   -2.4670 o         1 FLX     -0.582100
     16 N1          2.1040   -2.2310   -0.4580 n         1 FLX     -0.534900
     17 C1          2.7480   -3.4400   -0.9130 c3        1 FLX     -0.206500
     18 C2          4.2340   -3.5900   -0.5530 c3        1 FLX     -0.014200
     19 C3          5.1350   -3.5170   -1.7110 cc        1 FLX     -0.170400
     20 C6          6.3240   -4.3260   -1.8900 ca        1 FLX     -0.080800
     21 C5          6.9290   -3.8930   -3.1300 ca        1 FLX     -0.050200
     22 C7          6.9250   -5.3530   -1.1580 ca        1 FLX     -0.081000
     23 C4          5.0560   -2.6580   -2.8090 cd        1 FLX     -0.090100
     24 N2          6.1390   -2.8690   -3.6610 na        1 FLX     -0.188400
     25 C10         8.1130   -4.4800   -3.6030 ca        1 FLX     -0.144000
     26 C8          8.0930   -5.9240   -1.6390 ca        1 FLX     -0.154000
     27 C9          8.6780   -5.4910   -2.8430 ca        1 FLX     -0.114000
     28 P1          1.9080   -4.7570   -0.3140 p5        1 FLX      1.555300
     29 O1          1.5130   -4.4100    1.2080 oh        1 FLX     -0.785900
     30 O2          0.4450   -4.6960   -0.9480 oh        1 FLX     -0.785900
     31 O3          2.5300   -6.0700   -0.3160 o         1 FLX     -0.817300
     32 HN         -0.1760   -4.0870   -0.5570 ho        1 FLX      0.482000
     33 H19        -3.7590    1.4190   -0.4760 ha        1 FLX      0.183000
     34 H20        -5.1970    0.4430    1.6270 ha        1 FLX      0.171000
     35 H21        -3.3110   -0.9580    3.1840 h4        1 FLX      0.059100
     36 HA          1.3750    0.9520   -1.4380 h1        1 FLX      0.130700
     37 HB1         2.8000    0.1190    1.2140 hc        1 FLX      0.052200
     38 HB2         3.6640    0.6070   -0.3010 hc        1 FLX      0.052200
     39 HG          1.4960    2.3850    0.9930 hc        1 FLX      0.055700
     40 HD11        3.2170    1.9090    2.7180 hc        1 FLX      0.038700
     41 HD12        3.3800    3.6060    2.1020 hc        1 FLX      0.038700
     42 HD13        4.5410    2.3270    1.5520 hc        1 FLX      0.038700
     43 HD21        2.7510    4.1830   -0.1980 hc        1 FLX      0.038700
     44 HD22        2.1540    2.9220   -1.3520 hc        1 FLX      0.038700
     45 HD23        3.9020    2.9570   -0.8720 hc        1 FLX      0.038700
     46 HN1         2.1910   -2.0860    0.5260 hn        1 FLX      0.306500
     47 H1          2.6850   -3.4300   -2.0500 h1        1 FLX      0.151700
     48 H21A        4.3830   -4.5910   -0.0520 hc        1 FLX      0.065200
     49 H22         4.5530   -2.8010    0.1880 hc        1 FLX      0.065200
     50 H7          6.4660   -5.7050   -0.2230 ha        1 FLX      0.137000
     51 H4          4.2940   -1.9060   -3.0460 h4        1 FLX      0.192000
     52 HN2         6.2780   -2.4340   -4.5330 hn        1 FLX      0.300700
     53 H10         8.5720   -4.1500   -4.5440 ha        1 FLX      0.131000
     54 H8          8.5750   -6.7360   -1.0750 ha        1 FLX      0.130000
     55 H9          9.6060   -5.9730   -3.1880 ha        1 FLX      0.129000
     56 H2          0.3360   -0.4430    0.9880 hn        1 FLX      0.323500
     57 H12         1.6030   -5.1230    1.8350 ho        1 FLX      0.482000
@<TRIPOS>BOND
     1    1    2 1   
     2    1    9 1   
     3    1   56 1   
     4    2    3 2   
     5    2    4 1   
     6    4    5 1   
     7    4    6 2   
     8    5    8 1   
     9    6    7 1   
    10    6   33 1   
    11    7    8 2   
    12    7   34 1   
    13    8   35 1   
    14    9   10 1   
    15    9   14 1   
    16    9   36 1   
    17   10   11 1   
    18   10   37 1   
    19   10   38 1   
    20   11   12 1   
    21   11   13 1   
    22   11   39 1   
    23   12   40 1   
    24   12   41 1   
    25   12   42 1   
    26   13   43 1   
    27   13   44 1   
    28   13   45 1   
    29   14   15 2   
    30   14   16 1   
    31   16   17 1   
    32   16   46 1   
    33   17   18 1   
    34   17   28 1   
    35   17   47 1   
    36   18   19 1   
    37   18   48 1   
    38   18   49 1   
    39   19   20 1   
    40   19   23 2   
    41   20   21 ar  
    42   20   22 ar  
    43   21   24 1   
    44   21   25 ar  
    45   22   26 ar  
    46   22   50 1   
    47   23   24 1   
    48   23   51 1   
    49   24   52 1   
    50   25   27 ar  
    51   25   53 1   
    52   26   27 ar  
    53   26   54 1   
    54   27   55 1   
    55   28   29 1   
    56   28   30 1   
    57   28   31 2   
    58   29   57 1   
    59   30   32 1   
@<TRIPOS>SUBSTRUCTURE
     1 FLX         1 TEMP              0 ****  ****    0 ROOT
