@<TRIPOS>MOLECULE
FLX
   55    57     1     0     0
SMALL
bcc


@<TRIPOS>ATOM
      1 N          -0.2550    0.0380    3.2190 n         1 FLX     -0.507900
      2 C17        -0.5910    0.7420    4.3370 c         1 FLX      0.578600
      3 O5          0.0230    1.7530    4.7510 o         1 FLX     -0.632100
      4 C18        -1.7310    0.2450    5.1540 cc        1 FLX      0.220200
      5 O6         -2.4380   -0.8910    4.7410 os        1 FLX     -0.343800
      6 C19        -2.2730    0.7330    6.3310 cd        1 FLX     -0.224300
      7 C20        -3.3730   -0.1380    6.6740 cd        1 FLX     -0.288300
      8 C21        -3.4350   -1.1020    5.6860 cc        1 FLX      0.237600
      9 CA          0.7240    0.4950    2.2480 c3        1 FLX      0.006700
     10 CB          2.0060   -0.3500    2.2300 c3        1 FLX     -0.122400
     11 CG          2.8560   -0.1940    3.4800 c3        1 FLX     -0.050700
     12 CD1         4.0350   -1.1450    3.3940 c3        1 FLX     -0.094100
     13 CD2         3.3450    1.2300    3.6470 c3        1 FLX     -0.094100
     14 C           0.1410    0.4110    0.7970 c         1 FLX      0.628100
     15 O          -0.7770   -0.4170    0.5640 o         1 FLX     -0.698100
     16 N1          0.6680    1.2850   -0.1040 n         1 FLX     -0.435900
     17 C1          0.8620    0.9580   -1.4900 c3        1 FLX     -0.100500
     18 C2          0.1730    1.8660   -2.4840 c3        1 FLX      0.006800
     19 C3         -0.8470    1.1790   -3.2970 cc        1 FLX     -0.016400
     20 C6         -0.5730    0.3430   -4.4680 ca        1 FLX     -0.082800
     21 C5         -1.8530   -0.0950   -4.9700 ca        1 FLX     -0.081200
     22 C7          0.6050   -0.0580   -5.0890 ca        1 FLX     -0.055000
     23 C4         -2.2200    1.2060   -3.1460 cd        1 FLX     -0.214100
     24 N2         -2.8860    0.5100   -4.2040 na        1 FLX     -0.184400
     25 C10        -1.9320   -0.9200   -6.0940 ca        1 FLX     -0.184000
     26 C8          0.5020   -0.8830   -6.2120 ca        1 FLX     -0.185000
     27 C9         -0.7380   -1.3030   -6.7030 ca        1 FLX     -0.139000
     28 P1          2.7210    1.2230   -1.7550 p5        1 FLX      1.196700
     29 O1          3.2880    0.3050   -0.7000 o         1 FLX     -0.929167
     30 O2          2.9050    0.8350   -3.1990 o         1 FLX     -0.929167
     31 O3          2.8610    2.6820   -1.4140 o         1 FLX     -0.929167
     32 HN         -0.8700   -0.6790    2.8900 hn        1 FLX      0.334500
     33 H19        -1.9330    1.6030    6.8850 ha        1 FLX      0.170000
     34 H20        -4.0160   -0.0360    7.5410 ha        1 FLX      0.146000
     35 H21        -4.0680   -1.9590    5.4820 h4        1 FLX      0.044100
     36 HA          0.9910    1.5650    2.5000 h1        1 FLX      0.086700
     37 HB1         2.6170   -0.0560    1.3140 hc        1 FLX      0.109200
     38 HB2         1.7360   -1.4310    2.1010 hc        1 FLX      0.109200
     39 HG          2.2440   -0.4670    4.3860 hc        1 FLX      0.014700
     40 HD11        4.6910   -1.0390    4.2920 hc        1 FLX      0.031367
     41 HD12        3.6790   -2.2010    3.3370 hc        1 FLX      0.031367
     42 HD13        4.6350   -0.9240    2.4780 hc        1 FLX      0.031367
     43 HD21        3.7670    1.6100    2.6830 hc        1 FLX      0.031367
     44 HD22        2.5020    1.8940    3.9600 hc        1 FLX      0.031367
     45 HD23        4.1390    1.2800    4.4310 hc        1 FLX      0.031367
     46 HN1         1.4220    1.8690    0.2290 hn        1 FLX      0.323500
     47 H1          0.6280   -0.1140   -1.6850 h1        1 FLX      0.062700
     48 H21A       -0.3080    2.7520   -1.9850 hc        1 FLX      0.056700
     49 H22         0.9770    2.2610   -3.1740 hc        1 FLX      0.056700
     50 H7          1.5930    0.2600   -4.6660 ha        1 FLX      0.259000
     51 H4         -2.8150    1.7040   -2.3800 h4        1 FLX      0.150000
     52 HN2        -3.6400   -0.0830   -3.9390 hn        1 FLX      0.229700
     53 H10        -2.8990   -1.2600   -6.4840 ha        1 FLX      0.099000
     54 H8          1.4210   -1.2180   -6.7120 ha        1 FLX      0.113000
     55 H9         -0.7760   -1.9570   -7.5850 ha        1 FLX      0.090000
@<TRIPOS>BOND
     1    1    2 1   
     2    1    9 1   
     3    1   32 1   
     4    2    3 2   
     5    2    4 1   
     6    4    5 1   
     7    4    6 2   
     8    5    8 1   
     9    6    7 1   
    10    6   33 1   
    11    7    8 2   
    12    7   34 1   
    13    8   35 1   
    14    9   10 1   
    15    9   14 1   
    16    9   36 1   
    17   10   11 1   
    18   10   37 1   
    19   10   38 1   
    20   11   12 1   
    21   11   13 1   
    22   11   39 1   
    23   12   40 1   
    24   12   41 1   
    25   12   42 1   
    26   13   43 1   
    27   13   44 1   
    28   13   45 1   
    29   14   15 2   
    30   14   16 1   
    31   16   17 1   
    32   16   46 1   
    33   17   18 1   
    34   17   28 1   
    35   17   47 1   
    36   18   19 1   
    37   18   48 1   
    38   18   49 1   
    39   19   20 1   
    40   19   23 2   
    41   20   21 ar  
    42   20   22 ar  
    43   21   24 1   
    44   21   25 ar  
    45   22   26 ar  
    46   22   50 1   
    47   23   24 1   
    48   23   51 1   
    49   24   52 1   
    50   25   27 ar  
    51   25   53 1   
    52   26   27 ar  
    53   26   54 1   
    54   27   55 1   
    55   28   29 1   
    56   28   30 1   
    57   28   31 1   
@<TRIPOS>SUBSTRUCTURE
     1 FLX         1 TEMP              0 ****  ****    0 ROOT
