@<TRIPOS>MOLECULE
FLX
   57    59     1     0     0
SMALL
bcc


@<TRIPOS>ATOM
      1 N           0.3350    0.0930    0.1010 ns        1 FLX     -0.564900
      2 C17        -0.8350    0.6930   -0.3320 c         1 FLX      0.604600
      3 O5         -0.8770    1.3870   -1.3670 o         1 FLX     -0.585100
      4 C18        -2.0490    0.4830    0.4730 cc        1 FLX      0.169200
      5 O6         -1.9700   -0.2730    1.6550 os        1 FLX     -0.368800
      6 C19        -3.3480    0.9160    0.2740 cd        1 FLX     -0.162300
      7 C20        -4.1270    0.4120    1.3810 cd        1 FLX     -0.276300
      8 C21        -3.2560   -0.2970    2.1870 cc        1 FLX      0.272600
      9 CA          1.5800    0.2420   -0.5980 c3        1 FLX      0.039700
     10 CB          2.7370    0.7440    0.2810 c3        1 FLX     -0.094400
     11 CG          2.6000    2.2120    0.6550 c3        1 FLX     -0.065700
     12 CD1         3.5090    2.5280    1.8270 c3        1 FLX     -0.094600
     13 CD2         2.9280    3.1150   -0.5160 c3        1 FLX     -0.094600
     14 C           2.0530   -1.0810   -1.2570 c         1 FLX      0.635100
     15 O           2.3290   -1.1110   -2.4670 o         1 FLX     -0.582100
     16 N1          2.0940   -2.2190   -0.4550 ns        1 FLX     -0.534900
     17 C1          2.7250   -3.4390   -0.8990 c3        1 FLX     -0.206500
     18 C2          4.2050   -3.6090   -0.5230 c3        1 FLX     -0.014200
     19 C3          5.1190   -3.5550   -1.6710 cc        1 FLX     -0.170400
     20 C6          6.2970   -4.3830   -1.8350 ca        1 FLX     -0.080800
     21 C5          6.9210   -3.9640   -3.0710 ca        1 FLX     -0.050200
     22 C7          6.8740   -5.4160   -1.0940 ca        1 FLX     -0.081000
     23 C4          5.0650   -2.6980   -2.7740 cd        1 FLX     -0.090100
     24 N2          6.1530   -2.9300   -3.6140 na        1 FLX     -0.188400
     25 C10         8.1010   -4.5710   -3.5300 ca        1 FLX     -0.144000
     26 C8          8.0380   -6.0070   -1.5610 ca        1 FLX     -0.154000
     27 C9          8.6420   -5.5880   -2.7600 ca        1 FLX     -0.114000
     28 P1          1.8600   -4.7410   -0.3030 p5        1 FLX      1.555300
     29 O1          1.4540   -4.3820    1.2130 oh        1 FLX     -0.785900
     30 O2          0.4050   -4.6620   -0.9530 oh        1 FLX     -0.785900
     31 O3          2.4640   -6.0630   -0.2930 o         1 FLX     -0.817300
     32 HN         -0.2120   -4.0430   -0.5710 ho        1 FLX      0.482000
     33 H19        -3.7140    1.5190   -0.5560 ha        1 FLX      0.183000
     34 H20        -5.1910    0.5700    1.5320 ha        1 FLX      0.171000
     35 H21        -3.3450   -0.8550    3.1160 h4        1 FLX      0.059100
     36 HA          1.4230    0.9710   -1.4570 h1        1 FLX      0.130700
     37 HB1         3.6930    0.5970   -0.2900 hc        1 FLX      0.052200
     38 HB2         2.8040    0.1270    1.2160 hc        1 FLX      0.052200
     39 HG          1.5360    2.4110    0.9700 hc        1 FLX      0.055700
     40 HD11        3.2290    1.9170    2.7180 hc        1 FLX      0.038700
     41 HD12        3.4250    3.6080    2.0980 hc        1 FLX      0.038700
     42 HD13        4.5730    2.3100    1.5670 hc        1 FLX      0.038700
     43 HD21        3.9730    2.9400   -0.8680 hc        1 FLX      0.038700
     44 HD22        2.2300    2.9300   -1.3680 hc        1 FLX      0.038700
     45 HD23        2.8330    4.1850   -0.2110 hc        1 FLX      0.038700
     46 HN1         2.1730   -2.0710    0.5290 hn        1 FLX      0.306500
     47 H1          2.6740   -3.4330   -2.0360 h1        1 FLX      0.151700
     48 H21A        4.5280   -2.8200    0.2170 hc        1 FLX      0.065200
     49 H22         4.3340   -4.6090   -0.0160 hc        1 FLX      0.065200
     50 H7          6.4010   -5.7570   -0.1620 ha        1 FLX      0.137000
     51 H4          4.3170   -1.9360   -3.0220 h4        1 FLX      0.192000
     52 HN2         6.3070   -2.5010   -4.4870 hn        1 FLX      0.300700
     53 H10         8.5740   -4.2530   -4.4680 ha        1 FLX      0.131000
     54 H8          8.5020   -6.8240   -0.9890 ha        1 FLX      0.130000
     55 H9          9.5650   -6.0860   -3.0940 ha        1 FLX      0.129000
     56 H2          0.3350   -0.4000    0.9620 hn        1 FLX      0.323500
     57 H12         1.5280   -5.0930    1.8440 ho        1 FLX      0.482000
@<TRIPOS>BOND
     1    1    2 1   
     2    1    9 1   
     3    1   56 1   
     4    2    3 2   
     5    2    4 1   
     6    4    5 1   
     7    4    6 2   
     8    5    8 1   
     9    6    7 1   
    10    6   33 1   
    11    7    8 2   
    12    7   34 1   
    13    8   35 1   
    14    9   10 1   
    15    9   14 1   
    16    9   36 1   
    17   10   11 1   
    18   10   37 1   
    19   10   38 1   
    20   11   12 1   
    21   11   13 1   
    22   11   39 1   
    23   12   40 1   
    24   12   41 1   
    25   12   42 1   
    26   13   43 1   
    27   13   44 1   
    28   13   45 1   
    29   14   15 2   
    30   14   16 1   
    31   16   17 1   
    32   16   46 1   
    33   17   18 1   
    34   17   28 1   
    35   17   47 1   
    36   18   19 1   
    37   18   48 1   
    38   18   49 1   
    39   19   20 1   
    40   19   23 2   
    41   20   21 ar  
    42   20   22 ar  
    43   21   24 1   
    44   21   25 ar  
    45   22   26 ar  
    46   22   50 1   
    47   23   24 1   
    48   23   51 1   
    49   24   52 1   
    50   25   27 ar  
    51   25   53 1   
    52   26   27 ar  
    53   26   54 1   
    54   27   55 1   
    55   28   29 1   
    56   28   30 1   
    57   28   31 2   
    58   29   57 1   
    59   30   32 1   
@<TRIPOS>SUBSTRUCTURE
     1 FLX         1 TEMP              0 ****  ****    0 ROOT
