@<TRIPOS>MOLECULE
FLX
   55    48     1     0     0
SMALL
bcc


@<TRIPOS>ATOM
      1 N          -1.9200    1.2200    2.3040 n         1 FLX     -0.316000
      2 C17        -2.0000    0.1350    3.2390 c2        1 FLX      0.361000
      3 O5         -1.1370   -0.7480    3.2310 o         1 FLX     -0.392000
      4 C18        -3.3060   -0.0480    4.1130 c2        1 FLX     -0.066000
      5 O6         -4.1250    0.9610    4.5390 os        1 FLX     -0.082000
      6 C19        -3.7040   -1.2260    4.7460 c1        1 FLX     -0.158000
      7 C20        -4.7410   -0.9380    5.5390 c1        1 FLX     -0.224000
      8 C21        -5.0130    0.4370    5.4160 c1        1 FLX     -0.092000
      9 CA         -0.7500    1.4570    1.6300 c3        1 FLX     -0.021000
     10 CB          0.3620    1.8480    2.6420 c3        1 FLX     -0.170000
     11 CG          0.5100    3.3800    2.6700 c3        1 FLX     -0.103000
     12 CD1         1.0830    3.8120    3.9970 c3        1 FLX     -0.221500
     13 CD2         1.4560    3.8240    1.5070 c3        1 FLX     -0.221500
     14 C          -0.3380    0.1980    0.8740 c2        1 FLX      0.267000
     15 O          -0.7240   -0.8900    1.2490 o         1 FLX     -0.473000
     16 N1          0.5070    0.3000   -0.3060 n         1 FLX     -0.264000
     17 C1          0.7460   -0.8370   -1.0990 c3        1 FLX     -0.579000
     18 C2          1.2960   -0.3850   -2.4560 c3        1 FLX     -0.097000
     19 C3          0.7970   -1.3320   -3.5470 c2        1 FLX     -0.025000
     20 C6          1.4310   -1.9020   -4.6950 c1        1 FLX     -0.069000
     21 C5          0.5020   -2.6600   -5.3520 c1        1 FLX     -0.037000
     22 C7          2.7210   -1.7130   -5.2640 c1        1 FLX     -0.053000
     23 C4         -0.5340   -1.7670   -3.5320 c1        1 FLX     -0.180000
     24 N2         -0.7310   -2.5800   -4.6300 n1        1 FLX     -0.208000
     25 C10         0.8210   -3.2330   -6.5550 c1        1 FLX     -0.183000
     26 C8          3.0270   -2.2700   -6.4310 c1        1 FLX     -0.162000
     27 C9          2.0850   -3.0420   -7.1020 c1        1 FLX     -0.162000
     28 P1          1.9530   -1.9010   -0.2940 p5        1 FLX      1.602500
     29 O1          2.8900   -2.4870   -1.3550 o         1 FLX     -0.923833
     30 O2          1.2650   -2.9780    0.4080 o         1 FLX     -0.923833
     31 O3          2.7500   -1.1090    0.6810 o         1 FLX     -0.923833
     32 HN         -2.6430    1.8230    2.2180 hn        1 FLX      0.254000
     33 H19        -3.3080   -2.0780    4.6340 DU        1 FLX      0.166800
     34 H20        -5.2550   -1.6150    6.1410 DU        1 FLX      0.166800
     35 H21        -5.6480    0.8810    5.8360 DU        1 FLX      0.166800
     36 HA         -0.8840    2.2160    0.9740 h1        1 FLX      0.121000
     37 HB1         1.1960    1.4530    2.3690 hc        1 FLX      0.113500
     38 HB2         0.1090    1.5060    3.5830 hc        1 FLX      0.113500
     39 HG         -0.3810    3.7990    2.5470 hc        1 FLX      0.068000
     40 HD11        0.4540    3.5260    4.7410 hc        1 FLX      0.078167
     41 HD12        1.1750    4.7490    4.0070 hc        1 FLX      0.078167
     42 HD13        1.9980    3.3770    4.1370 hc        1 FLX      0.078167
     43 HD21        1.7340    4.6740    1.6460 hc        1 FLX      0.078167
     44 HD22        1.0090    3.7780    0.7310 hc        1 FLX      0.078167
     45 HD23        2.2670    3.2020    1.4680 hc        1 FLX      0.078167
     46 HN1         0.9620    1.1560   -0.5200 hn        1 FLX      0.265000
     47 H1         -0.1260   -1.3540   -1.2340 h1        1 FLX      0.109000
     48 H21A        2.2450   -0.3990   -2.4360 hc        1 FLX      0.098000
     49 H22         0.9870    0.5360   -2.6410 hc        1 FLX      0.098000
     50 H7          3.3630   -1.1830   -4.8170 ha        1 FLX      0.255000
     51 H4         -1.2470   -1.4880   -2.8600 DU        1 FLX      0.166800
     52 HN2        -1.4820   -2.9820   -4.8470 DU        1 FLX      0.166800
     53 H10         0.1730   -3.6760   -7.0380 ha        1 FLX      0.099000
     54 H8          3.8440   -2.0630   -6.8470 ha        1 FLX      0.101500
     55 H9          2.2770   -3.3670   -7.9530 ha        1 FLX      0.101500
@<TRIPOS>BOND
     1    1    2 1   
     2    1    9 1   
     3    1   32 1   
     4    2    3 1   
     5    2    4 1   
     6    4    5 1   
     7    4    6 1   
     8    5    8 1   
     9    6    7 1   
    10    7    8 1   
    11    9   10 1   
    12    9   14 1   
    13    9   36 1   
    14   10   11 1   
    15   10   37 1   
    16   10   38 1   
    17   11   12 1   
    18   11   13 1   
    19   11   39 1   
    20   12   40 1   
    21   12   41 1   
    22   12   42 1   
    23   13   43 1   
    24   13   44 1   
    25   13   45 1   
    26   14   15 1   
    27   14   16 1   
    28   16   17 1   
    29   16   46 1   
    30   17   18 1   
    31   17   28 1   
    32   17   47 1   
    33   18   19 1   
    34   18   48 1   
    35   18   49 1   
    36   19   20 1   
    37   19   23 1   
    38   20   22 1   
    39   21   25 1   
    40   22   50 1   
    41   23   24 1   
    42   25   53 1   
    43   26   27 1   
    44   26   54 1   
    45   27   55 1   
    46   28   29 1   
    47   28   30 1   
    48   28   31 1   
@<TRIPOS>SUBSTRUCTURE
     1 FLX         1 TEMP              0 ****  ****    0 ROOT
