@<TRIPOS>MOLECULE
FLY
   41    43     1     0     0
SMALL
bcc


@<TRIPOS>ATOM
      1 C2          0.0380   -0.3380    0.0200 ca        1 FLY      0.520200
      2 C3          0.1640   -0.0580    2.4310 ca        1 FLY      0.625200
      3 N1          1.3550   -0.2670   -0.1100 nb        1 FLY     -0.758000
      4 C4         -0.6480   -0.2500    1.2570 ca        1 FLY     -0.427400
      5 C5         -2.0660   -0.3260    1.3650 cc        1 FLY      0.005800
      6 C6         -2.6430   -0.2140    2.5900 cd        1 FLY     -0.056100
      7 C7         -1.8550   -0.0230    3.8230 c         1 FLY      0.698700
      8 C9          2.0870   -0.1010    1.0810 ca        1 FLY      0.925900
      9 C11         4.2080    0.0630   -0.2160 c3        1 FLY      0.216500
     10 C13         4.1680    1.5000   -0.7400 c3        1 FLY     -0.114600
     11 C14         5.6710   -0.3590   -0.0480 c3        1 FLY     -0.114600
     12 C17        -4.6830   -1.2140    3.2270 ca        1 FLY      0.073100
     13 C18        -4.1510   -2.5040    3.2590 ca        1 FLY     -0.135000
     14 C19        -4.9090   -3.5610    3.7520 ca        1 FLY     -0.151000
     15 C20        -6.2160   -3.3240    4.2140 ca        1 FLY      0.125900
     16 C21        -6.7660   -2.0310    4.1880 ca        1 FLY     -0.184000
     17 C22        -5.9970   -0.9650    3.6970 ca        1 FLY      0.145900
     18 F24        -6.9580   -4.3520    4.6910 f         1 FLY     -0.136900
     19 F23        -6.5130    0.2820    3.6650 f         1 FLY     -0.117900
     20 O16        -4.0240   -0.1070    2.7020 os        1 FLY     -0.211200
     21 O15        -2.3600    0.0720    4.9540 o         1 FLY     -0.596500
     22 N8         -0.4460    0.0440    3.6850 n         1 FLY     -0.425300
     23 C25         0.3680    0.2550    4.8620 c3        1 FLY      0.070300
     24 N10         1.5290    0.0290    2.3390 nb        1 FLY     -0.814000
     25 N12         3.4780   -0.1310    1.0260 nu        1 FLY     -0.825900
     26 H2         -0.5350   -0.4700   -0.9190 h4        1 FLY      0.032100
     27 H5         -2.6720   -0.4570    0.4540 ha        1 FLY      0.158000
     28 H11         3.7420   -0.6110   -0.9980 h1        1 FLY      0.085700
     29 H13         3.1170    1.8310   -0.9170 hc        1 FLY      0.046700
     30 H13A        4.6500    2.2040   -0.0200 hc        1 FLY      0.046700
     31 H13B        4.7220    1.5480   -1.7080 hc        1 FLY      0.046700
     32 H14         6.1990    0.2970    0.6840 hc        1 FLY      0.046700
     33 H14A        5.7470   -1.4170    0.2970 hc        1 FLY      0.046700
     34 H14B        6.1800   -0.2690   -1.0370 hc        1 FLY      0.046700
     35 H18        -3.1250   -2.6810    2.9010 ha        1 FLY      0.151000
     36 H19        -4.4950   -4.5790    3.7840 ha        1 FLY      0.154000
     37 H21        -7.7870   -1.8510    4.5540 ha        1 FLY      0.167000
     38 H25        -0.2890    0.3090    5.7710 h1        1 FLY      0.064367
     39 H25A        1.0920   -0.5950    4.9800 h1        1 FLY      0.064367
     40 H25B        0.9420    1.2150    4.7640 h1        1 FLY      0.064367
     41 HN12        3.9590    0.1480    1.8550 hn        1 FLY      0.438800
@<TRIPOS>BOND
     1    1    3 ar  
     2    1    4 ar  
     3    1   26 1   
     4    2    4 ar  
     5    2   22 1   
     6    2   24 ar  
     7    3    8 ar  
     8    4    5 1   
     9    5    6 2   
    10    5   27 1   
    11    6    7 1   
    12    6   20 1   
    13    7   21 2   
    14    7   22 1   
    15    8   24 ar  
    16    8   25 1   
    17    9   10 1   
    18    9   11 1   
    19    9   25 1   
    20    9   28 1   
    21   10   29 1   
    22   10   30 1   
    23   10   31 1   
    24   11   32 1   
    25   11   33 1   
    26   11   34 1   
    27   12   13 ar  
    28   12   17 ar  
    29   12   20 1   
    30   13   14 ar  
    31   13   35 1   
    32   14   15 ar  
    33   14   36 1   
    34   15   16 ar  
    35   15   18 1   
    36   16   17 ar  
    37   16   37 1   
    38   17   19 1   
    39   22   23 1   
    40   23   38 1   
    41   23   39 1   
    42   23   40 1   
    43   25   41 1   
@<TRIPOS>SUBSTRUCTURE
     1 FLY         1 TEMP              0 ****  ****    0 ROOT
