@<TRIPOS>MOLECULE
FLY
   41    43     1     0     0
SMALL
bcc


@<TRIPOS>ATOM
      1 C2          0.0370   -0.3350    0.0200 ca        1 FLY      0.520200
      2 C3          0.1640   -0.0590    2.4310 ca        1 FLY      0.625200
      3 N1          1.3550   -0.2650   -0.1100 nb        1 FLY     -0.758000
      4 C4         -0.6480   -0.2480    1.2580 ca        1 FLY     -0.427400
      5 C5         -2.0660   -0.3230    1.3660 cc        1 FLY      0.005800
      6 C6         -2.6430   -0.2120    2.5910 cd        1 FLY     -0.056100
      7 C7         -1.8540   -0.0240    3.8240 c         1 FLY      0.698700
      8 C9          2.0870   -0.1020    1.0800 ca        1 FLY      0.925900
      9 C11         4.2080    0.0620   -0.2170 c3        1 FLY      0.216500
     10 C13         4.1690    1.5000   -0.7390 c3        1 FLY     -0.114600
     11 C14         5.6700   -0.3610   -0.0500 c3        1 FLY     -0.114600
     12 C17        -4.6830   -1.2110    3.2280 ca        1 FLY      0.073100
     13 C18        -4.1530   -2.5020    3.2560 ca        1 FLY     -0.135000
     14 C19        -4.9120   -3.5590    3.7470 ca        1 FLY     -0.151000
     15 C20        -6.2180   -3.3210    4.2120 ca        1 FLY      0.125900
     16 C21        -6.7660   -2.0270    4.1890 ca        1 FLY     -0.184000
     17 C22        -5.9970   -0.9620    3.7000 ca        1 FLY      0.145900
     18 F24        -6.9610   -4.3490    4.6880 f         1 FLY     -0.136900
     19 F23        -6.5110    0.2870    3.6710 f         1 FLY     -0.117900
     20 O16        -4.0240   -0.1040    2.7040 os        1 FLY     -0.211200
     21 O15        -2.3580    0.0700    4.9550 o         1 FLY     -0.596500
     22 N8         -0.4440    0.0420    3.6860 n         1 FLY     -0.425300
     23 C25         0.3700    0.2490    4.8620 c3        1 FLY      0.070300
     24 N10         1.5300    0.0260    2.3390 nb        1 FLY     -0.814000
     25 N12         3.4780   -0.1330    1.0250 nh        1 FLY     -0.825900
     26 H2         -0.5360   -0.4660   -0.9190 h4        1 FLY      0.032100
     27 H5         -2.6730   -0.4520    0.4550 ha        1 FLY      0.158000
     28 H11         3.7410   -0.6100   -0.9990 h1        1 FLY      0.085700
     29 H13         4.6510    2.2020   -0.0180 hc        1 FLY      0.046700
     30 H13A        4.7220    1.5490   -1.7070 hc        1 FLY      0.046700
     31 H13B        3.1180    1.8310   -0.9150 hc        1 FLY      0.046700
     32 H14         6.1790   -0.2700   -1.0390 hc        1 FLY      0.046700
     33 H14A        5.7460   -1.4200    0.2930 hc        1 FLY      0.046700
     34 H14B        6.1990    0.2940    0.6830 hc        1 FLY      0.046700
     35 H18        -3.1280   -2.6790    2.8970 ha        1 FLY      0.151000
     36 H19        -4.5000   -4.5770    3.7770 ha        1 FLY      0.154000
     37 H21        -7.7860   -1.8470    4.5580 ha        1 FLY      0.167000
     38 H25         1.0930   -0.6010    4.9800 h1        1 FLY      0.064367
     39 H25A       -0.2870    0.3030    5.7720 h1        1 FLY      0.064367
     40 H25B        0.9440    1.2090    4.7660 h1        1 FLY      0.064367
     41 HN12        3.9590    0.1440    1.8540 hn        1 FLY      0.438800
@<TRIPOS>BOND
     1    1    3 ar  
     2    1    4 ar  
     3    1   26 1   
     4    2    4 ar  
     5    2   22 1   
     6    2   24 ar  
     7    3    8 ar  
     8    4    5 1   
     9    5    6 2   
    10    5   27 1   
    11    6    7 1   
    12    6   20 1   
    13    7   21 2   
    14    7   22 1   
    15    8   24 ar  
    16    8   25 1   
    17    9   10 1   
    18    9   11 1   
    19    9   25 1   
    20    9   28 1   
    21   10   29 1   
    22   10   30 1   
    23   10   31 1   
    24   11   32 1   
    25   11   33 1   
    26   11   34 1   
    27   12   13 ar  
    28   12   17 ar  
    29   12   20 1   
    30   13   14 ar  
    31   13   35 1   
    32   14   15 ar  
    33   14   36 1   
    34   15   16 ar  
    35   15   18 1   
    36   16   17 ar  
    37   16   37 1   
    38   17   19 1   
    39   22   23 1   
    40   23   38 1   
    41   23   39 1   
    42   23   40 1   
    43   25   41 1   
@<TRIPOS>SUBSTRUCTURE
     1 FLY         1 TEMP              0 ****  ****    0 ROOT
