@<TRIPOS>MOLECULE
FLY
   42    44     1     0     0
SMALL
bcc


@<TRIPOS>ATOM
      1 C2          0.3420   -1.3150   -0.3400 ca        1 FLY      0.491200
      2 C3          0.2410   -0.6190    2.0000 ca        1 FLY      0.584200
      3 N1          1.6750   -1.1540   -0.3710 nb        1 FLY     -0.697000
      4 C4         -0.4420   -1.0660    0.8060 ca        1 FLY     -0.272400
      5 C5         -1.8620   -1.2360    0.8180 cc        1 FLY     -0.108200
      6 C6         -2.5600   -0.9560    1.9510 cd        1 FLY      0.070900
      7 C7         -1.8910   -0.5060    3.1970 c         1 FLY      0.681700
      8 C9          2.2350   -0.7200    0.8080 ca        1 FLY      0.732900
      9 C11         4.1450    0.7010    0.0390 c3        1 FLY      0.140500
     10 C13         3.8300    1.9660    0.8200 c3        1 FLY     -0.134600
     11 C14         5.6340    0.6260   -0.2760 c3        1 FLY     -0.134600
     12 C17        -4.6410   -1.4520    2.9830 ca        1 FLY      0.005100
     13 C18        -4.6230   -2.8070    3.3270 ca        1 FLY     -0.086000
     14 C19        -5.4560   -3.2750    4.3330 ca        1 FLY     -0.170000
     15 C20        -6.3200   -2.3790    4.9970 ca        1 FLY      0.176900
     16 C21        -6.3510   -1.0170    4.6550 ca        1 FLY     -0.198000
     17 C22        -5.5010   -0.5430    3.6420 ca        1 FLY      0.192900
     18 F24        -7.1310   -2.8370    5.9760 f         1 FLY     -0.116900
     19 F23        -5.5160    0.7600    3.2980 f         1 FLY     -0.110900
     20 O16        -3.9350   -0.9850    1.8700 os        1 FLY     -0.206200
     21 O15        -2.4880   -0.2460    4.2480 o         1 FLY     -0.538500
     22 N8         -0.4730   -0.3700    3.1640 n         1 FLY     -0.413300
     23 C25         0.2170    0.0850    4.3540 c3        1 FLY      0.059300
     24 N10         1.6120   -0.4420    1.9850 nb        1 FLY     -0.722000
     25 N12         3.7200   -0.5420    0.8010 n4        1 FLY     -0.748700
     26 H2         -0.1230   -1.6640   -1.2860 h4        1 FLY      0.072100
     27 H5         -2.3740   -1.5680   -0.1000 ha        1 FLY      0.185000
     28 H11         3.5600    0.6970   -0.9320 hx        1 FLY      0.123700
     29 H13         2.7420    2.0400    1.0630 hc        1 FLY      0.079033
     30 H13A        4.1050    2.8450    0.1840 hc        1 FLY      0.079033
     31 H13B        4.4200    2.0210    1.7670 hc        1 FLY      0.079033
     32 H14         5.8860   -0.2810   -0.8780 hc        1 FLY      0.079033
     33 H14A        5.9030    1.5280   -0.8820 hc        1 FLY      0.079033
     34 H14B        6.2530    0.6350    0.6540 hc        1 FLY      0.079033
     35 H18        -3.9530   -3.4980    2.7930 ha        1 FLY      0.151000
     36 H19        -5.4560   -4.3380    4.6170 ha        1 FLY      0.167000
     37 H21        -7.0300   -0.3240    5.1750 ha        1 FLY      0.181000
     38 H25         0.9790   -0.6780    4.6660 h1        1 FLY      0.076700
     39 H25A       -0.5230    0.2260    5.1890 h1        1 FLY      0.076700
     40 H25B        0.7270    1.0640    4.1510 h1        1 FLY      0.076700
     41 HN12        4.0600   -0.4750    1.7690 hn        1 FLY      0.469300
     42 H122        4.1410   -1.3670    0.3530 hn        1 FLY      0.469300
@<TRIPOS>BOND
     1    1    3 ar  
     2    1    4 ar  
     3    1   26 1   
     4    2    4 ar  
     5    2   22 1   
     6    2   24 ar  
     7    3    8 ar  
     8    4    5 1   
     9    5    6 2   
    10    5   27 1   
    11    6    7 1   
    12    6   20 1   
    13    7   21 2   
    14    7   22 1   
    15    8   24 ar  
    16    8   25 1   
    17    9   10 1   
    18    9   11 1   
    19    9   25 1   
    20    9   28 1   
    21   10   29 1   
    22   10   30 1   
    23   10   31 1   
    24   11   32 1   
    25   11   33 1   
    26   11   34 1   
    27   12   13 ar  
    28   12   17 ar  
    29   12   20 1   
    30   13   14 ar  
    31   13   35 1   
    32   14   15 ar  
    33   14   36 1   
    34   15   16 ar  
    35   15   18 1   
    36   16   17 ar  
    37   16   37 1   
    38   17   19 1   
    39   22   23 1   
    40   23   38 1   
    41   23   39 1   
    42   23   40 1   
    43   25   41 1   
    44   25   42 1   
@<TRIPOS>SUBSTRUCTURE
     1 FLY         1 TEMP              0 ****  ****    0 ROOT
