@<TRIPOS>MOLECULE
FLY
   41    36     1     0     0
SMALL
bcc


@<TRIPOS>ATOM
      1 C2          0.4340    0.5230   -2.1450 c1        1 FLY      0.055000
      2 C3          0.4570    0.8430    0.2450 c1        1 FLY      0.217000
      3 N1          1.7950    0.6320   -2.1660 n1        1 FLY     -0.232000
      4 C4         -0.2500    0.6270   -0.9460 c1        1 FLY     -0.285000
      5 C5         -1.7750    0.6210   -0.9360 c2        1 FLY     -0.006000
      6 C6         -2.4940    0.7530    0.3300 c1        1 FLY     -0.081000
      7 C7         -1.7380    0.8920    1.5920 c1        1 FLY      0.337000
      8 C9          2.4970    0.8460   -0.9850 c1        1 FLY      0.207000
      9 C11         4.8150    0.3210   -1.7580 c3        1 FLY      0.019000
     10 C13         5.5730    1.4020   -2.5160 c3        1 FLY     -0.232500
     11 C14         5.8020   -0.5690   -1.0250 c3        1 FLY     -0.232500
     12 C17        -4.4980   -0.4240    0.7110 c1        1 FLY      0.028000
     13 C18        -4.4720   -1.4800   -0.1840 c1        1 FLY     -0.143000
     14 C19        -5.1400   -2.6640    0.1160 c1        1 FLY     -0.143000
     15 C20        -5.8360   -2.7870    1.3170 c1        1 FLY      0.091000
     16 C21        -5.8630   -1.7310    2.2120 c1        1 FLY     -0.184000
     17 C22        -5.1930   -0.5460    1.9100 c1        1 FLY      0.111000
     18 F24        -6.3790   -3.9670    1.6570 f         1 FLY     -0.102000
     19 F23        -5.2790    0.5010    2.7410 f         1 FLY     -0.083000
     20 O16        -3.9290    0.8510    0.3360 os        1 FLY     -0.122000
     21 O15        -2.3340    1.0050    2.6500 o         1 FLY     -0.321000
     22 N8         -0.2870    0.9020    1.5720 n3        1 FLY     -0.241000
     23 C25         0.4560    0.8850    2.8280 c3        1 FLY     -0.085000
     24 N10         1.8170    0.9500    0.2180 n1        1 FLY     -0.288000
     25 N12         3.9210    0.9400   -0.8020 n3        1 FLY     -0.270000
     26 H2         -0.0630    0.3720   -2.9860 ha        1 FLY      0.169000
     27 H5         -2.2730    0.5280   -1.7780 ha        1 FLY      0.158000
     28 H11         4.2960   -0.2180   -2.3890 h1        1 FLY      0.125000
     29 H13         5.9760    2.0270   -1.8780 hc        1 FLY      0.086000
     30 H13A        4.9610    1.8810   -3.0950 hc        1 FLY      0.086000
     31 H13B        6.2780    0.9890   -3.0560 hc        1 FLY      0.086000
     32 H14         6.4180   -0.0110   -0.4930 hc        1 FLY      0.086000
     33 H14A        5.3170   -1.1730   -0.4340 hc        1 FLY      0.086000
     34 H14B        6.3140   -1.0910   -1.6750 hc        1 FLY      0.086000
     35 H18        -3.9740   -1.3920   -1.0420 ha        1 FLY      0.152500
     36 H19        -5.1200   -3.4090   -0.5160 ha        1 FLY      0.152500
     37 H21        -6.3640   -1.8180    3.0750 ha        1 FLY      0.167000
     38 H25        -0.1530    0.6610    3.5660 h1        1 FLY      0.103667
     39 H25A        1.1700    0.2140    2.7770 h1        1 FLY      0.103667
     40 H25B        0.8530    1.7780    2.9890 h1        1 FLY      0.103667
     41 HN12        4.2650    1.3380   -0.0360 hn        1 FLY      0.234000
@<TRIPOS>BOND
     1    1    4 1   
     2    1   26 1   
     3    2   22 1   
     4    2   24 1   
     5    3    8 1   
     6    4    5 1   
     7    5    6 1   
     8    5   27 1   
     9    6   20 1   
    10    7   21 1   
    11    7   22 1   
    12    8   25 1   
    13    9   10 1   
    14    9   11 1   
    15    9   25 1   
    16    9   28 1   
    17   10   29 1   
    18   10   30 1   
    19   10   31 1   
    20   11   32 1   
    21   11   33 1   
    22   11   34 1   
    23   12   17 1   
    24   12   20 1   
    25   13   14 1   
    26   13   35 1   
    27   14   36 1   
    28   15   16 1   
    29   15   18 1   
    30   16   37 1   
    31   17   19 1   
    32   22   23 1   
    33   23   38 1   
    34   23   39 1   
    35   23   40 1   
    36   25   41 1   
@<TRIPOS>SUBSTRUCTURE
     1 FLY         1 TEMP              0 ****  ****    0 ROOT
