@<TRIPOS>MOLECULE
FLY
   41    43     1     0     0
SMALL
bcc


@<TRIPOS>ATOM
      1 C2         -2.3650   -1.1810   -1.2760 ca        1 FLY      0.520200
      2 C3         -1.6970    0.2630    0.5610 ca        1 FLY      0.625200
      3 N1         -3.6230   -0.7650   -1.2140 nb        1 FLY     -0.758000
      4 C4         -1.3290   -0.7160   -0.4280 ca        1 FLY     -0.427400
      5 C5          0.0130   -1.1850   -0.5160 cc        1 FLY      0.005800
      6 C6          0.9410   -0.6980    0.3490 cd        1 FLY     -0.056100
      7 C7          0.6160    0.3090    1.3760 c         1 FLY      0.698700
      8 C9         -3.9060    0.2080   -0.2380 ca        1 FLY      0.925900
      9 C11        -6.3240    0.1380   -0.8350 c3        1 FLY      0.216500
     10 C13        -6.8040   -1.1330   -0.1320 c3        1 FLY     -0.114600
     11 C14        -7.4950    1.1220   -0.9250 c3        1 FLY     -0.114600
     12 C17         3.2470   -0.4920   -0.1070 ca        1 FLY      0.073100
     13 C18         3.0750    0.5690   -0.9980 ca        1 FLY     -0.135000
     14 C19         4.1800    1.2480   -1.4990 ca        1 FLY     -0.151000
     15 C20         5.4730    0.8580   -1.1070 ca        1 FLY      0.125900
     16 C21         5.6630   -0.2080   -0.2100 ca        1 FLY     -0.185000
     17 C22         4.5470   -0.8870    0.2990 ca        1 FLY      0.145900
     18 F24         6.5520    1.5160   -1.5950 f         1 FLY     -0.136900
     19 F23         4.7150   -1.9140    1.1600 f         1 FLY     -0.117900
     20 O16         2.2090   -1.2660    0.4020 os        1 FLY     -0.211200
     21 O15         1.4490    0.7760    2.1710 o         1 FLY     -0.596500
     22 N8         -0.7270    0.7610    1.4360 n         1 FLY     -0.425300
     23 C25        -1.1000    1.7310    2.4420 c3        1 FLY      0.070300
     24 N10        -2.9880    0.7130    0.6630 nb        1 FLY     -0.814000
     25 N12        -5.1800    0.7670   -0.1960 nh        1 FLY     -0.825900
     26 H2         -2.1450   -1.9450   -2.0470 h4        1 FLY      0.032100
     27 H5          0.2730   -1.9450   -1.2690 ha        1 FLY      0.158000
     28 H11        -6.0210   -0.1350   -1.8900 h1        1 FLY      0.085700
     29 H13        -7.6580   -1.5640   -0.7070 hc        1 FLY      0.046700
     30 H13A       -5.9890   -1.8940   -0.0850 hc        1 FLY      0.046700
     31 H13B       -7.1510   -0.9120    0.9060 hc        1 FLY      0.046700
     32 H14        -7.8680    1.4010    0.0890 hc        1 FLY      0.046700
     33 H14A       -7.1980    2.0510   -1.4670 hc        1 FLY      0.046700
     34 H14B       -8.3250    0.6320   -1.4870 hc        1 FLY      0.046700
     35 H18         2.0590    0.8720   -1.2960 ha        1 FLY      0.151000
     36 H19         4.0520    2.0870   -2.1980 ha        1 FLY      0.154000
     37 H21         6.6760   -0.5050    0.0960 ha        1 FLY      0.167000
     38 H25        -1.8770    1.2940    3.1250 h1        1 FLY      0.064367
     39 H25A       -0.1970    2.0150    3.0460 h1        1 FLY      0.064367
     40 H25B       -1.5180    2.6480    1.9500 h1        1 FLY      0.064367
     41 HN12       -5.3900    1.3290    0.6030 hn        1 FLY      0.438800
@<TRIPOS>BOND
     1    1    3 ar  
     2    1    4 ar  
     3    1   26 1   
     4    2    4 ar  
     5    2   22 1   
     6    2   24 ar  
     7    3    8 ar  
     8    4    5 1   
     9    5    6 2   
    10    5   27 1   
    11    6    7 1   
    12    6   20 1   
    13    7   21 2   
    14    7   22 1   
    15    8   24 ar  
    16    8   25 1   
    17    9   10 1   
    18    9   11 1   
    19    9   25 1   
    20    9   28 1   
    21   10   29 1   
    22   10   30 1   
    23   10   31 1   
    24   11   32 1   
    25   11   33 1   
    26   11   34 1   
    27   12   13 ar  
    28   12   17 ar  
    29   12   20 1   
    30   13   14 ar  
    31   13   35 1   
    32   14   15 ar  
    33   14   36 1   
    34   15   16 ar  
    35   15   18 1   
    36   16   17 ar  
    37   16   37 1   
    38   17   19 1   
    39   22   23 1   
    40   23   38 1   
    41   23   39 1   
    42   23   40 1   
    43   25   41 1   
@<TRIPOS>SUBSTRUCTURE
     1 FLY         1 TEMP              0 ****  ****    0 ROOT
