@<TRIPOS>MOLECULE
FLZ
   46    44     1     0     0
SMALL
bcc


@<TRIPOS>ATOM
      1 O11        -0.8650    0.0520    0.8600 os        1 FLZ     -0.158000
      2 C10         1.4450    0.4840    0.2800 c1        1 FLZ     -0.154000
      3 C6          3.0750    0.0300    2.0580 c2        1 FLZ      0.292000
      4 C5          2.7330    0.3090    0.7000 c2        1 FLZ     -0.335000
      5 C4          5.5640    2.5820    0.9290 c1        1 FLZ      0.248000
      6 C2          5.4770    0.2240    2.0080 c2        1 FLZ      0.388000
      7 C9          0.3820    0.6260    1.2790 c3        1 FLZ      0.018000
      8 C12        -0.9110   -1.2460    0.5060 c2        1 FLZ      0.329000
      9 C22         9.7250    1.2470    2.1070 cx        1 FLZ     -0.216000
     10 C15        -4.2660   -1.6360   -0.6950 c2        1 FLZ     -0.191500
     11 C17        -3.5600   -4.1040   -1.0880 c2        1 FLZ     -0.191500
     12 C16        -3.9150   -2.8710   -0.8910 c1        1 FLZ     -0.155000
     13 C18         0.9300   -3.0630    0.7160 c1        1 FLZ      0.160000
     14 C8          0.7150    0.1540    2.7020 c2        1 FLZ      0.267000
     15 C19         0.0580   -2.1540    0.6330 c1        1 FLZ     -0.683000
     16 N1          5.5400    1.5030    1.4270 n2        1 FLZ     -0.390000
     17 N7          2.0920    0.0140    3.0470 n         1 FLZ     -0.249000
     18 N3          4.3620   -0.3660    2.4280 n2        1 FLZ     -0.325000
     19 N20         6.6870   -0.4210    2.1910 n3        1 FLZ     -0.364000
     20 C21        10.0420   -0.2160    1.9250 cx        1 FLZ     -0.180000
     21 C26        10.0840   -1.1200    3.1070 c3        1 FLZ     -0.197000
     22 C25        12.1550   -4.0080    2.5670 c1        1 FLZ      0.190000
     23 O24        13.0220   -4.7390    2.2780 o         1 FLZ     -0.188000
     24 C23        11.1170    0.8230    1.7480 cx        1 FLZ     -0.216000
     25 H10         0.1200    1.7310    1.3590 h1        1 FLZ      0.174000
     26 H4          3.5360    0.2910   -0.0510 ha        1 FLZ      0.157000
     27 H14         3.2180    0.2680    4.8100 h1        1 FLZ      0.104333
     28 H14A        2.7800   -1.4640    4.4060 h1        1 FLZ      0.104333
     29 H14B        1.5070   -0.3210    5.0470 h1        1 FLZ      0.104333
     30 H22         9.1140    1.7650    1.3460 hc        1 FLZ      0.112250
     31 H22A        9.5300    1.6310    3.1240 hc        1 FLZ      0.112250
     32 H15        -1.9330   -1.4650    0.1090 h4        1 FLZ      0.181000
     33 H17        -2.5530   -4.4730   -0.8430 ha        1 FLZ      0.135750
     34 H16        -4.1420   -0.8600   -1.4640 ha        1 FLZ      0.135750
     35 H18        -4.2480   -4.8510   -1.5110 ha        1 FLZ      0.135750
     36 H19        -4.7200   -1.2970    0.2480 ha        1 FLZ      0.135750
     37 HN20        6.6920   -1.3220    2.6100 hn        1 FLZ      0.259000
     38 H21         7.5490    0.0690    2.1070 hn        1 FLZ      0.259000
     39 H26         9.0610   -1.5070    3.3390 hc        1 FLZ      0.081667
     40 H26A        9.6600   -0.7180    1.0130 hc        1 FLZ      0.119000
     41 H25        10.7500   -1.9970    2.9000 hc        1 FLZ      0.081667
     42 H25A       10.4710   -0.5890    4.0100 hc        1 FLZ      0.081667
     43 H23        11.9130    0.9020    2.5100 hc        1 FLZ      0.112250
     44 H23A       11.4960    1.0310    0.7320 hc        1 FLZ      0.112250
     45 C14         2.4190   -0.4010    4.3950 c3        1 FLZ     -0.101000
     46 O13        -0.1490   -0.0220    3.5690 o         1 FLZ     -0.298000
@<TRIPOS>BOND
     1    1    7 1   
     2    1    8 1   
     3    2    4 1   
     4    2    7 1   
     5    3    4 1   
     6    3   17 1   
     7    3   18 1   
     8    4   26 1   
     9    5   16 1   
    10    6   16 1   
    11    6   18 1   
    12    6   19 1   
    13    7   14 1   
    14    7   25 1   
    15    8   15 1   
    16    8   32 1   
    17    9   20 1   
    18    9   24 1   
    19    9   30 1   
    20    9   31 1   
    21   10   12 1   
    22   10   34 1   
    23   10   36 1   
    24   11   12 1   
    25   11   33 1   
    26   11   35 1   
    27   13   15 1   
    28   14   17 1   
    29   14   46 1   
    30   17   45 1   
    31   19   37 1   
    32   19   38 1   
    33   20   21 1   
    34   20   24 1   
    35   20   40 1   
    36   21   39 1   
    37   21   41 1   
    38   21   42 1   
    39   22   23 1   
    40   24   43 1   
    41   24   44 1   
    42   27   45 1   
    43   28   45 1   
    44   29   45 1   
@<TRIPOS>SUBSTRUCTURE
     1 FLZ         1 TEMP              0 ****  ****    0 ROOT
