@<TRIPOS>MOLECULE
FLZ
   47    47     1     0     0
SMALL
bcc


@<TRIPOS>ATOM
      1 O11        -0.0360    0.1660   -0.2640 os        1 FLZ     -0.163000
      2 C10         2.3450    0.0070   -0.8500 c1        1 FLZ      0.065000
      3 C6          3.5800    0.3910    1.3350 c2        1 FLZ      0.187000
      4 C5          3.6220    0.0370   -0.1560 c3        1 FLZ     -0.264000
      5 C4          4.4680   -1.1970   -0.4300 c1        1 FLZ      0.058000
      6 C2          5.3160   -1.1140    1.7120 c2        1 FLZ      0.141000
      7 C9          1.2300    0.8030   -0.3370 c3        1 FLZ     -0.041000
      8 C12        -0.0750   -1.2060   -0.0690 c2        1 FLZ     -0.037000
      9 C22         8.5790   -1.0040    3.7270 c3        1 FLZ     -0.127000
     10 C15        -3.4440   -1.3850    1.2060 c1        1 FLZ     -0.161500
     11 C17        -2.7740   -3.6460    2.1900 c1        1 FLZ     -0.072500
     12 C16        -3.1220   -2.4440    1.6670 c1        1 FLZ     -0.072500
     13 C18        -2.4820   -4.7130    2.6520 c1        1 FLZ     -0.161500
     14 C8          1.4450    1.5240    1.0090 c2        1 FLZ      0.247000
     15 C19         0.8910   -2.0770   -0.3460 c2        1 FLZ     -0.306000
     16 N1          5.2010   -1.7670    0.4910 n2        1 FLZ     -0.257000
     17 N7          2.5380    1.0880    1.8540 n         1 FLZ     -0.203000
     18 N3          4.5870   -0.0660    2.1690 n2        1 FLZ     -0.312000
     19 C21         7.6650   -0.7490    2.5130 c3        1 FLZ     -0.061000
     20 C26         8.4100   -1.0440    1.2210 c3        1 FLZ     -0.244000
     21 C25        10.8020    0.1100    3.5050 c2        1 FLZ      0.025000
     22 O24        11.2880   -0.9820    2.8300 oh        1 FLZ     -0.270000
     23 C23         9.5150    0.1300    3.8960 c2        1 FLZ     -0.278000
     24 H10         1.0670    1.6330   -1.1120 h1        1 FLZ      0.214000
     25 H4          4.2250    0.8410   -0.7150 hc        1 FLZ      0.244000
     26 H14         3.3630    1.9400    3.6070 h1        1 FLZ      0.125000
     27 H14A        1.5400    1.9970    3.4810 h1        1 FLZ      0.125000
     28 H14B        2.3800    0.4130    3.8540 h1        1 FLZ      0.125000
     29 H22A        7.9750   -1.1080    4.6700 hc        1 FLZ      0.110000
     30 H15        -1.0930   -1.4450    0.3080 h4        1 FLZ      0.201000
     31 H17        -2.2340   -5.6600    3.0610 ha        1 FLZ      0.236000
     32 H16        -3.7450   -0.4510    0.8000 ha        1 FLZ      0.236000
     33 H18         0.7450   -3.1550   -0.1940 ha        1 FLZ      0.163500
     34 H19         1.8670   -1.8200   -0.8080 ha        1 FLZ      0.163500
     35 H21         7.3280    0.3300    2.5300 hx        1 FLZ      0.149000
     36 H26         8.6270   -2.1350    1.1050 hc        1 FLZ      0.120667
     37 H26A        7.8420   -0.6910    0.3280 hc        1 FLZ      0.120667
     38 H25        11.5020    0.9420    3.6900 h4        1 FLZ      0.152000
     39 H25A        9.3940   -0.5070    1.2650 hc        1 FLZ      0.120667
     40 H23        12.2480   -0.8810    2.7490 ho        1 FLZ      0.241000
     41 H23A        9.1210    1.0190    4.4100 ha        1 FLZ      0.149000
     42 C14         2.4520    1.3720    3.2760 c3        1 FLZ     -0.118000
     43 O13         0.7370    2.4450    1.4000 o         1 FLZ     -0.197000
     44 N20         6.4070   -1.5920    2.6250 n4        1 FLZ     -0.016000
     45 H22         9.1480   -1.9610    3.5700 hc        1 FLZ      0.110000
     46 HN20        6.6310   -2.5650    2.3690 hn        1 FLZ      0.266000
     47 H202        6.0720   -1.5670    3.5960 hn        1 FLZ      0.266000
@<TRIPOS>BOND
     1    1    7 1   
     2    1    8 1   
     3    2    4 1   
     4    2    7 1   
     5    3    4 1   
     6    3   17 1   
     7    3   18 1   
     8    4    5 1   
     9    4   25 1   
    10    5   16 1   
    11    6   16 1   
    12    6   18 1   
    13    6   44 1   
    14    7   14 1   
    15    7   24 1   
    16    8   15 1   
    17    8   30 1   
    18    9   19 1   
    19    9   23 1   
    20    9   29 1   
    21    9   45 1   
    22   10   12 1   
    23   10   32 1   
    24   11   12 1   
    25   11   13 1   
    26   13   31 1   
    27   14   17 1   
    28   14   43 1   
    29   15   33 1   
    30   15   34 1   
    31   17   42 1   
    32   19   20 1   
    33   19   35 1   
    34   19   44 1   
    35   20   36 1   
    36   20   37 1   
    37   20   39 1   
    38   21   22 1   
    39   21   23 1   
    40   21   38 1   
    41   22   40 1   
    42   23   41 1   
    43   26   42 1   
    44   27   42 1   
    45   28   42 1   
    46   44   46 1   
    47   44   47 1   
@<TRIPOS>SUBSTRUCTURE
     1 FLZ         1 TEMP              0 ****  ****    0 ROOT
