@<TRIPOS>MOLECULE
FLZ
   46    45     1     0     0
SMALL
bcc


@<TRIPOS>ATOM
      1 O11        -0.9010   -0.2020    0.2510 os        1 FLZ     -0.233000
      2 C10         1.4230   -0.8820   -0.0470 c1        1 FLZ     -0.177000
      3 C6          2.9940   -0.0860    1.6640 c2        1 FLZ      0.284000
      4 C5          2.6460   -0.9190    0.5580 c2        1 FLZ     -0.342000
      5 C4          5.8550    0.2640   -0.7010 c1        1 FLZ      0.249000
      6 C2          5.3840   -0.3590    1.7730 c2        1 FLZ      0.380000
      7 C9          0.4630    0.1640    0.3160 c3        1 FLZ      0.033000
      8 C12        -1.1950   -1.5510    0.6570 c3        1 FLZ      0.148000
      9 C22         9.1320   -0.6200    4.0470 cx        1 FLZ     -0.216500
     10 C15        -2.5500   -1.8420    0.0820 c2        1 FLZ     -0.117000
     11 C17        -3.3530   -4.2260   -0.5740 c2        1 FLZ     -0.172000
     12 C16        -2.9420   -3.0400   -0.2460 c1        1 FLZ     -0.149000
     13 C18        -0.9790   -2.6520    2.9240 c1        1 FLZ      0.186000
     14 C8          0.7310    0.8470    1.6730 c2        1 FLZ      0.258000
     15 C19        -1.2360   -1.6260    2.1530 c2        1 FLZ     -0.527000
     16 N1          5.6540   -0.0170    0.4350 n2        1 FLZ     -0.389000
     17 N7          2.0780    0.8300    2.1670 n         1 FLZ     -0.258000
     18 N3          4.1980   -0.2500    2.3590 n2        1 FLZ     -0.326000
     19 N20         6.4670   -0.8060    2.5150 n8        1 FLZ     -0.359000
     20 C21         9.8110   -0.1540    2.7830 cx        1 FLZ     -0.177000
     21 C26        10.0490   -1.1110    1.6680 c3        1 FLZ     -0.201000
     22 C25        12.8620   -0.3070   -0.4220 c1        1 FLZ      0.190000
     23 O24        13.8730   -0.0660   -0.9610 o         1 FLZ     -0.188000
     24 C23        10.5950   -0.2930    4.0600 cx        1 FLZ     -0.216500
     25 H10         0.5520    0.9930   -0.4610 h1        1 FLZ      0.163000
     26 H4          3.3860   -1.6600    0.2190 ha        1 FLZ      0.154000
     27 H14         1.5390    2.3060    3.5710 h1        1 FLZ      0.101333
     28 H14A        2.5230    0.9210    4.2410 h1        1 FLZ      0.101333
     29 H14B        3.3210    2.1900    3.1920 h1        1 FLZ      0.101333
     30 H22         8.8230   -1.6780    4.1300 hc        1 FLZ      0.111500
     31 H22A        8.4300    0.0590    4.5620 hc        1 FLZ      0.111500
     32 H15        -0.4110   -2.2470    0.2370 h1        1 FLZ      0.142000
     33 H17        -3.2040   -4.6400   -1.5820 ha        1 FLZ      0.132000
     34 H16        -3.2000   -0.9610   -0.0570 ha        1 FLZ      0.158000
     35 H18        -3.8730   -4.8850    0.1370 ha        1 FLZ      0.132000
     36 H19        -1.5370   -0.6630    2.6280 ha        1 FLZ      0.218000
     37 HN20        6.3330   -1.0040    3.4800 hn        1 FLZ      0.254000
     38 H21         7.3970   -0.6360    2.2050 hn        1 FLZ      0.254000
     39 H26         9.1700   -1.1370    0.9770 hc        1 FLZ      0.084000
     40 H26A        9.5900    0.8730    2.4280 hc        1 FLZ      0.116000
     41 H25        10.9480   -0.7990    1.0760 hc        1 FLZ      0.084000
     42 H25A       10.2230   -2.1460    2.0530 hc        1 FLZ      0.084000
     43 H23        10.9370    0.6190    4.5800 hc        1 FLZ      0.111500
     44 H23A       11.3260   -1.1170    4.1500 hc        1 FLZ      0.111500
     45 C14         2.3830    1.5970    3.3560 c3        1 FLZ     -0.102000
     46 O13        -0.1260    1.4610    2.3170 o         1 FLZ     -0.302000
@<TRIPOS>BOND
     1    1    7 1   
     2    1    8 1   
     3    2    4 1   
     4    2    7 1   
     5    3    4 1   
     6    3   17 1   
     7    3   18 1   
     8    4   26 1   
     9    5   16 1   
    10    6   16 1   
    11    6   18 1   
    12    6   19 1   
    13    7   14 1   
    14    7   25 1   
    15    8   10 1   
    16    8   15 1   
    17    8   32 1   
    18    9   20 1   
    19    9   24 1   
    20    9   30 1   
    21    9   31 1   
    22   10   12 1   
    23   10   34 1   
    24   11   12 1   
    25   11   33 1   
    26   11   35 1   
    27   13   15 1   
    28   14   17 1   
    29   14   46 1   
    30   15   36 1   
    31   17   45 1   
    32   19   37 1   
    33   19   38 1   
    34   20   21 1   
    35   20   24 1   
    36   20   40 1   
    37   21   39 1   
    38   21   41 1   
    39   21   42 1   
    40   22   23 1   
    41   24   43 1   
    42   24   44 1   
    43   27   45 1   
    44   28   45 1   
    45   29   45 1   
@<TRIPOS>SUBSTRUCTURE
     1 FLZ         1 TEMP              0 ****  ****    0 ROOT
