@<TRIPOS>MOLECULE
FLZ
   46    49     1     0     0
SMALL
bcc


@<TRIPOS>ATOM
      1 O11         3.9170   -0.0070   -1.2180 os        1 FLZ     -0.228200
      2 C10         1.6090    0.6010   -1.1610 cc        1 FLZ     -0.006200
      3 C6         -0.0310   -0.9960   -0.1910 ca        1 FLZ      0.622200
      4 C5          0.2610    0.2430   -0.8620 ca        1 FLZ     -0.419400
      5 C4         -0.8460    1.0600   -1.1950 ca        1 FLZ      0.518200
      6 C2         -2.3230   -0.4880   -0.3010 ca        1 FLZ      0.920900
      7 C9          2.6130   -0.2380   -0.8020 cd        1 FLZ     -0.040100
      8 C12         4.7730    0.5610   -0.2740 ca        1 FLZ      0.119100
      9 C22        -6.0840   -0.8070   -0.2470 c3        1 FLZ     -0.131900
     10 C15         6.1380    0.4810   -0.5970 ca        1 FLZ     -0.162500
     11 C17         6.6400    1.7290    1.4160 ca        1 FLZ     -0.156000
     12 C16         7.0620    1.0740    0.2570 ca        1 FLZ     -0.102000
     13 C18         5.2830    1.7940    1.7270 ca        1 FLZ     -0.102000
     14 C8          2.3650   -1.5160   -0.1050 c         1 FLZ      0.698700
     15 C19         4.3370    1.2120    0.8840 ca        1 FLZ     -0.162500
     16 N1         -2.1090    0.7480   -0.9350 nb        1 FLZ     -0.760000
     17 N7          1.0140   -1.8460    0.1810 n         1 FLZ     -0.426300
     18 N3         -1.3230   -1.3530    0.1000 nb        1 FLZ     -0.811000
     19 N20        -3.6320   -0.9300   -0.1070 nh        1 FLZ     -0.823900
     20 C21        -4.7620   -0.0220   -0.1580 c3        1 FLZ      0.218500
     21 C26        -4.8550    0.9330    1.0450 c3        1 FLZ     -0.131900
     22 C25        -6.0800    1.8190    0.9050 c3        1 FLZ      0.127900
     23 O24        -7.2760    1.0580    0.7780 os        1 FLZ     -0.413600
     24 C23        -7.2460    0.1680   -0.3310 c3        1 FLZ      0.127900
     25 H10         1.8110    1.5480   -1.6880 ha        1 FLZ      0.158000
     26 H4         -0.6820    2.0320   -1.7020 h4        1 FLZ      0.032100
     27 H14         0.0630   -3.7310    0.1920 h1        1 FLZ      0.064033
     28 H14A        1.6750   -3.6480    1.0540 h1        1 FLZ      0.064033
     29 H14B        0.1900   -2.8970    1.8140 h1        1 FLZ      0.064033
     30 H22        -6.0880   -1.4640   -1.1540 hc        1 FLZ      0.059950
     31 H22A       -6.2090   -1.4570    0.6570 hc        1 FLZ      0.059950
     32 H15         6.4520   -0.0450   -1.5090 ha        1 FLZ      0.145500
     33 H17         7.3800    2.1900    2.0860 ha        1 FLZ      0.133000
     34 H16         8.1350    1.0200    0.0170 ha        1 FLZ      0.133000
     35 H18         4.9510    2.3060    2.6430 ha        1 FLZ      0.133000
     36 H19         3.2660    1.2560    1.1280 ha        1 FLZ      0.145500
     37 HN20       -3.7430   -1.7170    0.4970 hn        1 FLZ      0.437800
     38 H21        -4.6670    0.6020   -1.0970 h1        1 FLZ      0.087700
     39 H26        -4.9270    0.3440    1.9960 hc        1 FLZ      0.059950
     40 H26A       -3.9410    1.5770    1.0990 hc        1 FLZ      0.059950
     41 H25        -6.2430    2.4270    1.8340 h1        1 FLZ      0.052700
     42 H25A       -5.9730    2.4990    0.0180 h1        1 FLZ      0.052700
     43 H23        -7.1960    0.7580   -1.2850 h1        1 FLZ      0.052700
     44 H23A       -8.2270   -0.3740   -0.2720 h1        1 FLZ      0.052700
     45 C14         0.7190   -3.0960    0.8450 c3        1 FLZ      0.070300
     46 O13         3.2640   -2.3010    0.2370 o         1 FLZ     -0.593500
@<TRIPOS>BOND
     1    1    7 1   
     2    1    8 1   
     3    2    4 1   
     4    2    7 2   
     5    2   25 1   
     6    3    4 ar  
     7    3   17 1   
     8    3   18 ar  
     9    4    5 ar  
    10    5   16 ar  
    11    5   26 1   
    12    6   16 ar  
    13    6   18 ar  
    14    6   19 1   
    15    7   14 1   
    16    8   10 ar  
    17    8   15 ar  
    18    9   20 1   
    19    9   24 1   
    20    9   30 1   
    21    9   31 1   
    22   10   12 ar  
    23   10   32 1   
    24   11   12 ar  
    25   11   13 ar  
    26   11   33 1   
    27   12   34 1   
    28   13   15 ar  
    29   13   35 1   
    30   14   17 1   
    31   14   46 2   
    32   15   36 1   
    33   17   45 1   
    34   19   20 1   
    35   19   37 1   
    36   20   21 1   
    37   20   38 1   
    38   21   22 1   
    39   21   39 1   
    40   21   40 1   
    41   22   23 1   
    42   22   41 1   
    43   22   42 1   
    44   23   24 1   
    45   24   43 1   
    46   24   44 1   
    47   27   45 1   
    48   28   45 1   
    49   29   45 1   
@<TRIPOS>SUBSTRUCTURE
     1 FLZ         1 TEMP              0 ****  ****    0 ROOT
