@<TRIPOS>MOLECULE
FM0
   28    27     1     0     0
SMALL
bcc


@<TRIPOS>ATOM
      1 OAA         6.0560   -1.1890    0.3960 o         1 FM0     -0.883800
      2 OAB        -4.9740   -0.7480    1.1310 o         1 FM0     -0.968833
      3 OAC        -1.4680    2.0700    0.6950 o         1 FM0     -0.932000
      4 OAD         6.5160   -0.1850   -1.5220 o         1 FM0     -0.883800
      5 OAE         3.3690   -0.9360    1.2560 oh        1 FM0     -0.624800
      6 OAF        -4.8220   -1.3390   -1.3170 o         1 FM0     -0.968833
      7 OAG        -5.6130    0.9560   -0.6200 o         1 FM0     -0.968833
      8 OAH        -1.2940    1.4910   -1.7650 o         1 FM0     -0.932000
      9 CAJ         3.3530    1.3710    0.5410 c3        1 FM0      0.122900
     10 CAL         1.7640   -0.3300   -0.4120 c3        1 FM0     -0.109400
     11 CAM         4.1870   -0.4750   -1.0020 c3        1 FM0     -0.207400
     12 OAN        -0.5990   -0.1590   -0.0210 os        1 FM0     -0.577200
     13 OAO        -3.1130    0.3690   -0.3230 os        1 FM0     -0.810800
     14 CAP         5.6740   -0.6070   -0.6670 c         1 FM0      0.909600
     15 CAQ         3.1970   -0.1080    0.1140 c3        1 FM0      0.154800
     16 PAR        -4.7760   -0.2500   -0.2770 p5        1 FM0      1.469900
     17 PAS        -1.7220    1.0810   -0.3960 p5        1 FM0      1.582800
     18 HOAE        4.3240   -0.9810    1.4220 ho        1 FM0      0.425000
     19 HAJ         2.5550    1.6090    1.3000 h1        1 FM0      0.049200
     20 HAJA        3.2150    2.0250   -0.3610 h1        1 FM0      0.049200
     21 HAK         0.7870   -0.0800    1.4990 h1        1 FM0     -0.003800
     22 HAKA        0.6880    1.3940    0.4120 h1        1 FM0     -0.003800
     23 HAL         1.5950   -1.4350   -0.4870 hc        1 FM0      0.043700
     24 HALA        1.7000    0.1010   -1.4440 hc        1 FM0      0.043700
     25 HAM         4.0800    0.2810   -1.8210 hc        1 FM0      0.035700
     26 HAMA        3.8740   -1.4720   -1.4110 hc        1 FM0      0.035700
     27 CAK         0.6300    0.2680    0.4350 c3        1 FM0      0.232400
     28 FAI         4.5760    1.6640    1.1190 f         1 FM0     -0.280300
@<TRIPOS>BOND
     1    1   14 1   
     2    2   16 1   
     3    3   17 1   
     4    4   14 1   
     5    5   15 1   
     6    5   18 1   
     7    6   16 1   
     8    7   16 1   
     9    8   17 1   
    10    9   15 1   
    11    9   19 1   
    12    9   20 1   
    13    9   28 1   
    14   10   15 1   
    15   10   23 1   
    16   10   24 1   
    17   10   27 1   
    18   11   14 1   
    19   11   15 1   
    20   11   25 1   
    21   11   26 1   
    22   12   17 1   
    23   12   27 1   
    24   13   16 1   
    25   13   17 1   
    26   21   27 1   
    27   22   27 1   
@<TRIPOS>SUBSTRUCTURE
     1 FM0         1 TEMP              0 ****  ****    0 ROOT
