@<TRIPOS>MOLECULE
FM0
   28    24     1     0     0
SMALL
bcc


@<TRIPOS>ATOM
      1 OAA      -215.3130 -104.6100  156.2680 o         1 FM0     -0.603000
      2 OAB      -215.7130 -104.5220  145.0620 o         1 FM0     -0.916167
      3 OAC      -214.5010 -101.8980  148.6230 o         1 FM0     -1.142000
      4 OAD      -213.1920 -104.5070  156.9170 o         1 FM0     -0.603000
      5 OAE      -215.8470 -103.9360  153.6360 oh        1 FM0     -0.318000
      6 OAF      -213.2990 -105.2590  144.8130 o         1 FM0     -0.916167
      7 OAG      -213.9590 -102.8650  144.2460 o         1 FM0     -0.916167
      8 OAH      -212.0930 -102.6520  148.3230 o         1 FM0     -1.142000
      9 CAJ      1085.7510  507.0310 -823.0910 c2        1 FM0     -0.600000
     10 CAL      -214.0180 -103.2690  152.2680 c3        1 FM0     -0.198000
     11 CAM      -213.6600 -103.9690  154.6480 c2        1 FM0     -0.319000
     12 OAN      -214.0620 -104.0240  149.9880 o         1 FM0     -0.331000
     13 OAO      -213.8980 -103.5150  146.7170 os        1 FM0     -1.201000
     14 CAP      -214.0820 -104.3890  156.0220 c2        1 FM0      0.359000
     15 CAQ      -214.4810 -103.7650  153.6010 c2        1 FM0      0.049000
     16 PAR      -214.2740 -104.1400  144.9610 p5        1 FM0      1.638500
     17 PAS      -213.5060 -102.7320  147.9390 p3        1 FM0      2.589000
     18 HOAE     -216.0930 -104.2370  154.5340 ho        1 FM0      0.264000
     19 HAJ      1085.5520  506.0160 -822.6690 h4        1 FM0     -0.063000
     20 HAJA     1084.9530  507.2680 -823.8360 h4        1 FM0     -0.063000
     21 HAK       176.3410  107.8930  -59.0650 ha        1 FM0      0.000000
     22 HAKA      175.6700  107.8840  -58.9800 ha        1 FM0      0.000000
     23 HAL      -212.8970 -103.2920  152.2220 hc        1 FM0      0.128500
     24 HALA     -215.5470 -104.5530  151.2970 h4        1 FM0      0.097000
     25 HAM      -214.3390 -102.1950  152.1480 hc        1 FM0      0.128500
     26 HAMA     -212.5780 -103.8170  154.5290 ha        1 FM0      0.117000
     27 CAK      -214.5930 -104.0160  151.1020 c2        1 FM0      0.235000
     28 FAI      1085.7130  507.9590 -822.0760 f         1 FM0     -0.274000
@<TRIPOS>BOND
     1    1   14 1   
     2    2   16 1   
     3    3   17 1   
     4    4   14 1   
     5    5   15 1   
     6    5   18 1   
     7    6   16 1   
     8    7   16 1   
     9    8   17 1   
    10    9   19 1   
    11    9   20 1   
    12    9   28 1   
    13   10   15 1   
    14   10   23 1   
    15   10   25 1   
    16   10   27 1   
    17   11   14 1   
    18   11   15 1   
    19   11   26 1   
    20   12   27 1   
    21   13   16 1   
    22   13   17 1   
    23   21   22 1   
    24   24   27 1   
@<TRIPOS>SUBSTRUCTURE
     1 FM0         1 TEMP              0 ****  ****    0 ROOT
