@<TRIPOS>MOLECULE
FM0
   28    27     1     0     0
SMALL
bcc


@<TRIPOS>ATOM
      1 OAA        -2.4170    2.9680   -2.2860 o         1 FM0     -0.887300
      2 OAB         4.8560   -4.0150    0.7140 o         1 FM0     -0.970500
      3 OAC         1.9630   -2.9090   -0.3240 o         1 FM0     -0.931500
      4 OAD        -4.1160    2.9480   -0.9190 o         1 FM0     -0.887300
      5 OAE        -1.7170    0.3920   -1.3280 oh        1 FM0     -0.612800
      6 OAF         6.2830   -2.1090    1.3560 o         1 FM0     -0.970500
      7 OAG         5.4730   -2.3170   -0.9640 o         1 FM0     -0.970500
      8 OAH         3.0300   -0.9700   -1.4100 o         1 FM0     -0.931500
      9 FAI        -3.2100    0.7200    1.8780 f         1 FM0     -0.274300
     10 CAJ        -3.0600    0.2330    0.6360 c3        1 FM0      0.119900
     11 CAK         0.3490   -0.2960   -0.1240 c3        1 FM0      0.244400
     12 CAL        -0.6040    0.4570    0.7800 c3        1 FM0     -0.103400
     13 CAM        -1.9740    2.3580   -0.0030 c3        1 FM0     -0.210400
     14 OAN         1.5290   -0.5940    0.5840 os        1 FM0     -0.582200
     15 OAO         3.8400   -1.7100    0.8620 os        1 FM0     -0.811800
     16 CAP        -2.8870    2.7820   -1.1320 c         1 FM0      0.904600
     17 CAQ        -1.8360    0.8510   -0.0040 c3        1 FM0      0.157800
     18 PAR         5.1270   -2.5470    0.4880 p5        1 FM0      1.470900
     19 PAS         2.5890   -1.5550   -0.0900 p5        1 FM0      1.584800
     20 HOAE       -2.4350   -0.0880   -1.5420 ho        1 FM0      0.413000
     21 HAJ        -2.9500   -0.7400    0.6780 h1        1 FM0      0.045200
     22 HAJA       -3.8520    0.4500    0.1020 h1        1 FM0      0.045200
     23 HAK        -0.0730   -1.1280   -0.4220 h1        1 FM0     -0.003800
     24 HAKA        0.5650    0.2570   -0.9030 h1        1 FM0     -0.003800
     25 HAL        -0.1630    1.2610    1.1210 hc        1 FM0      0.041700
     26 HALA       -0.8630   -0.1160    1.5290 hc        1 FM0      0.041700
     27 HAM        -2.3530    2.6500    0.8500 hc        1 FM0      0.041700
     28 HAMA       -1.0930    2.7660   -0.1260 hc        1 FM0      0.041700
@<TRIPOS>BOND
     1    1   16 1   
     2    2   18 1   
     3    3   19 1   
     4    4   16 1   
     5    5   17 1   
     6    5   20 1   
     7    6   18 1   
     8    7   18 1   
     9    8   19 1   
    10    9   10 1   
    11   10   17 1   
    12   10   21 1   
    13   10   22 1   
    14   11   12 1   
    15   11   14 1   
    16   11   23 1   
    17   11   24 1   
    18   12   17 1   
    19   12   25 1   
    20   12   26 1   
    21   13   16 1   
    22   13   17 1   
    23   13   27 1   
    24   13   28 1   
    25   14   19 1   
    26   15   18 1   
    27   15   19 1   
@<TRIPOS>SUBSTRUCTURE
     1 FM0         1 TEMP              0 ****  ****    0 ROOT
