@<TRIPOS>MOLECULE
FM1
   35    37     1     0     0
SMALL
bcc


@<TRIPOS>ATOM
      1 N1         -0.1530    0.9680    0.5990 nb        1 FM1     -0.739000
      2 C2          1.1120    1.4710    0.7210 ca        1 FM1      0.650900
      3 N3          2.0960    1.1130    1.5750 nb        1 FM1     -0.686000
      4 C4          1.7370    0.1270    2.4310 ca        1 FM1      0.327000
      5 C5          0.4230   -0.4810    2.4220 ca        1 FM1     -0.341800
      6 C6         -0.5320   -0.0260    1.4520 ca        1 FM1      0.684200
      7 N6         -1.8290   -0.5540    1.4700 nh        1 FM1     -0.831900
      8 N7          0.4410   -1.4880    3.4010 na        1 FM1      0.015900
      9 N8          1.6030   -1.4900    4.0670 nc        1 FM1     -0.472100
     10 C9          2.4390   -0.5850    3.5100 cd        1 FM1      0.210300
     11 C1'         3.8660   -0.3250    3.8460 c3        1 FM1      0.102800
     12 C2'         4.0660    1.1220    4.3610 c3        1 FM1      0.093100
     13 O2'         5.0830    1.7730    3.6280 oh        1 FM1     -0.594800
     14 C3'         4.5470    0.9760    5.8240 c3        1 FM1      0.134100
     15 O3'         5.7870    1.5900    6.0760 oh        1 FM1     -0.575800
     16 C4'         4.5940   -0.5420    6.0790 c3        1 FM1      0.054100
     17 O4'         4.3680   -1.2230    4.8350 os        1 FM1     -0.402600
     18 C5'         3.5330   -0.9870    7.0870 c3        1 FM1      0.124400
     19 O5'         3.4890   -2.3920    7.1990 oh        1 FM1     -0.596800
     20 C66        -2.7710   -0.1650    0.4570 c3        1 FM1      0.177100
     21 H2          1.3570    2.2820    0.0010 h5        1 FM1      0.058100
     22 HN61       -1.8480   -1.5280    1.6950 hn        1 FM1      0.409800
     23 H7         -0.3720   -1.8340    3.8640 hn        1 FM1      0.322700
     24 H1'         4.4890   -0.5160    2.9250 h1        1 FM1      0.099700
     25 H2'         3.1110    1.7090    4.3100 h1        1 FM1      0.068700
     26 HO2'        4.7130    1.9770    2.7590 ho        1 FM1      0.428000
     27 H3'         3.8330    1.4850    6.5290 h1        1 FM1      0.089700
     28 HO3'        6.3880    1.3650    5.3530 ho        1 FM1      0.424000
     29 H4'         5.6140   -0.8750    6.4140 h1        1 FM1      0.095700
     30 H5'1        2.5250   -0.5950    6.7850 h1        1 FM1      0.048700
     31 H5'2        3.7980   -0.6160    8.1120 h1        1 FM1      0.048700
     32 HO5'        3.3600   -2.7440    6.3070 ho        1 FM1      0.419000
     33 H661       -2.8960    0.9500    0.4700 h1        1 FM1      0.050700
     34 H662       -2.4530   -0.4740   -0.5760 h1        1 FM1      0.050700
     35 H663       -3.7550   -0.6470    0.6970 h1        1 FM1      0.050700
@<TRIPOS>BOND
     1    1    2 ar  
     2    1    6 ar  
     3    2    3 ar  
     4    2   21 1   
     5    3    4 ar  
     6    4    5 ar  
     7    4   10 1   
     8    5    6 ar  
     9    5    8 1   
    10    6    7 1   
    11    7   20 1   
    12    7   22 1   
    13    8    9 1   
    14    8   23 1   
    15    9   10 2   
    16   10   11 1   
    17   11   12 1   
    18   11   17 1   
    19   11   24 1   
    20   12   13 1   
    21   12   14 1   
    22   12   25 1   
    23   13   26 1   
    24   14   15 1   
    25   14   16 1   
    26   14   27 1   
    27   15   28 1   
    28   16   17 1   
    29   16   18 1   
    30   16   29 1   
    31   18   19 1   
    32   18   30 1   
    33   18   31 1   
    34   19   32 1   
    35   20   33 1   
    36   20   34 1   
    37   20   35 1   
@<TRIPOS>SUBSTRUCTURE
     1 FM1         1 TEMP              0 ****  ****    0 ROOT
