@<TRIPOS>MOLECULE
FM1
   35    37     1     0     0
SMALL
bcc


@<TRIPOS>ATOM
      1 N1         -0.1520    1.0180    0.6420 nb        1 FM1     -0.739000
      2 C2          1.1230    1.4970    0.7730 ca        1 FM1      0.650900
      3 N3          2.1010    1.1030    1.6170 nb        1 FM1     -0.690000
      4 C4          1.7280    0.1020    2.4510 ca        1 FM1      0.327000
      5 C5          0.4030   -0.4810    2.4310 ca        1 FM1     -0.340800
      6 C6         -0.5460    0.0110    1.4730 ca        1 FM1      0.685200
      7 N6         -1.8510   -0.4940    1.4820 nu        1 FM1     -0.831900
      8 N7          0.4040   -1.5100    3.3880 na        1 FM1      0.015900
      9 N8          1.5670   -1.5480    4.0500 nc        1 FM1     -0.470100
     10 C9          2.4190   -0.6460    3.5110 cd        1 FM1      0.209300
     11 C1'         3.8520   -0.4240    3.8540 c3        1 FM1      0.107800
     12 C2'         4.0880    1.0200    4.3620 c3        1 FM1      0.095100
     13 O2'         4.9800    1.7280    3.5280 oh        1 FM1     -0.601800
     14 C3'         4.7420    0.8620    5.7550 c3        1 FM1      0.134100
     15 O3'         6.1100    1.2060    5.8050 oh        1 FM1     -0.588800
     16 C4'         4.6320   -0.6410    6.0710 c3        1 FM1      0.087100
     17 O4'         4.3130   -1.3330    4.8540 os        1 FM1     -0.399600
     18 C5'         3.5440   -0.9260    7.1070 c3        1 FM1      0.120400
     19 O5'         3.3330   -2.3110    7.2650 oh        1 FM1     -0.596800
     20 C66        -2.7880   -0.0670    0.4790 c3        1 FM1      0.177100
     21 H2          1.3790    2.3200    0.0720 h5        1 FM1      0.058100
     22 HN61       -1.8880   -1.4710    1.6870 hn        1 FM1      0.409800
     23 H7         -0.4130   -1.8580    3.8400 hn        1 FM1      0.322700
     24 H1'         4.4770   -0.6360    2.9380 h1        1 FM1      0.099700
     25 H2'         3.1170    1.5780    4.4450 h1        1 FM1      0.060700
     26 HO2'        4.5330    1.8540    2.6800 ho        1 FM1      0.435000
     27 H3'         4.1880    1.4830    6.5110 h1        1 FM1      0.054700
     28 HO3'        6.2560    1.9540    5.2110 ho        1 FM1      0.430000
     29 H4'         5.6190   -1.0680    6.3990 h1        1 FM1      0.108700
     30 H5'1        2.5840   -0.4250    6.8070 h1        1 FM1      0.046700
     31 H5'2        3.8670   -0.5580    8.1170 h1        1 FM1      0.046700
     32 HO5'        3.1730   -2.6770    6.3830 ho        1 FM1      0.420000
     33 H661       -2.8950    1.0500    0.5170 h1        1 FM1      0.050700
     34 H662       -2.4770   -0.3590   -0.5600 h1        1 FM1      0.050700
     35 H663       -3.7800   -0.5370    0.7100 h1        1 FM1      0.050700
@<TRIPOS>BOND
     1    1    2 ar  
     2    1    6 ar  
     3    2    3 ar  
     4    2   21 1   
     5    3    4 ar  
     6    4    5 ar  
     7    4   10 1   
     8    5    6 ar  
     9    5    8 1   
    10    6    7 1   
    11    7   20 1   
    12    7   22 1   
    13    8    9 1   
    14    8   23 1   
    15    9   10 2   
    16   10   11 1   
    17   11   12 1   
    18   11   17 1   
    19   11   24 1   
    20   12   13 1   
    21   12   14 1   
    22   12   25 1   
    23   13   26 1   
    24   14   15 1   
    25   14   16 1   
    26   14   27 1   
    27   15   28 1   
    28   16   17 1   
    29   16   18 1   
    30   16   29 1   
    31   18   19 1   
    32   18   30 1   
    33   18   31 1   
    34   19   32 1   
    35   20   33 1   
    36   20   34 1   
    37   20   35 1   
@<TRIPOS>SUBSTRUCTURE
     1 FM1         1 TEMP              0 ****  ****    0 ROOT
