@<TRIPOS>MOLECULE
FM1
   36    38     1     0     0
SMALL
bcc


@<TRIPOS>ATOM
      1 N1          0.2230   -0.7240    0.0110 nb        1 FM1     -0.658000
      2 C2          1.5340   -0.3980   -0.0760 ca        1 FM1      0.650900
      3 N3          2.3760   -0.0320    0.9410 nb        1 FM1     -0.567000
      4 C4          1.8210   -0.0220    2.1510 ca        1 FM1      0.365000
      5 C5          0.3970   -0.3570    2.3880 ca        1 FM1     -0.271800
      6 C6         -0.3510   -0.6950    1.2500 ca        1 FM1      0.464200
      7 N6         -1.7890   -1.0300    1.3430 n4        1 FM1     -0.733700
      8 N7          0.1540   -0.1220    3.7480 na        1 FM1      0.008900
      9 N8          1.3050    0.1940    4.3870 nc        1 FM1     -0.439100
     10 C9          2.3130    0.3070    3.5110 cd        1 FM1      0.273300
     11 C1'         3.7540    0.5630    3.8370 c3        1 FM1      0.096800
     12 C2'         3.9600    1.6210    4.9470 c3        1 FM1      0.087100
     13 O2'         4.9230    2.5760    4.5550 oh        1 FM1     -0.578800
     14 C3'         4.5410    0.8360    6.1530 c3        1 FM1      0.142100
     15 O3'         5.8770    1.1630    6.4620 oh        1 FM1     -0.577800
     16 C4'         4.5310   -0.6400    5.7100 c3        1 FM1      0.084100
     17 O4'         4.3230   -0.6670    4.2880 os        1 FM1     -0.390600
     18 C5'         3.4420   -1.4630    6.4020 c3        1 FM1      0.112400
     19 O5'         2.7780   -2.3250    5.4980 oh        1 FM1     -0.607800
     20 C66        -2.6470    0.1290    0.9850 c3        1 FM1      0.084100
     21 H2          1.9780   -0.4310   -1.0980 h5        1 FM1      0.103100
     22 HN61       -1.9900   -1.3330    2.3020 hn        1 FM1      0.465800
     23 H7         -0.5110   -0.6410    4.2890 hn        1 FM1      0.324700
     24 H1'         4.3120    0.8330    2.8960 h1        1 FM1      0.119700
     25 H2'         2.9990    2.1250    5.2270 h1        1 FM1      0.064700
     26 HO2'        4.4830    3.2100    3.9750 ho        1 FM1      0.419000
     27 H3'         3.9020    1.0060    7.0610 h1        1 FM1      0.063700
     28 HO3'        5.9880    2.1190    6.3620 ho        1 FM1      0.435000
     29 H4'         5.5460   -1.1070    5.8550 h1        1 FM1      0.116700
     30 H5'1        2.6260   -0.8130    6.8190 h1        1 FM1      0.059200
     31 H5'2        3.9010   -2.0600    7.2350 h1        1 FM1      0.059200
     32 HO5'        3.4590   -2.8000    5.0040 ho        1 FM1      0.414000
     33 H661       -2.4190    0.9920    1.6660 hx        1 FM1      0.115367
     34 H662       -2.4400    0.4290   -0.0790 hx        1 FM1      0.115367
     35 H663       -3.7240   -0.1730    1.0940 hx        1 FM1      0.115367
     36 H62        -1.9940   -1.8130    0.7030 hn        1 FM1      0.465800
@<TRIPOS>BOND
     1    1    2 ar  
     2    1    6 ar  
     3    2    3 ar  
     4    2   21 1   
     5    3    4 ar  
     6    4    5 ar  
     7    4   10 1   
     8    5    6 ar  
     9    5    8 1   
    10    6    7 1   
    11    7   20 1   
    12    7   22 1   
    13    7   36 1   
    14    8    9 1   
    15    8   23 1   
    16    9   10 2   
    17   10   11 1   
    18   11   12 1   
    19   11   17 1   
    20   11   24 1   
    21   12   13 1   
    22   12   14 1   
    23   12   25 1   
    24   13   26 1   
    25   14   15 1   
    26   14   16 1   
    27   14   27 1   
    28   15   28 1   
    29   16   17 1   
    30   16   18 1   
    31   16   29 1   
    32   18   19 1   
    33   18   30 1   
    34   18   31 1   
    35   19   32 1   
    36   20   33 1   
    37   20   34 1   
    38   20   35 1   
@<TRIPOS>SUBSTRUCTURE
     1 FM1         1 TEMP              0 ****  ****    0 ROOT
