@<TRIPOS>MOLECULE
FM1
   35    37     1     0     0
SMALL
bcc


@<TRIPOS>ATOM
      1 N1         -0.4890   -1.0010    3.9260 nb        1 FM1     -0.737000
      2 C2         -1.1980   -1.7050    2.9920 ca        1 FM1      0.645900
      3 N3         -1.2230   -1.5610    1.6490 nb        1 FM1     -0.660000
      4 C4         -0.4400   -0.5540    1.1960 ca        1 FM1      0.345000
      5 C5          0.3510    0.2780    2.0800 ca        1 FM1     -0.345800
      6 C6          0.3090    0.0130    3.4890 ca        1 FM1      0.677200
      7 N6          1.0180    0.8520    4.3630 nh        1 FM1     -0.829900
      8 N7          1.0720    1.1650    1.2630 na        1 FM1      0.019900
      9 N8          0.7240    1.0190   -0.0210 nc        1 FM1     -0.494100
     10 C9         -0.1380   -0.0180   -0.1400 cd        1 FM1      0.221300
     11 C1'        -0.6860   -0.5690   -1.4110 c3        1 FM1      0.138800
     12 C2'        -1.5170    0.4770   -2.1850 c3        1 FM1      0.088100
     13 O2'        -2.7820   -0.1040   -2.4460 oh        1 FM1     -0.591800
     14 C3'        -0.7500    0.7250   -3.5070 c3        1 FM1      0.090100
     15 O3'        -1.5750    0.4740   -4.6220 oh        1 FM1     -0.590800
     16 C4'         0.4690   -0.2080   -3.4510 c3        1 FM1      0.063100
     17 O4'         0.3790   -1.0090   -2.2630 os        1 FM1     -0.411600
     18 C5'         1.7900    0.5610   -3.4340 c3        1 FM1      0.121400
     19 O5'         2.8900   -0.3190   -3.3490 oh        1 FM1     -0.595800
     20 C66         1.0320    0.5560    5.7690 c3        1 FM1      0.175100
     21 H2         -1.8330   -2.5160    3.4090 h5        1 FM1      0.059100
     22 HN61        1.9100    1.1160    3.9970 hn        1 FM1      0.405800
     23 H7          1.4130    2.0510    1.5650 hn        1 FM1      0.320700
     24 H1'        -1.3000   -1.4880   -1.1860 h1        1 FM1      0.121700
     25 H2'        -1.6450    1.4270   -1.6040 h1        1 FM1      0.066700
     26 HO2'       -3.2770    0.5370   -2.9750 ho        1 FM1      0.418000
     27 H3'        -0.4470    1.8010   -3.6150 h1        1 FM1      0.096700
     28 HO3'       -1.8630   -0.4490   -4.5710 ho        1 FM1      0.418000
     29 H4'         0.4670   -0.9420   -4.3040 h1        1 FM1      0.086700
     30 H5'1        1.9260    1.1080   -4.4050 h1        1 FM1      0.055700
     31 H5'2        1.8100    1.2870   -2.5790 h1        1 FM1      0.055700
     32 HO5'        2.7490   -0.8750   -2.5710 ho        1 FM1      0.416000
     33 H661        1.5950    1.3770    6.2890 h1        1 FM1      0.049700
     34 H662       -0.0210    0.5320    6.1570 h1        1 FM1      0.049700
     35 H663        1.5200   -0.4280    6.0050 h1        1 FM1      0.049700
@<TRIPOS>BOND
     1    1    2 ar  
     2    1    6 ar  
     3    2    3 ar  
     4    2   21 1   
     5    3    4 ar  
     6    4    5 ar  
     7    4   10 1   
     8    5    6 ar  
     9    5    8 1   
    10    6    7 1   
    11    7   20 1   
    12    7   22 1   
    13    8    9 1   
    14    8   23 1   
    15    9   10 2   
    16   10   11 1   
    17   11   12 1   
    18   11   17 1   
    19   11   24 1   
    20   12   13 1   
    21   12   14 1   
    22   12   25 1   
    23   13   26 1   
    24   14   15 1   
    25   14   16 1   
    26   14   27 1   
    27   15   28 1   
    28   16   17 1   
    29   16   18 1   
    30   16   29 1   
    31   18   19 1   
    32   18   30 1   
    33   18   31 1   
    34   19   32 1   
    35   20   33 1   
    36   20   34 1   
    37   20   35 1   
@<TRIPOS>SUBSTRUCTURE
     1 FM1         1 TEMP              0 ****  ****    0 ROOT
