@<TRIPOS>MOLECULE
FM2
   37    39     1     0     0
SMALL
bcc


@<TRIPOS>ATOM
      1 N1          0.0240   -0.4260    0.2630 na        1 FM2     -0.094900
      2 C2          1.3700   -0.1970    0.0830 ca        1 FM2      0.573400
      3 N3          2.2470    0.2200    1.0370 nb        1 FM2     -0.516000
      4 C4          1.7580    0.4130    2.2510 ca        1 FM2      0.440000
      5 C5          0.2980    0.2000    2.5720 ca        1 FM2     -0.129500
      6 C6         -0.5410   -0.2190    1.5290 ca        1 FM2     -0.030700
      7 N6         -1.9720   -0.4480    1.7710 n4        1 FM2     -0.710000
      8 N7          0.1590    0.5350    3.9000 na        1 FM2      0.022900
      9 N8          1.3410    0.8790    4.4630 nc        1 FM2     -0.377100
     10 C9          2.3280    0.8400    3.5540 cd        1 FM2      0.326300
     11 C1'         3.8030    1.0260    3.7900 c3        1 FM2      0.077800
     12 C2'         4.1410    1.9780    4.9680 c3        1 FM2      0.105100
     13 O2'         5.0380    2.9680    4.5460 oh        1 FM2     -0.568800
     14 C3'         4.7320    1.0480    6.0640 c3        1 FM2      0.095100
     15 O3'         6.1090    1.3140    6.2190 oh        1 FM2     -0.578800
     16 C4'         4.6030   -0.3790    5.4990 c3        1 FM2      0.082100
     17 O4'         4.3420   -0.2560    4.0860 os        1 FM2     -0.389600
     18 C5'         3.4690   -1.1770    6.1490 c3        1 FM2      0.108400
     19 O5'         2.6670   -1.8010    5.1620 oh        1 FM2     -0.628800
     20 C11        -0.7930   -0.8720   -0.8580 c3        1 FM2     -0.060400
     21 H2          1.7990   -0.3690   -0.9420 h5        1 FM2      0.144100
     22 HN61       -2.1100   -1.4030    2.1460 hn        1 FM2      0.494800
     23 HN62       -2.3130    0.2420    2.4590 hn        1 FM2      0.494800
     24 H7         -0.6290    0.4070    4.5060 hn        1 FM2      0.371700
     25 H1'         4.2890    1.3670    2.8320 h1        1 FM2      0.129700
     26 H2'         3.2450    2.5430    5.3380 h1        1 FM2      0.101700
     27 HO2'        5.9260    2.5770    4.4740 ho        1 FM2      0.441000
     28 H3'         4.1820    1.1690    7.0330 h1        1 FM2      0.082700
     29 HO3'        6.1980    2.0600    6.8290 ho        1 FM2      0.438000
     30 H4'         5.5850   -0.9290    5.5550 h1        1 FM2      0.132700
     31 H5'1        2.7580   -0.5150    6.7130 h1        1 FM2      0.072200
     32 H5'2        3.8980   -1.9400    6.8510 h1        1 FM2      0.072200
     33 HO5'        3.2310   -2.4390    4.7060 ho        1 FM2      0.420000
     34 H111       -0.1410   -1.0370   -1.7650 h1        1 FM2      0.121033
     35 H112       -1.2880   -1.8510   -0.6090 h1        1 FM2      0.121033
     36 H113       -1.5530   -0.0840   -1.1180 h1        1 FM2      0.121033
     37 H63        -2.5310   -0.3450    0.9090 hn        1 FM2      0.494800
@<TRIPOS>BOND
     1    1    2 1   
     2    1    6 2   
     3    1   20 1   
     4    2    3 ar  
     5    2   21 1   
     6    3    4 ar  
     7    4    5 ar  
     8    4   10 1   
     9    5    6 ar  
    10    5    8 1   
    11    6    7 1   
    12    7   22 1   
    13    7   23 1   
    14    7   37 1   
    15    8    9 1   
    16    8   24 1   
    17    9   10 2   
    18   10   11 1   
    19   11   12 1   
    20   11   17 1   
    21   11   25 1   
    22   12   13 1   
    23   12   14 1   
    24   12   26 1   
    25   13   27 1   
    26   14   15 1   
    27   14   16 1   
    28   14   28 1   
    29   15   29 1   
    30   16   17 1   
    31   16   18 1   
    32   16   30 1   
    33   18   19 1   
    34   18   31 1   
    35   18   32 1   
    36   19   33 1   
    37   20   34 1   
    38   20   35 1   
    39   20   36 1   
@<TRIPOS>SUBSTRUCTURE
     1 FM2         1 TEMP              0 ****  ****    0 ROOT
