@<TRIPOS>MOLECULE
FM2
   36    38     1     0     0
SMALL
bcc


@<TRIPOS>ATOM
      1 N1         -0.1230   -0.0930    0.0740 na        1 FM2     -0.221900
      2 C2          1.2710    0.1060   -0.0620 ca        1 FM2      0.532400
      3 N3          2.1470    0.2400    0.9130 nb        1 FM2     -0.576000
      4 C4          1.6450    0.1760    2.1840 ca        1 FM2      0.370000
      5 C5          0.2290   -0.0210    2.4410 ca        1 FM2     -0.293500
      6 C6         -0.6900   -0.1620    1.3440 ca        1 FM2      0.234500
      7 N6         -2.0210   -0.3480    1.5480 nh        1 FM2     -0.389200
      8 N7          0.0860   -0.0250    3.8300 na        1 FM2      0.051900
      9 N8          1.2530    0.1320    4.4410 nc        1 FM2     -0.433100
     10 C9          2.2410    0.2650    3.5080 cd        1 FM2      0.271300
     11 C1'         3.7010    0.4210    3.7860 c3        1 FM2      0.090800
     12 C2'         4.0210    1.6770    4.6280 c3        1 FM2      0.094100
     13 O2'         4.8460    2.5720    3.9240 oh        1 FM2     -0.581800
     14 C3'         4.7080    1.1370    5.9060 c3        1 FM2      0.086100
     15 O3'         6.0550    1.5660    5.9530 oh        1 FM2     -0.583800
     16 C4'         4.7210   -0.3950    5.7630 c3        1 FM2      0.131100
     17 O4'         4.1710   -0.7330    4.4790 os        1 FM2     -0.385600
     18 C5'         3.9060   -1.0700    6.8650 c3        1 FM2      0.121400
     19 O5'         4.2460   -2.4450    6.8400 oh        1 FM2     -0.584800
     20 C11        -0.9420   -0.2270   -1.1130 c3        1 FM2     -0.022400
     21 H2          1.6450    0.1490   -1.1120 h5        1 FM2      0.099100
     22 HN61       -2.6650   -0.4500    0.7960 hn        1 FM2      0.321200
     23 HN62       -2.3740   -0.3910    2.4760 hn        1 FM2      0.321200
     24 H7         -0.7440   -0.1770    4.3610 hn        1 FM2      0.351700
     25 H1'         4.2510    0.4460    2.8000 h1        1 FM2      0.108700
     26 H2'         3.1000    2.2700    4.8710 h1        1 FM2      0.094700
     27 HO2'        5.7190    2.1610    3.8220 ho        1 FM2      0.429000
     28 H3'         4.1570    1.4680    6.8250 h1        1 FM2      0.067700
     29 HO3'        6.0450    2.5140    6.1470 ho        1 FM2      0.424000
     30 H4'         5.7720   -0.8020    5.7550 h1        1 FM2      0.120700
     31 H5'1        4.1750   -0.6170    7.8570 h1        1 FM2      0.034700
     32 H5'2        2.8060   -0.9460    6.6790 h1        1 FM2      0.034700
     33 HO5'        3.8640   -2.8390    7.6340 ho        1 FM2      0.408000
     34 H111       -1.7110    0.5920   -1.1450 h1        1 FM2      0.090700
     35 H112       -0.2970   -0.1460   -2.0310 h1        1 FM2      0.090700
     36 H113       -1.4480   -1.2310   -1.1210 h1        1 FM2      0.090700
@<TRIPOS>BOND
     1    1    2 1   
     2    1    6 2   
     3    1   20 1   
     4    2    3 ar  
     5    2   21 1   
     6    3    4 ar  
     7    4    5 ar  
     8    4   10 1   
     9    5    6 ar  
    10    5    8 1   
    11    6    7 1   
    12    7   22 1   
    13    7   23 1   
    14    8    9 1   
    15    8   24 1   
    16    9   10 2   
    17   10   11 1   
    18   11   12 1   
    19   11   17 1   
    20   11   25 1   
    21   12   13 1   
    22   12   14 1   
    23   12   26 1   
    24   13   27 1   
    25   14   15 1   
    26   14   16 1   
    27   14   28 1   
    28   15   29 1   
    29   16   17 1   
    30   16   18 1   
    31   16   30 1   
    32   18   19 1   
    33   18   31 1   
    34   18   32 1   
    35   19   33 1   
    36   20   34 1   
    37   20   35 1   
    38   20   36 1   
@<TRIPOS>SUBSTRUCTURE
     1 FM2         1 TEMP              0 ****  ****    0 ROOT
