@<TRIPOS>MOLECULE
FM2
   36    38     1     0     0
SMALL
bcc


@<TRIPOS>ATOM
      1 N1          4.1010    0.4370    0.4130 na        1 FM2     -0.221900
      2 C2          3.2340    1.4050    0.9730 ca        1 FM2      0.532400
      3 N3          1.9170    1.3990    0.9360 nb        1 FM2     -0.576000
      4 C4          1.3390    0.3420    0.2870 ca        1 FM2      0.368000
      5 C5          2.1330   -0.7100   -0.3240 ca        1 FM2     -0.294500
      6 C6          3.5690   -0.6600   -0.2590 ca        1 FM2      0.234500
      7 N6          4.3420   -1.6270   -0.8210 nh        1 FM2     -0.389200
      8 N7          1.2200   -1.6040   -0.8870 na        1 FM2      0.052900
      9 N8         -0.0320   -1.2180   -0.6810 nc        1 FM2     -0.429100
     10 C9         -0.0370   -0.0450    0.0200 cd        1 FM2      0.267300
     11 C1'        -1.2470    0.7100    0.4640 c3        1 FM2      0.093800
     12 C2'        -2.0570    1.2760   -0.7290 c3        1 FM2      0.098100
     13 O2'        -2.0740    2.6810   -0.7130 oh        1 FM2     -0.581800
     14 C3'        -3.4710    0.6660   -0.5760 c3        1 FM2      0.087100
     15 O3'        -4.3980    1.6810   -0.2420 oh        1 FM2     -0.589800
     16 C4'        -3.3840   -0.2930    0.6230 c3        1 FM2      0.093100
     17 O4'        -2.0920   -0.1440    1.2340 os        1 FM2     -0.396600
     18 C5'        -3.5630   -1.7570    0.2120 c3        1 FM2      0.115400
     19 O5'        -4.7480   -1.9350   -0.5310 oh        1 FM2     -0.589800
     20 C11         5.5330    0.6020    0.5490 c3        1 FM2     -0.022400
     21 H2          3.7400    2.2510    1.4950 h5        1 FM2      0.099100
     22 HN61        3.9100   -2.3890   -1.2900 hn        1 FM2      0.321200
     23 HN62        5.3360   -1.6020   -0.7810 hn        1 FM2      0.321200
     24 H7          1.4110   -2.4590   -1.3640 hn        1 FM2      0.352700
     25 H1'        -0.9180    1.5380    1.1570 h1        1 FM2      0.108700
     26 H2'        -1.5950    1.0050   -1.7160 h1        1 FM2      0.094700
     27 HO2'       -2.6350    2.9680    0.0240 ho        1 FM2      0.429000
     28 H3'        -3.7890    0.1210   -1.5040 h1        1 FM2      0.091700
     29 HO3'       -4.6210    2.1420   -1.0620 ho        1 FM2      0.425000
     30 H4'        -4.1300   -0.0060    1.4160 h1        1 FM2      0.099700
     31 H5'1       -2.7390   -2.0810   -0.4790 h1        1 FM2      0.061200
     32 H5'2       -3.5560   -2.4030    1.1290 h1        1 FM2      0.061200
     33 HO5'       -5.4930   -1.7670    0.0610 ho        1 FM2      0.411000
     34 H111        5.9700   -0.2680    1.1120 h1        1 FM2      0.091033
     35 H112        6.0100    0.6810   -0.4670 h1        1 FM2      0.091033
     36 H113        5.7560    1.5440    1.1200 h1        1 FM2      0.091033
@<TRIPOS>BOND
     1    1    2 1   
     2    1    6 2   
     3    1   20 1   
     4    2    3 ar  
     5    2   21 1   
     6    3    4 ar  
     7    4    5 ar  
     8    4   10 1   
     9    5    6 ar  
    10    5    8 1   
    11    6    7 1   
    12    7   22 1   
    13    7   23 1   
    14    8    9 1   
    15    8   24 1   
    16    9   10 2   
    17   10   11 1   
    18   11   12 1   
    19   11   17 1   
    20   11   25 1   
    21   12   13 1   
    22   12   14 1   
    23   12   26 1   
    24   13   27 1   
    25   14   15 1   
    26   14   16 1   
    27   14   28 1   
    28   15   29 1   
    29   16   17 1   
    30   16   18 1   
    31   16   30 1   
    32   18   19 1   
    33   18   31 1   
    34   18   32 1   
    35   19   33 1   
    36   20   34 1   
    37   20   35 1   
    38   20   36 1   
@<TRIPOS>SUBSTRUCTURE
     1 FM2         1 TEMP              0 ****  ****    0 ROOT
