@<TRIPOS>MOLECULE
FM2
   36    38     1     0     0
SMALL
bcc


@<TRIPOS>ATOM
      1 N1         -0.1220   -0.1030    0.0730 na        1 FM2     -0.221900
      2 C2          1.2700    0.1080   -0.0620 ca        1 FM2      0.532400
      3 N3          2.1450    0.2480    0.9130 nb        1 FM2     -0.576000
      4 C4          1.6440    0.1750    2.1840 ca        1 FM2      0.370000
      5 C5          0.2300   -0.0350    2.4410 ca        1 FM2     -0.293500
      6 C6         -0.6880   -0.1810    1.3430 ca        1 FM2      0.234500
      7 N6         -2.0170   -0.3790    1.5470 nv        1 FM2     -0.389200
      8 N7          0.0870   -0.0440    3.8290 na        1 FM2      0.051900
      9 N8          1.2530    0.1210    4.4410 nc        1 FM2     -0.433100
     10 C9          2.2390    0.2660    3.5080 cd        1 FM2      0.271300
     11 C1'         3.6980    0.4340    3.7860 c3        1 FM2      0.090800
     12 C2'         4.0070    1.6900    4.6320 c3        1 FM2      0.094100
     13 O2'         4.8240    2.5950    3.9320 oh        1 FM2     -0.581800
     14 C3'         4.6990    1.1520    5.9080 c3        1 FM2      0.086100
     15 O3'         6.0420    1.5930    5.9570 oh        1 FM2     -0.583800
     16 C4'         4.7260   -0.3790    5.7600 c3        1 FM2      0.131100
     17 O4'         4.1790   -0.7180    4.4750 os        1 FM2     -0.385600
     18 C5'         3.9160   -1.0660    6.8600 c3        1 FM2      0.121400
     19 O5'         4.2680   -2.4370    6.8300 oh        1 FM2     -0.584800
     20 C11        -0.9400   -0.2410   -1.1140 c3        1 FM2     -0.022400
     21 H2          1.6430    0.1590   -1.1120 h5        1 FM2      0.099100
     22 HN61       -2.3690   -0.4280    2.4750 hn        1 FM2      0.321200
     23 HN62       -2.6600   -0.4860    0.7950 hn        1 FM2      0.321200
     24 H7         -0.7420   -0.2050    4.3610 hn        1 FM2      0.351700
     25 H1'         4.2470    0.4680    2.8010 h1        1 FM2      0.108700
     26 H2'         3.0810    2.2740    4.8770 h1        1 FM2      0.094700
     27 HO2'        5.7000    2.1920    3.8280 ho        1 FM2      0.429000
     28 H3'         4.1450    1.4750    6.8280 h1        1 FM2      0.067700
     29 HO3'        6.0230    2.5390    6.1540 ho        1 FM2      0.424000
     30 H4'         5.7810   -0.7770    5.7510 h1        1 FM2      0.120700
     31 H5'1        2.8160   -0.9510    6.6750 h1        1 FM2      0.034700
     32 H5'2        4.1820   -0.6140    7.8540 h1        1 FM2      0.034700
     33 HO5'        3.8910   -2.8370    7.6230 ho        1 FM2      0.408000
     34 H111       -0.2970   -0.1520   -2.0310 h1        1 FM2      0.090700
     35 H112       -1.4370   -1.2500   -1.1240 h1        1 FM2      0.090700
     36 H113       -1.7170    0.5710   -1.1430 h1        1 FM2      0.090700
@<TRIPOS>BOND
     1    1    2 1   
     2    1    6 2   
     3    1   20 1   
     4    2    3 ar  
     5    2   21 1   
     6    3    4 ar  
     7    4    5 ar  
     8    4   10 1   
     9    5    6 ar  
    10    5    8 1   
    11    6    7 1   
    12    7   22 1   
    13    7   23 1   
    14    8    9 1   
    15    8   24 1   
    16    9   10 2   
    17   10   11 1   
    18   11   12 1   
    19   11   17 1   
    20   11   25 1   
    21   12   13 1   
    22   12   14 1   
    23   12   26 1   
    24   13   27 1   
    25   14   15 1   
    26   14   16 1   
    27   14   28 1   
    28   15   29 1   
    29   16   17 1   
    30   16   18 1   
    31   16   30 1   
    32   18   19 1   
    33   18   31 1   
    34   18   32 1   
    35   19   33 1   
    36   20   34 1   
    37   20   35 1   
    38   20   36 1   
@<TRIPOS>SUBSTRUCTURE
     1 FM2         1 TEMP              0 ****  ****    0 ROOT
