@<TRIPOS>MOLECULE
FM2
   36    31     1     0     0
SMALL
bcc


@<TRIPOS>ATOM
      1 N1         -1.9670    0.2500   -3.5630 n2        1 FM2     -0.177000
      2 C2         -0.6020    0.2400   -3.5700 c1        1 FM2      0.044000
      3 N3          0.0950    0.2400   -2.3830 n1        1 FM2     -0.050000
      4 C4         -0.5740    0.2500   -1.2040 c1        1 FM2     -0.087000
      5 C5         -1.9350    0.2590   -1.1970 c1        1 FM2     -0.087000
      6 C6         -2.6350    0.2600   -2.3950 c1        1 FM2      0.304000
      7 N6         -4.0650    0.2260   -2.4130 n3        1 FM2     -0.335000
      8 N7         -2.3530    0.2680    0.1180 n1        1 FM2     -0.122000
      9 N8         -1.2270    0.2640    0.9270 n2        1 FM2      0.038000
     10 C9         -0.1360    0.2530    0.1260 c1        1 FM2     -0.066000
     11 C1'         1.2250   -0.0700    0.7230 c2        1 FM2      0.058000
     12 C2'         1.6970    0.9810    1.3900 c3        1 FM2     -0.013000
     13 O2'         2.5940    1.7690    0.5250 oh        1 FM2     -0.309000
     14 C3'         2.4940    0.3830    2.5720 c3        1 FM2     -0.024000
     15 O3'         3.8090    0.5320    2.3590 oh        1 FM2     -0.317000
     16 C4'         2.1180   -1.1520    2.6100 c3        1 FM2     -0.018000
     17 O4'         1.0910   -1.2720    1.8050 os        1 FM2     -0.253000
     18 C5'         1.7310   -1.5610    4.0010 c3        1 FM2     -0.035000
     19 O5'         1.6640   -3.0060    4.0750 oh        1 FM2     -0.317000
     20 C11        -2.4780    0.4100   -4.9360 c3        1 FM2     -0.121000
     21 H2         -0.1390    0.2340   -4.3830 ha        1 FM2      0.236000
     22 HN61       -4.5500    0.3500   -1.6120 hn        1 FM2      0.271500
     23 HN62       -4.5090    0.0640   -3.1960 hn        1 FM2      0.271500
     24 H7         -3.2420    0.2750    0.4120 DU        1 FM2      0.303000
     25 H1'         1.8730   -0.3320   -0.0120 h4        1 FM2      0.148000
     26 H2'         0.9940    1.5120    1.7050 h1        1 FM2      0.134000
     27 HO2'        2.4410    2.6470    0.6520 ho        1 FM2      0.228000
     28 H3'         2.2260    0.8330    3.4410 h1        1 FM2      0.131000
     29 HO3'        4.2160    0.9180    3.1280 ho        1 FM2      0.224000
     30 H4'         2.8670   -1.6930    2.2930 h1        1 FM2      0.139000
     31 H5'1        2.4010   -1.2300    4.6390 h1        1 FM2      0.100500
     32 H5'2        0.8540   -1.1830    4.2200 h1        1 FM2      0.100500
     33 HO5'        1.8090   -3.2580    4.8820 ho        1 FM2      0.210000
     34 H111       -3.4090    0.7890   -4.9050 h1        1 FM2      0.130333
     35 H112       -1.8830    1.0300   -5.4430 h1        1 FM2      0.130333
     36 H113       -2.4950   -0.4810   -5.3910 h1        1 FM2      0.130333
@<TRIPOS>BOND
     1    1    6 1   
     2    1   20 1   
     3    2    3 1   
     4    2   21 1   
     5    4    5 1   
     6    6    7 1   
     7    7   22 1   
     8    7   23 1   
     9    8    9 1   
    10    9   10 1   
    11   11   12 1   
    12   11   17 1   
    13   11   25 1   
    14   12   13 1   
    15   12   14 1   
    16   12   26 1   
    17   13   27 1   
    18   14   15 1   
    19   14   16 1   
    20   14   28 1   
    21   15   29 1   
    22   16   17 1   
    23   16   18 1   
    24   16   30 1   
    25   18   19 1   
    26   18   31 1   
    27   18   32 1   
    28   19   33 1   
    29   20   34 1   
    30   20   35 1   
    31   20   36 1   
@<TRIPOS>SUBSTRUCTURE
     1 FM2         1 TEMP              0 ****  ****    0 ROOT
