@<TRIPOS>MOLECULE
FM4
   17    17     1     0     0
SMALL
bcc


@<TRIPOS>ATOM
      1 O          -0.1740   -0.4680    0.3710 os        1 FM4     -0.457600
      2 P           1.3260   -2.4200   -0.7570 p5        1 FM4      1.482600
      3 C1          1.0540   -0.7370   -0.3280 cx        1 FM4     -0.050100
      4 C2          1.0560   -0.0860    1.0070 cx        1 FM4      0.071100
      5 O2          4.4350   -3.0640   -3.2930 o         1 FM4     -0.968167
      6 P2          4.1800   -1.8880   -2.3870 p5        1 FM4      1.461900
      7 C3          1.4030   -0.7810    2.2810 c3        1 FM4     -0.110100
      8 O3          5.2100   -1.7100   -1.3020 o         1 FM4     -0.968167
      9 O4          3.8120   -0.6090   -3.0950 o         1 FM4     -0.968167
     10 O1P         0.1710   -2.7750   -1.6370 o         1 FM4     -0.938500
     11 O2P         2.6930   -2.2890   -1.5230 os        1 FM4     -0.823800
     12 O3P         1.4270   -3.2080    0.5160 o         1 FM4     -0.938500
     13 H1          1.2310   -0.0730   -1.2000 h1        1 FM4      0.081700
     14 H2          1.1830    1.0180    1.0580 h1        1 FM4      0.001700
     15 H3          2.3960   -0.4290    2.6460 hc        1 FM4      0.041033
     16 H3A         0.6360   -0.5740    3.0670 hc        1 FM4      0.041033
     17 H3B         1.4530   -1.8920    2.0650 hc        1 FM4      0.041033
@<TRIPOS>BOND
     1    1    3 1   
     2    1    4 1   
     3    2    3 1   
     4    2   10 1   
     5    2   11 1   
     6    2   12 1   
     7    3    4 1   
     8    3   13 1   
     9    4    7 1   
    10    4   14 1   
    11    5    6 1   
    12    6    8 1   
    13    6    9 1   
    14    6   11 1   
    15    7   15 1   
    16    7   16 1   
    17    7   17 1   
@<TRIPOS>SUBSTRUCTURE
     1 FM4         1 TEMP              0 ****  ****    0 ROOT
