@<TRIPOS>MOLECULE
FM4
   17    17     1     0     0
SMALL
bcc


@<TRIPOS>ATOM
      1 O           3.1480    1.0320    0.5670 os        1 FM4     -0.457600
      2 P           0.7980   -0.1120    1.2760 p5        1 FM4      1.482600
      3 C1          1.8000    0.7750    0.1360 cx        1 FM4     -0.050100
      4 C2          2.9660    0.3140   -0.6620 cx        1 FM4      0.071100
      5 O2         -3.1540   -0.2460    0.3430 o         1 FM4     -0.968167
      6 P2         -1.9770    0.0100   -0.5600 p5        1 FM4      1.461900
      7 C3          3.4530   -1.0960   -0.7000 c3        1 FM4     -0.110100
      8 O3         -1.7750   -1.0380   -1.6230 o         1 FM4     -0.968167
      9 O4         -1.8610    1.4250   -1.0680 o         1 FM4     -0.968167
     10 O1P         0.7670    0.7490    2.4980 o         1 FM4     -0.938500
     11 O2P        -0.5590   -0.1390    0.4820 os        1 FM4     -0.823800
     12 O3P         1.4090   -1.4690    1.4650 o         1 FM4     -0.938500
     13 H1          1.2700    1.6730   -0.2430 h1        1 FM4      0.081700
     14 H2          3.2680    0.9080   -1.5520 h1        1 FM4      0.001700
     15 H3          2.9200   -1.6680    0.1200 hc        1 FM4      0.041033
     16 H3A         3.2120   -1.5550   -1.6880 hc        1 FM4      0.041033
     17 H3B         4.5590   -1.1370   -0.5440 hc        1 FM4      0.041033
@<TRIPOS>BOND
     1    1    3 1   
     2    1    4 1   
     3    2    3 1   
     4    2   10 1   
     5    2   11 1   
     6    2   12 1   
     7    3    4 1   
     8    3   13 1   
     9    4    7 1   
    10    4   14 1   
    11    5    6 1   
    12    6    8 1   
    13    6    9 1   
    14    6   11 1   
    15    7   15 1   
    16    7   16 1   
    17    7   17 1   
@<TRIPOS>SUBSTRUCTURE
     1 FM4         1 TEMP              0 ****  ****    0 ROOT
