@<TRIPOS>MOLECULE
FM4
   17    17     1     0     0
SMALL
bcc


@<TRIPOS>ATOM
      1 O          -0.2000   -0.4500    0.3390 os        1 FM4     -0.457600
      2 P           1.3080   -2.4130   -0.7570 p5        1 FM4      1.482600
      3 C1          1.0310   -0.7250   -0.3520 cx        1 FM4     -0.050100
      4 C2          1.0260   -0.0560    0.9750 cx        1 FM4      0.071100
      5 O2          4.4260   -3.0830   -3.2760 o         1 FM4     -0.968167
      6 P2          4.1660   -1.8970   -2.3840 p5        1 FM4      1.461900
      7 C3          1.3700   -0.7340    2.2590 c3        1 FM4     -0.110100
      8 O3          5.1930   -1.7030   -1.2990 o         1 FM4     -0.968167
      9 O4          3.7980   -0.6260   -3.1080 o         1 FM4     -0.968167
     10 O1P         0.1560   -2.7830   -1.6370 o         1 FM4     -0.938500
     11 O2P         2.6770   -2.2890   -1.5210 os        1 FM4     -0.823800
     12 O3P         1.4060   -3.1840    0.5260 o         1 FM4     -0.938500
     13 H1          1.2100   -0.0730   -1.2310 h1        1 FM4      0.081700
     14 H2          1.1520    1.0490    1.0120 h1        1 FM4      0.001700
     15 H3          2.3610   -0.3760    2.6240 hc        1 FM4      0.041033
     16 H3A         1.4240   -1.8480    2.0580 hc        1 FM4      0.041033
     17 H3B         0.6000   -0.5190    3.0390 hc        1 FM4      0.041033
@<TRIPOS>BOND
     1    1    3 1   
     2    1    4 1   
     3    2    3 1   
     4    2   10 1   
     5    2   11 1   
     6    2   12 1   
     7    3    4 1   
     8    3   13 1   
     9    4    7 1   
    10    4   14 1   
    11    5    6 1   
    12    6    8 1   
    13    6    9 1   
    14    6   11 1   
    15    7   15 1   
    16    7   16 1   
    17    7   17 1   
@<TRIPOS>SUBSTRUCTURE
     1 FM4         1 TEMP              0 ****  ****    0 ROOT
