@<TRIPOS>MOLECULE
FM4
   17    15     1     0     0
SMALL
bcc


@<TRIPOS>ATOM
      1 O          -0.8680   -2.3020    1.0840 os        1 FM4     -0.381000
      2 P           0.3650    0.2790   -0.3920 p3        1 FM4      2.729000
      3 C1         -0.8270   -1.2360   -0.0250 cx        1 FM4     -0.399000
      4 C2         -1.7580   -1.1250    1.1650 cx        1 FM4     -0.116000
      5 O2          2.2930    0.9620   -3.8310 o         1 FM4     -1.243500
      6 P2          2.2810    0.9440   -2.3190 p3        1 FM4      2.580000
      7 C3         -1.3860   -0.1090    2.1790 c3        1 FM4     -0.167000
      8 O3          2.1540    2.3590   -1.8000 os        1 FM4     -1.229500
      9 O4          3.5690    0.3350   -1.8130 o         1 FM4     -1.243500
     10 O1P         1.4300    0.3540    0.6790 os        1 FM4     -1.229500
     11 O2P         1.0520    0.0810   -1.8100 os        1 FM4     -1.191000
     12 O3P        -0.4380    1.5620   -0.3960 o         1 FM4     -1.233000
     13 H1         -1.2500   -1.1540   -0.9050 h1        1 FM4      0.004000
     14 H2         -2.7060   -1.2970    0.9780 h1        1 FM4     -0.012000
     15 H3         -0.4290   -0.1880    2.3850 hc        1 FM4      0.044000
     16 H3A        -1.5710    0.7890    1.8260 hc        1 FM4      0.044000
     17 H3B        -1.9110   -0.2550    2.9970 hc        1 FM4      0.044000
@<TRIPOS>BOND
     1    1    3 1   
     2    1    4 1   
     3    2    3 1   
     4    2   11 1   
     5    2   12 1   
     6    3    4 1   
     7    3   13 1   
     8    4    7 1   
     9    4   14 1   
    10    5    6 1   
    11    6    9 1   
    12    6   11 1   
    13    7   15 1   
    14    7   16 1   
    15    7   17 1   
@<TRIPOS>SUBSTRUCTURE
     1 FM4         1 TEMP              0 ****  ****    0 ROOT
