@<TRIPOS>MOLECULE
FM5
   33    32     1     0     0
SMALL
bcc


@<TRIPOS>ATOM
      1 Cl2         0.1920   -0.3990    1.0050 cl        1 FM5     -0.113400
      2 C9          1.8130   -0.2480    0.5050 ca        1 FM5     -0.002600
      3 C10         2.8000    0.0180    1.4600 ca        1 FM5     -0.120000
      4 C11         4.1270    0.1600    1.0730 ca        1 FM5     -0.108000
      5 C8          2.1790   -0.3850   -0.8390 ca        1 FM5      0.023400
      6 Cl1         1.0090   -0.7120   -2.0340 cl        1 FM5     -0.108400
      7 C7          3.5150   -0.2480   -1.2240 ca        1 FM5     -0.128000
      8 C6          4.5130    0.0260   -0.2760 ca        1 FM5      0.010700
      9 C4          5.9260    0.2220   -0.6500 c3        1 FM5     -0.246600
     10 PA1         6.8590   -1.2460   -0.6190 p5        1 FM5      1.333600
     11 OP1         6.7260   -1.9810   -1.8960 o         1 FM5     -0.845000
     12 OP2         8.3770   -0.5980   -0.7920 oh        1 FM5     -0.810400
     13 OP3         6.7820   -1.8400    0.7280 o         1 FM5     -0.845000
     14 C3          6.1580    0.7940   -2.0260 c3        1 FM5     -0.174700
     15 C2          5.5750    2.1620   -2.1950 c2        1 FM5      0.449200
     16 N1          6.1770    3.2900   -2.2250 n2        1 FM5     -0.810100
     17 O2          8.9660    2.1460   -1.2180 oh        1 FM5     -0.622100
     18 C1          9.9440    3.0670   -1.0540 c         1 FM5      0.632100
     19 O1         10.9900    2.7170   -0.4950 o         1 FM5     -0.570000
     20 C5          9.5960    4.4110   -1.5960 c3        1 FM5     -0.157100
     21 H10         2.5250    0.1130    2.5210 ha        1 FM5      0.137000
     22 H11         4.8970    0.3480    1.8380 ha        1 FM5      0.154000
     23 H7          3.7850   -0.3770   -2.2840 ha        1 FM5      0.159000
     24 H4          6.3990    0.9100    0.1040 hc        1 FM5      0.088700
     25 H31C        7.2740    0.8180   -2.1940 hc        1 FM5      0.078700
     26 H32C        5.7380    0.0880   -2.7940 hc        1 FM5      0.078700
     27 H21C        4.4680    2.1800   -2.2930 h4        1 FM5     -0.000200
     28 H22C        8.8520   -1.0170   -1.5010 ho        1 FM5      0.428000
     29 H51C        8.6990    4.8080   -1.0600 hc        1 FM5      0.070700
     30 H52C       10.4570    5.1070   -1.4570 hc        1 FM5      0.070700
     31 H53C        9.3500    4.3260   -2.6820 hc        1 FM5      0.070700
     32 HO2C        9.2160    1.2840   -0.8220 ho        1 FM5      0.495000
     33 H111        7.1720    3.2520   -2.1170 hn        1 FM5      0.380400
@<TRIPOS>BOND
     1    1    2 1   
     2    2    3 ar  
     3    2    5 ar  
     4    3    4 ar  
     5    3   21 1   
     6    4    8 ar  
     7    4   22 1   
     8    5    6 1   
     9    5    7 ar  
    10    7    8 ar  
    11    7   23 1   
    12    8    9 1   
    13    9   10 1   
    14    9   14 1   
    15    9   24 1   
    16   10   11 1   
    17   10   12 1   
    18   10   13 1   
    19   12   28 1   
    20   14   15 1   
    21   14   25 1   
    22   14   26 1   
    23   15   16 2   
    24   15   27 1   
    25   16   33 1   
    26   17   18 1   
    27   17   32 1   
    28   18   19 2   
    29   18   20 1   
    30   20   29 1   
    31   20   30 1   
    32   20   31 1   
@<TRIPOS>SUBSTRUCTURE
     1 FM5         1 TEMP              0 ****  ****    0 ROOT
