@<TRIPOS>MOLECULE
FM5
   32    30     1     0     0
SMALL
bcc


@<TRIPOS>ATOM
      1 CL2        -6.1520   -0.9800    0.5540 cl        1 FM5     -0.095000
      2 C9         -4.4080   -1.0560    0.5550 c2        1 FM5     -0.257000
      3 C10        -3.7050   -0.8620    1.7400 c2        1 FM5     -0.052000
      4 C11        -2.3110   -0.8650    1.7310 c1        1 FM5     -0.262000
      5 C8         -3.7230   -1.2530   -0.6330 c1        1 FM5      0.046000
      6 CL1        -4.6070   -1.6050   -2.0990 cl        1 FM5     -0.105000
      7 C7         -2.3200   -1.2560   -0.6430 c2        1 FM5     -0.289000
      8 C6         -1.6200   -1.0630    0.5340 c1        1 FM5      0.108000
      9 C4         -0.1080   -1.1370    0.5370 c3        1 FM5     -0.453000
     10 PA1         0.4220   -2.7810   -0.0710 p5        1 FM5      1.402500
     11 OP1         0.6390   -2.7200   -1.5720 o         1 FM5     -0.800500
     12 OP2         1.7130   -3.1790    0.6100 o         1 FM5     -0.800500
     13 OP3        -0.6480   -3.8010    0.2430 o         1 FM5     -0.800500
     14 C3          0.4510   -0.0650   -0.3590 c3        1 FM5     -0.073000
     15 C2          1.7100    0.5150    0.2660 c3        1 FM5     -0.099000
     16 N1          2.2410    1.5510   -0.5940 n         1 FM5     -0.167000
     17 O2          2.5580    1.2650   -1.8890 oh        1 FM5     -0.263000
     18 C1          2.4900    2.8450   -0.0750 c2        1 FM5      0.279000
     19 O1          1.6960    3.3540    0.6990 o         1 FM5     -0.357000
     20 C5          3.7040    3.6380   -0.5530 c3        1 FM5     -0.234000
     21 H10        -4.1930   -0.6340    2.5700 ha        1 FM5      0.100000
     22 H11        -1.8160   -0.7280    2.5660 ha        1 FM5      0.102000
     23 H7         -1.8330   -1.3960   -1.4880 ha        1 FM5      0.108000
     24 H4          0.2190   -1.0050    1.4400 hc        1 FM5      0.095000
     25 H31C       -0.2120    0.6440   -0.4710 hc        1 FM5      0.058000
     26 H32C        0.6690   -0.4510   -1.2330 hc        1 FM5      0.058000
     27 H21C        1.4940    0.8950    1.1420 h1        1 FM5      0.111500
     28 H22C        2.3780   -0.1940    0.3730 h1        1 FM5      0.111500
     29 H51C        4.5260    3.2350   -0.1840 hc        1 FM5      0.099667
     30 H52C        3.6280    4.5670   -0.2440 hc        1 FM5      0.099667
     31 H53C        3.7420    3.6210   -1.5320 hc        1 FM5      0.099667
     32 HO2C        3.3780    0.9000   -1.9220 ho        1 FM5      0.231000
@<TRIPOS>BOND
     1    1    2 1   
     2    2    3 1   
     3    2    5 1   
     4    3    4 1   
     5    3   21 1   
     6    4   22 1   
     7    5    7 1   
     8    7    8 1   
     9    7   23 1   
    10    8    9 1   
    11    9   10 1   
    12    9   14 1   
    13    9   24 1   
    14   10   11 1   
    15   10   12 1   
    16   10   13 1   
    17   14   15 1   
    18   14   25 1   
    19   14   26 1   
    20   15   16 1   
    21   15   27 1   
    22   15   28 1   
    23   16   17 1   
    24   16   18 1   
    25   17   32 1   
    26   18   19 1   
    27   18   20 1   
    28   20   29 1   
    29   20   30 1   
    30   20   31 1   
@<TRIPOS>SUBSTRUCTURE
     1 FM5         1 TEMP              0 ****  ****    0 ROOT
