@<TRIPOS>MOLECULE
FM5
   32    31     1     0     0
SMALL
bcc


@<TRIPOS>ATOM
      1 CL2      -252.4310  212.9730   80.2530 cl        1 FM5     -0.090000
      2 C9       -252.4820  214.6460   80.5990 ca        1 FM5     -0.243000
      3 C10      -253.7020  215.3350   80.4940 ca        1 FM5     -0.052000
      4 C11      -253.7770  216.6790   80.7650 ca        1 FM5     -0.269000
      5 C8       -251.3400  215.3590   80.9880 ca        1 FM5      0.039000
      6 CL1      -249.8290  214.5530   81.1320 cl        1 FM5     -0.093000
      7 C7       -251.3930  216.7110   81.2630 ca        1 FM5     -0.275000
      8 C6       -252.6240  217.4380   81.1650 ca        1 FM5      0.116000
      9 C4       -252.7250  218.7870   81.4160 c2        1 FM5     -0.508000
     10 PA1      1774.3360-1528.5490 -562.0330 p3        1 FM5      2.361000
     11 OP1      1773.1470-1529.2660 -562.5270 o         1 FM5     -1.120000
     12 OP2      1774.6340-1527.1910 -562.5220 o         1 FM5     -1.120000
     13 OP3      1775.2260-1529.1900 -561.0490 o         1 FM5     -1.120000
     14 C3       -251.6320  219.6410   81.8980 c3        1 FM5     -0.083000
     15 C2       -250.7150  220.1590   80.7840 c3        1 FM5     -0.090000
     16 N1       -251.3790  220.8260   79.6560 n         1 FM5     -0.127000
     17 O2       -251.9670  220.0050   78.7920 oh        1 FM5     -0.255000
     18 C1       -252.1640  221.9760   79.9890 c2        1 FM5      0.262000
     19 O1       -251.7610  222.7890   80.8410 o         1 FM5     -0.364000
     20 C5       -253.4020  222.2460   79.1740 c3        1 FM5     -0.240000
     21 H10      -254.6030  214.7810   80.1910 ha        1 FM5      0.103000
     22 H11      -254.7380  217.2040   80.6860 ha        1 FM5      0.102000
     23 H7       -250.4860  217.2510   81.5640 ha        1 FM5      0.119000
     24 H4       -253.7100  219.2650   81.3470 ha        1 FM5      0.090000
     25 H31C     -252.0580  220.5290   82.4410 hc        1 FM5      0.064000
     26 H32C     -250.9760  219.0900   82.6260 hc        1 FM5      0.064000
     27 H21C     -249.9990  220.9170   81.2050 h1        1 FM5      0.099500
     28 H22C     -250.1380  219.2960   80.3490 h1        1 FM5      0.099500
     29 H51C     -254.1260  221.4050   79.3090 hc        1 FM5      0.099333
     30 H52C     -253.8700  223.2010   79.5100 hc        1 FM5      0.099333
     31 H53C     -253.1400  222.3170   78.0910 hc        1 FM5      0.099333
     32 HO2C     -252.4530  219.3000   79.2840 ho        1 FM5      0.232000
@<TRIPOS>BOND
     1    1    2 1   
     2    2    3 1   
     3    2    5 1   
     4    3    4 1   
     5    3   21 1   
     6    4    8 1   
     7    4   22 1   
     8    5    6 1   
     9    5    7 1   
    10    7    8 1   
    11    7   23 1   
    12    8    9 1   
    13    9   14 1   
    14    9   24 1   
    15   10   11 1   
    16   10   12 1   
    17   10   13 1   
    18   14   15 1   
    19   14   25 1   
    20   14   26 1   
    21   15   16 1   
    22   15   27 1   
    23   15   28 1   
    24   16   17 1   
    25   16   18 1   
    26   17   32 1   
    27   18   19 1   
    28   18   20 1   
    29   20   29 1   
    30   20   30 1   
    31   20   31 1   
@<TRIPOS>SUBSTRUCTURE
     1 FM5         1 TEMP              0 ****  ****    0 ROOT
