@<TRIPOS>MOLECULE
FM5
   33    32     1     0     0
SMALL
bcc


@<TRIPOS>ATOM
      1 CL2         0.1590   -0.8200    1.1890 cl        1 FM5     -0.113400
      2 C9          1.7370   -0.5230    0.6220 ca        1 FM5     -0.001600
      3 C10         2.6870    0.0110    1.4980 ca        1 FM5     -0.121000
      4 C11         3.9760    0.2790    1.0520 ca        1 FM5     -0.108000
      5 C8          2.1030   -0.8040   -0.6990 ca        1 FM5      0.022400
      6 CL1         0.9780   -1.4640   -1.7960 cl        1 FM5     -0.108400
      7 C7          3.4020   -0.5430   -1.1420 ca        1 FM5     -0.126000
      8 C6          4.3600    0.0080   -0.2750 ca        1 FM5      0.007700
      9 C4          5.7240    0.3530   -0.7240 c3        1 FM5     -0.245600
     10 PA1         6.8240   -1.0020   -0.5950 p5        1 FM5      1.331600
     11 OP1         6.7590   -1.8300   -1.8210 o         1 FM5     -0.841500
     12 OP2         8.2460   -0.1940   -0.8420 oh        1 FM5     -0.809400
     13 OP3         6.8200   -1.4990    0.7920 o         1 FM5     -0.841500
     14 C3          5.7740    0.8820   -2.1400 c3        1 FM5     -0.165700
     15 C2          6.5760    2.1490   -2.2480 c2        1 FM5      0.440200
     16 N1          6.2250    3.2920   -2.6990 n2        1 FM5     -0.815100
     17 O2          9.7680    1.9360   -1.1850 oh        1 FM5     -0.615100
     18 C1          9.9430    3.1830   -0.6830 c         1 FM5      0.634100
     19 O1         10.0720    3.3040    0.5410 o         1 FM5     -0.573000
     20 C5          9.9560    4.2520   -1.7200 c3        1 FM5     -0.159100
     21 H10         2.4140    0.2190    2.5430 ha        1 FM5      0.137000
     22 H11         4.7200    0.6810    1.7580 ha        1 FM5      0.152000
     23 H7          3.6820   -0.7980   -2.1780 ha        1 FM5      0.162000
     24 H4          6.1350    1.1330   -0.0240 hc        1 FM5      0.087700
     25 H31C        6.2550    0.1040   -2.8040 hc        1 FM5      0.066700
     26 H32C        4.7380    1.0590   -2.5410 hc        1 FM5      0.066700
     27 H21C        8.6470   -0.4340   -1.6700 ho        1 FM5      0.431000
     28 H22C        7.6300    2.0550   -1.8900 h4        1 FM5      0.035800
     29 H51C        8.9230    4.3560   -2.1400 hc        1 FM5      0.072367
     30 H52C       10.2740    5.2180   -1.2610 hc        1 FM5      0.072367
     31 H53C       10.6530    3.9760   -2.5460 hc        1 FM5      0.072367
     32 HO2C        9.6180    1.2880   -0.4650 ho        1 FM5      0.489000
     33 H111        5.2790    3.3660   -3.0130 hn        1 FM5      0.362400
@<TRIPOS>BOND
     1    1    2 1   
     2    2    3 ar  
     3    2    5 ar  
     4    3    4 ar  
     5    3   21 1   
     6    4    8 ar  
     7    4   22 1   
     8    5    6 1   
     9    5    7 ar  
    10    7    8 ar  
    11    7   23 1   
    12    8    9 1   
    13    9   10 1   
    14    9   14 1   
    15    9   24 1   
    16   10   11 1   
    17   10   12 1   
    18   10   13 1   
    19   12   27 1   
    20   14   15 1   
    21   14   25 1   
    22   14   26 1   
    23   15   16 2   
    24   15   28 1   
    25   16   33 1   
    26   17   18 1   
    27   17   32 1   
    28   18   19 2   
    29   18   20 1   
    30   20   29 1   
    31   20   30 1   
    32   20   31 1   
@<TRIPOS>SUBSTRUCTURE
     1 FM5         1 TEMP              0 ****  ****    0 ROOT
