@<TRIPOS>MOLECULE
FM5
   33    33     1     0     0
SMALL
bcc


@<TRIPOS>ATOM
      1 CL2         0.0920   -0.6310    0.7170 cl        1 FM5     -0.039000
      2 C9          1.7320   -0.3780    0.3310 ca        1 FM5     -0.084000
      3 C10         2.7150   -0.7490    1.2540 ca        1 FM5     -0.122000
      4 C11         4.0580   -0.5390    0.9650 ca        1 FM5     -0.117000
      5 C8          2.1150    0.1930   -0.8880 ca        1 FM5     -0.054000
      6 CL1         0.9480    0.6560   -2.0400 cl        1 FM5     -0.033000
      7 C7          3.4660    0.3970   -1.1770 ca        1 FM5     -0.122000
      8 C6          4.4630    0.0340   -0.2560 ca        1 FM5      0.022000
      9 C4          5.8960    0.2910   -0.5070 c3        1 FM5     -0.741000
     10 PA1         6.6620   -0.9910   -1.3690 p5        1 FM5      1.979000
     11 OP1         6.4570   -0.8630   -2.8260 o         1 FM5     -0.850500
     12 OP2         8.2490   -0.5640   -1.0870 oh        1 FM5     -0.863000
     13 OP3         6.6010   -2.2610   -0.6140 o         1 FM5     -0.850500
     14 C3          6.1400    1.5990   -1.2560 c3        1 FM5     -0.046000
     15 C2          7.2130    2.4570   -0.7200 c2        1 FM5     -0.658000
     16 N1          8.5800    2.2190   -1.0680 n4        1 FM5      0.204000
     17 O2          9.4260    1.7440   -0.0870 oh        1 FM5     -0.337000
     18 C1          9.0320    3.5940   -1.4830 c2        1 FM5      0.304000
     19 O1          9.4880    4.3830   -0.6570 o         1 FM5     -0.282000
     20 C5          8.8540    3.8790   -2.9440 c3        1 FM5     -0.242000
     21 H10         2.4230   -1.2090    2.2090 ha        1 FM5      0.134000
     22 H11         4.8220   -0.8480    1.6960 ha        1 FM5      0.147000
     23 H7          3.7560    0.8320   -2.1490 ha        1 FM5      0.165000
     24 H4          6.4140    0.3650    0.4890 hc        1 FM5      0.121000
     25 H31C        6.3130    1.3460   -2.3410 hc        1 FM5      0.084500
     26 H32C        5.2150    2.2410   -1.2140 hc        1 FM5      0.084500
     27 H21C        7.0760    2.9500    0.2460 hx        1 FM5      0.132000
     28 H22C        8.7530   -1.3040   -0.7700 ho        1 FM5      0.228000
     29 H51C        9.1340    4.9420   -3.1410 hc        1 FM5      0.116667
     30 H52C        9.5060    3.2060   -3.5530 hc        1 FM5      0.116667
     31 H53C        7.7860    3.7160   -3.2380 hc        1 FM5      0.116667
     32 HO2C        9.0350    0.9140    0.2500 ho        1 FM5      0.251000
     33 H111        8.6390    1.5730   -1.8790 hn        1 FM5      0.233000
@<TRIPOS>BOND
     1    1    2 1   
     2    2    3 1   
     3    2    5 1   
     4    3    4 1   
     5    3   21 1   
     6    4    8 1   
     7    4   22 1   
     8    5    6 1   
     9    5    7 1   
    10    7    8 1   
    11    7   23 1   
    12    8    9 1   
    13    9   10 1   
    14    9   14 1   
    15    9   24 1   
    16   10   11 1   
    17   10   12 1   
    18   10   13 1   
    19   12   28 1   
    20   14   15 1   
    21   14   25 1   
    22   14   26 1   
    23   15   16 1   
    24   15   27 1   
    25   16   17 1   
    26   16   18 1   
    27   16   33 1   
    28   17   32 1   
    29   18   19 1   
    30   18   20 1   
    31   20   29 1   
    32   20   30 1   
    33   20   31 1   
@<TRIPOS>SUBSTRUCTURE
     1 FM5         1 TEMP              0 ****  ****    0 ROOT
