@<TRIPOS>MOLECULE
FM6
   40    41     1     0     0
SMALL
bcc


@<TRIPOS>ATOM
      1 C7         -0.3070   -0.6130    0.3960 ca        1 FM6     -0.116000
      2 C8          1.0420   -0.8810    0.1630 ca        1 FM6     -0.055000
      3 CL1         1.4830   -1.7340   -1.2460 cl        1 FM6     -0.033000
      4 C9          2.0150   -0.4460    1.0710 ca        1 FM6     -0.083000
      5 CL2         3.6720   -0.7480    0.8110 cl        1 FM6     -0.040000
      6 C10         1.6200    0.2510    2.2170 ca        1 FM6     -0.123000
      7 C11         0.2750    0.5190    2.4440 ca        1 FM6     -0.122000
      8 C6         -0.7170    0.0910    1.5420 ca        1 FM6      0.021000
      9 C4         -2.1460    0.4110    1.7320 c3        1 FM6     -0.740000
     10 PA1        -2.9530   -0.7170    2.7590 p5        1 FM6      1.979000
     11 OP1        -2.6620   -0.4510    4.1830 o         1 FM6     -0.850000
     12 OP3        -4.5230   -0.2190    2.4920 oh        1 FM6     -0.863000
     13 OP2        -3.0100   -2.0600    2.1440 o         1 FM6     -0.850000
     14 C3         -2.3650    1.8150    2.2890 c3        1 FM6     -0.045000
     15 C2         -3.3740    2.6300    1.5860 c2        1 FM6     -0.633000
     16 N1         -4.7610    2.4980    1.8990 n4        1 FM6      0.209000
     17 O2         -5.5830    1.8600    0.9860 oh        1 FM6     -0.348000
     18 C1         -5.1940    3.9340    2.0060 c2        1 FM6      0.338000
     19 O1         -5.4560    4.5870    0.9950 o         1 FM6     -0.274000
     20 C12        -5.2480    4.4680    3.3870 ca        1 FM6     -0.109000
     21 C17        -4.6910    5.7300    3.6270 ca        1 FM6     -0.082000
     22 C16        -4.7360    6.2760    4.9080 ca        1 FM6     -0.138000
     23 C15        -5.3370    5.5690    5.9490 ca        1 FM6     -0.112000
     24 C14        -5.8970    4.3140    5.7090 ca        1 FM6     -0.138000
     25 C13        -5.8540    3.7590    4.4310 ca        1 FM6     -0.082000
     26 H7         -1.0670   -0.9740   -0.3170 ha        1 FM6      0.157000
     27 H10         2.3760    0.5870    2.9410 ha        1 FM6      0.135000
     28 H11        -0.0210    1.0590    3.3590 ha        1 FM6      0.157000
     29 H4         -2.6530    0.3550    0.7290 hc        1 FM6      0.120000
     30 H31C       -2.5990    1.7160    3.3880 hc        1 FM6      0.086000
     31 H32C       -1.4120    2.4110    2.2120 hc        1 FM6      0.086000
     32 H21C       -3.1710    2.9810    0.5710 hx        1 FM6      0.135000
     33 H22C       -5.0830   -0.9560    2.2790 ho        1 FM6      0.228000
     34 H17        -4.2160    6.2780    2.7980 ha        1 FM6      0.150000
     35 H13        -6.3020    2.7680    4.2580 ha        1 FM6      0.150000
     36 H16        -4.2900    7.2640    5.0970 ha        1 FM6      0.134000
     37 H15        -5.3650    5.9980    6.9620 ha        1 FM6      0.128000
     38 H14        -6.3650    3.7520    6.5310 ha        1 FM6      0.134000
     39 H2O        -5.1910    0.9830    0.8110 ho        1 FM6      0.248000
     40 H111       -4.8730    2.0160    2.8120 hn        1 FM6      0.240000
@<TRIPOS>BOND
     1    1    2 1   
     2    1    8 1   
     3    1   26 1   
     4    2    3 1   
     5    2    4 1   
     6    4    5 1   
     7    4    6 1   
     8    6    7 1   
     9    6   27 1   
    10    7    8 1   
    11    7   28 1   
    12    8    9 1   
    13    9   10 1   
    14    9   14 1   
    15    9   29 1   
    16   10   11 1   
    17   10   12 1   
    18   10   13 1   
    19   12   33 1   
    20   14   15 1   
    21   14   30 1   
    22   14   31 1   
    23   15   16 1   
    24   15   32 1   
    25   16   17 1   
    26   16   18 1   
    27   16   40 1   
    28   17   39 1   
    29   18   19 1   
    30   18   20 1   
    31   20   21 1   
    32   20   25 1   
    33   21   22 1   
    34   21   34 1   
    35   22   23 1   
    36   22   36 1   
    37   23   24 1   
    38   23   37 1   
    39   24   25 1   
    40   24   38 1   
    41   25   35 1   
@<TRIPOS>SUBSTRUCTURE
     1 FM6         1 TEMP              0 ****  ****    0 ROOT
