@<TRIPOS>MOLECULE
FM6
   39    39     1     0     0
SMALL
bcc


@<TRIPOS>ATOM
      1 C7       -134.1970 -209.6880  -36.8980 ca        1 FM6     -0.263000
      2 C8       -135.4260 -209.2110  -36.4990 ca        1 FM6      0.037000
      3 CL1      -135.9060 -207.6410  -37.0160 cl        1 FM6     -0.099000
      4 C9       -136.2810 -209.9740  -35.6880 ca        1 FM6     -0.252000
      5 CL2      -137.8110 -209.3950  -35.1890 cl        1 FM6     -0.094000
      6 C10      -135.8570 -211.2470  -35.2790 ca        1 FM6     -0.044000
      7 C11      -134.6350 -211.7440  -35.6640 ca        1 FM6     -0.283000
      8 C6       -133.7420 -210.9940  -36.5020 ca        1 FM6      0.113000
      9 C4       -132.5220 -211.4620  -36.9200 c2        1 FM6     -0.463000
     10 PA1      1170.6540    0.9850  312.5640 p3        1 FM6      2.361000
     11 OP1      1171.3830    0.5800  311.3490 o         1 FM6     -1.120000
     12 OP3      1169.1830    0.0850  312.5410 o         1 FM6     -1.120000
     13 OP2      1171.3950    0.2910  313.8010 o         1 FM6     -1.120000
     14 C3       -131.9960 -212.7960  -36.6080 c3        1 FM6     -0.072000
     15 C2       -131.3680 -212.8210  -35.2080 c3        1 FM6     -0.098000
     16 N1       -131.1460 -214.1530  -34.6200 n         1 FM6     -0.144000
     17 O2       -132.2550 -214.7700  -34.2300 oh        1 FM6     -0.230000
     18 C1       -130.1790 -214.9810  -35.2680 c2        1 FM6      0.294000
     19 O1       -129.1820 -214.4630  -35.8060 o         1 FM6     -0.339000
     20 C12      -130.2970 -216.4650  -35.1780 ca        1 FM6     -0.113000
     21 C17      -129.8720 -217.2220  -36.2790 ca        1 FM6     -0.080500
     22 C16      -129.9430 -218.6130  -36.2380 ca        1 FM6     -0.151500
     23 C15      -130.4250 -219.2550  -35.0970 ca        1 FM6     -0.119000
     24 C14      -130.8370 -218.5040  -33.9970 ca        1 FM6     -0.151500
     25 C13      -130.7760 -217.1100  -34.0340 ca        1 FM6     -0.080500
     26 H7       -133.5380 -209.0810  -37.5310 ha        1 FM6      0.117000
     27 H10      -136.5190 -211.8490  -34.6380 ha        1 FM6      0.101000
     28 H11      -134.3180 -212.7370  -35.3210 ha        1 FM6      0.093000
     29 H4       -131.8810 -210.8250  -37.5400 ha        1 FM6      0.098000
     30 H31C     -132.8150 -213.5660  -36.6710 hc        1 FM6      0.050000
     31 H32C     -131.2110 -213.0920  -37.3550 hc        1 FM6      0.050000
     32 H21C     -130.3630 -212.3200  -35.2380 h1        1 FM6      0.120500
     33 H22C     -132.0390 -212.2680  -34.4930 h1        1 FM6      0.120500
     34 H17      -129.4770 -216.7050  -37.1680 ha        1 FM6      0.154500
     35 H13      -131.1130 -216.5190  -33.1670 ha        1 FM6      0.154500
     36 H16      -129.6150 -219.2030  -37.1050 ha        1 FM6      0.127000
     37 H15      -130.4790 -220.3530  -35.0660 ha        1 FM6      0.122000
     38 H14      -131.2160 -219.0080  -33.0970 ha        1 FM6      0.127000
     39 H2O      -132.9400 -214.6900  -34.9290 ho        1 FM6      0.196000
@<TRIPOS>BOND
     1    1    2 1   
     2    1    8 1   
     3    1   26 1   
     4    2    3 1   
     5    2    4 1   
     6    4    5 1   
     7    4    6 1   
     8    6    7 1   
     9    6   27 1   
    10    7    8 1   
    11    7   28 1   
    12    8    9 1   
    13    9   14 1   
    14    9   29 1   
    15   10   11 1   
    16   10   12 1   
    17   10   13 1   
    18   14   15 1   
    19   14   30 1   
    20   14   31 1   
    21   15   16 1   
    22   15   32 1   
    23   15   33 1   
    24   16   17 1   
    25   16   18 1   
    26   17   39 1   
    27   18   19 1   
    28   18   20 1   
    29   20   21 1   
    30   20   25 1   
    31   21   22 1   
    32   21   34 1   
    33   22   23 1   
    34   22   36 1   
    35   23   24 1   
    36   23   37 1   
    37   24   25 1   
    38   24   38 1   
    39   25   35 1   
@<TRIPOS>SUBSTRUCTURE
     1 FM6         1 TEMP              0 ****  ****    0 ROOT
