@<TRIPOS>MOLECULE
FM6
   40    41     1     0     0
SMALL
bcc


@<TRIPOS>ATOM
      1 C7         -0.2690   -0.6130    0.4420 ca        1 FM6     -0.116000
      2 C8          1.0840   -0.8510    0.1960 ca        1 FM6     -0.055000
      3 Cl1         1.5270   -1.7390   -1.1900 cl        1 FM6     -0.033000
      4 C9          2.0570   -0.3570    1.0730 ca        1 FM6     -0.083000
      5 Cl2         3.7180   -0.6200    0.7960 cl        1 FM6     -0.040000
      6 C10         1.6600    0.3680    2.2000 ca        1 FM6     -0.123000
      7 C11         0.3120    0.6070    2.4400 ca        1 FM6     -0.122000
      8 C6         -0.6810    0.1180    1.5700 ca        1 FM6      0.021000
      9 C4         -2.1160    0.4040    1.7720 c3        1 FM6     -0.740000
     10 PA1        -2.8730   -0.7090    2.8510 p5        1 FM6      1.979000
     11 OP1        -2.5680   -0.3860    4.2600 o         1 FM6     -0.850000
     12 OP3        -4.4610   -0.2650    2.5930 oh        1 FM6     -0.863000
     13 OP2        -2.9020   -2.0740    2.2830 o         1 FM6     -0.850000
     14 C3         -2.3660    1.8210    2.2840 c3        1 FM6     -0.045000
     15 C2         -3.4090    2.5810    1.5700 c2        1 FM6     -0.633000
     16 N1         -4.7870    2.4210    1.9100 nx        1 FM6      0.209000
     17 O2         -5.6040    1.7280    1.0330 oh        1 FM6     -0.348000
     18 C1         -5.2600    3.8470    1.9750 c2        1 FM6      0.338000
     19 O1         -5.5560    4.4560    0.9460 o         1 FM6     -0.274000
     20 C12        -5.3080    4.4260    3.3380 ca        1 FM6     -0.109000
     21 C17        -4.7820    5.7110    3.5260 ca        1 FM6     -0.082000
     22 C16        -4.8220    6.2990    4.7880 ca        1 FM6     -0.138000
     23 C15        -5.3880    5.6120    5.8620 ca        1 FM6     -0.112000
     24 C14        -5.9170    4.3350    5.6740 ca        1 FM6     -0.138000
     25 C13        -5.8780    3.7380    4.4140 ca        1 FM6     -0.082000
     26 H7         -1.0290   -1.0200   -0.2450 ha        1 FM6      0.157000
     27 H10         2.4170    0.7510    2.9000 ha        1 FM6      0.135000
     28 H11         0.0150    1.1690    3.3410 ha        1 FM6      0.157000
     29 H4         -2.6370    0.2990    0.7810 hc        1 FM6      0.120000
     30 H31C       -2.5800    1.7540    3.3890 hc        1 FM6      0.086000
     31 H32C       -1.4320    2.4410    2.1720 hc        1 FM6      0.086000
     32 H21C       -3.2320    2.9030    0.5400 hx        1 FM6      0.135000
     33 H22C       -5.0030   -1.0250    2.4160 ho        1 FM6      0.228000
     34 H17        -4.3340    6.2420    2.6710 ha        1 FM6      0.150000
     35 H13        -6.3010    2.7290    4.2820 ha        1 FM6      0.150000
     36 H16        -4.4010    7.3040    4.9370 ha        1 FM6      0.134000
     37 H15        -5.4130    6.0740    6.8600 ha        1 FM6      0.128000
     38 H14        -6.3570    3.7890    6.5210 ha        1 FM6      0.134000
     39 H2O        -5.1900    0.8570    0.8820 ho        1 FM6      0.248000
     40 H111       -4.8710    1.9680    2.8410 hn        1 FM6      0.240000
@<TRIPOS>BOND
     1    1    2 1   
     2    1    8 1   
     3    1   26 1   
     4    2    3 1   
     5    2    4 1   
     6    4    5 1   
     7    4    6 1   
     8    6    7 1   
     9    6   27 1   
    10    7    8 1   
    11    7   28 1   
    12    8    9 1   
    13    9   10 1   
    14    9   14 1   
    15    9   29 1   
    16   10   11 1   
    17   10   12 1   
    18   10   13 1   
    19   12   33 1   
    20   14   15 1   
    21   14   30 1   
    22   14   31 1   
    23   15   16 1   
    24   15   32 1   
    25   16   17 1   
    26   16   18 1   
    27   16   40 1   
    28   17   39 1   
    29   18   19 1   
    30   18   20 1   
    31   20   21 1   
    32   20   25 1   
    33   21   22 1   
    34   21   34 1   
    35   22   23 1   
    36   22   36 1   
    37   23   24 1   
    38   23   37 1   
    39   24   25 1   
    40   24   38 1   
    41   25   35 1   
@<TRIPOS>SUBSTRUCTURE
     1 FM6         1 TEMP              0 ****  ****    0 ROOT
