@<TRIPOS>MOLECULE
FM6
   39    35     1     0     0
SMALL
bcc


@<TRIPOS>ATOM
      1 C7          3.3090   -1.3540   -2.4450 c1        1 FM6     -0.272000
      2 C8          4.6710   -1.1900   -2.6490 c1        1 FM6      0.038000
      3 CL1         5.2800   -0.8800   -4.2540 cl        1 FM6     -0.104000
      4 C9          5.5380   -1.1900   -1.5670 c1        1 FM6     -0.255000
      5 CL2         7.2530   -0.9980   -1.8260 cl        1 FM6     -0.097000
      6 C10         5.0450   -1.3550   -0.2820 c2        1 FM6     -0.048000
      7 C11         3.6830   -1.5200   -0.0780 c1        1 FM6     -0.274000
      8 C6          2.8150   -1.5190   -1.1600 c1        1 FM6      0.115000
      9 C4          1.3420   -1.7890   -0.9460 c3        1 FM6     -0.466000
     10 PA1         1.1300   -3.4370   -0.2300 p5        1 FM6      1.402500
     11 OP1         1.0510   -3.3270    1.2720 o         1 FM6     -0.800500
     12 OP3        -0.1430   -4.0530   -0.7560 o         1 FM6     -0.800500
     13 OP2         2.3060   -4.3080   -0.6110 o         1 FM6     -0.800500
     14 C3          0.7670   -0.7440    0.0040 c3        1 FM6     -0.066000
     15 C2         -0.6870   -0.4380   -0.3900 c3        1 FM6     -0.084000
     16 N1         -1.2280    0.5680    0.5010 n         1 FM6     -0.175000
     17 O2         -1.0230    0.4680    1.8510 oh        1 FM6     -0.245000
     18 C1         -1.9640    1.6910   -0.0380 c2        1 FM6      0.316000
     19 O1         -1.6060    2.2090   -1.0800 o         1 FM6     -0.328000
     20 C12        -3.1640    2.2680    0.7360 c2        1 FM6     -0.096000
     21 C17        -4.4270    1.7230    0.5640 c2        1 FM6     -0.081000
     22 C16        -5.5110    2.2440    1.2630 c1        1 FM6     -0.149000
     23 C15        -5.3280    3.3110    2.1320 c1        1 FM6     -0.134000
     24 C14        -4.0640    3.8570    2.3040 c1        1 FM6     -0.134000
     25 C13        -2.9810    3.3360    1.6060 c1        1 FM6     -0.084000
     26 H7          2.6980   -1.3540   -3.2060 ha        1 FM6      0.114000
     27 H10         5.6560   -1.3620    0.4780 ha        1 FM6      0.102000
     28 H11         3.3360   -1.6350    0.8260 ha        1 FM6      0.108000
     29 H4          0.8760   -1.7440   -1.8010 hc        1 FM6      0.090000
     30 H31C        0.7910   -1.0870    0.9200 hc        1 FM6      0.057500
     31 H32C        1.2990    0.0750   -0.0510 hc        1 FM6      0.057500
     32 H21C       -1.2220   -1.2550   -0.3240 h1        1 FM6      0.109000
     33 H22C       -0.7120   -0.1050   -1.3100 h1        1 FM6      0.109000
     34 H17        -4.5560    0.9740   -0.0460 ha        1 FM6      0.139000
     35 H13        -2.0930    3.7200    1.7270 ha        1 FM6      0.153000
     36 H16        -6.3990    1.8600    1.1420 ha        1 FM6      0.125000
     37 H15        -6.0910    3.6790    2.6240 ha        1 FM6      0.125000
     38 H14        -3.9440    4.6370    2.8800 ha        1 FM6      0.125000
     39 H2O        -1.6990    0.0230    2.2210 ho        1 FM6      0.208000
@<TRIPOS>BOND
     1    1    8 1   
     2    1   26 1   
     3    2    3 1   
     4    2    4 1   
     5    4    6 1   
     6    6    7 1   
     7    6   27 1   
     8    7   28 1   
     9    8    9 1   
    10    9   10 1   
    11    9   14 1   
    12    9   29 1   
    13   10   11 1   
    14   10   12 1   
    15   10   13 1   
    16   14   15 1   
    17   14   30 1   
    18   14   31 1   
    19   15   16 1   
    20   15   32 1   
    21   15   33 1   
    22   16   17 1   
    23   16   18 1   
    24   17   39 1   
    25   18   19 1   
    26   18   20 1   
    27   20   21 1   
    28   20   25 1   
    29   21   22 1   
    30   21   34 1   
    31   22   36 1   
    32   23   24 1   
    33   23   37 1   
    34   24   38 1   
    35   25   35 1   
@<TRIPOS>SUBSTRUCTURE
     1 FM6         1 TEMP              0 ****  ****    0 ROOT
