@<TRIPOS>MOLECULE
FM6
   40    41     1     0     0
SMALL
bcc


@<TRIPOS>ATOM
      1 C7         -0.3070   -0.6750    0.4710 ca        1 FM6     -0.116000
      2 C8          1.0400   -0.9110    0.1940 ca        1 FM6     -0.055000
      3 CL1         1.4510   -1.8520   -1.1660 cl        1 FM6     -0.033000
      4 C9          2.0340   -0.3720    1.0200 ca        1 FM6     -0.083000
      5 CL2         3.6890   -0.6320    0.7050 cl        1 FM6     -0.040000
      6 C10         1.6630    0.3960    2.1280 ca        1 FM6     -0.123000
      7 C11         0.3200    0.6320    2.3990 ca        1 FM6     -0.122000
      8 C6         -0.6930    0.0990    1.5800 ca        1 FM6      0.021000
      9 C4         -2.1240    0.3800    1.8130 c3        1 FM6     -0.740000
     10 PA1        -2.8370   -0.6940    2.9590 p5        1 FM6      1.979000
     11 OP1        -2.4940   -0.3100    4.3440 o         1 FM6     -0.850000
     12 OP3        -4.4360   -0.2760    2.7320 oh        1 FM6     -0.863000
     13 OP2        -2.8690   -2.0820    2.4500 o         1 FM6     -0.850000
     14 C3         -2.3730    1.8140    2.2740 c3        1 FM6     -0.045000
     15 C2         -3.4450    2.5340    1.5600 c2        1 FM6     -0.633000
     16 N1         -4.8100    2.3770    1.9470 n4        1 FM6      0.209000
     17 O2         -5.6450    1.6400    1.1250 oh        1 FM6     -0.348000
     18 C1         -5.2960    3.7990    1.9670 c2        1 FM6      0.338000
     19 O1         -5.6280    4.3620    0.9230 o         1 FM6     -0.274000
     20 C12        -5.3100    4.4340    3.3050 ca        1 FM6     -0.109000
     21 C17        -4.7920    5.7310    3.4240 ca        1 FM6     -0.082000
     22 C16        -4.8020    6.3710    4.6620 ca        1 FM6     -0.138000
     23 C15        -5.3290    5.7240    5.7800 ca        1 FM6     -0.112000
     24 C14        -5.8500    4.4360    5.6600 ca        1 FM6     -0.138000
     25 C13        -5.8410    3.7860    4.4260 ca        1 FM6     -0.082000
     26 H7         -1.0830   -1.1170   -0.1750 ha        1 FM6      0.157000
     27 H10         2.4370    0.8140    2.7880 ha        1 FM6      0.135000
     28 H11         0.0440    1.2290    3.2840 ha        1 FM6      0.157000
     29 H4         -2.6730    0.2290    0.8430 hc        1 FM6      0.120000
     30 H31C       -1.4490    2.4370    2.1070 hc        1 FM6      0.086000
     31 H32C       -2.5540    1.7910    3.3860 hc        1 FM6      0.086000
     32 H21C       -3.3010    2.8150    0.5130 hx        1 FM6      0.135000
     33 H22C       -4.9760   -1.0470    2.6020 ho        1 FM6      0.228000
     34 H17        -4.3760    6.2300    2.5350 ha        1 FM6      0.150000
     35 H13        -6.2580    2.7690    4.3480 ha        1 FM6      0.150000
     36 H16        -4.3880    7.3850    4.7560 ha        1 FM6      0.134000
     37 H15        -5.3300    6.2280    6.7570 ha        1 FM6      0.128000
     38 H14        -6.2600    3.9220    6.5420 ha        1 FM6      0.134000
     39 H2O        -5.2270    0.7660    0.9980 ho        1 FM6      0.248000
     40 H111       -4.8620    1.9620    2.8980 hn        1 FM6      0.240000
@<TRIPOS>BOND
     1    1    2 1   
     2    1    8 1   
     3    1   26 1   
     4    2    3 1   
     5    2    4 1   
     6    4    5 1   
     7    4    6 1   
     8    6    7 1   
     9    6   27 1   
    10    7    8 1   
    11    7   28 1   
    12    8    9 1   
    13    9   10 1   
    14    9   14 1   
    15    9   29 1   
    16   10   11 1   
    17   10   12 1   
    18   10   13 1   
    19   12   33 1   
    20   14   15 1   
    21   14   30 1   
    22   14   31 1   
    23   15   16 1   
    24   15   32 1   
    25   16   17 1   
    26   16   18 1   
    27   16   40 1   
    28   17   39 1   
    29   18   19 1   
    30   18   20 1   
    31   20   21 1   
    32   20   25 1   
    33   21   22 1   
    34   21   34 1   
    35   22   23 1   
    36   22   36 1   
    37   23   24 1   
    38   23   37 1   
    39   24   25 1   
    40   24   38 1   
    41   25   35 1   
@<TRIPOS>SUBSTRUCTURE
     1 FM6         1 TEMP              0 ****  ****    0 ROOT
