@<TRIPOS>MOLECULE
FM7
   54    55     1     0     0
SMALL
bcc


@<TRIPOS>ATOM
      1 F1         -1.7490 -124.6330  -30.7810 f         1 FM7     -0.170000
      2 C3          0.2730 -133.4440  -35.8150 c3        1 FM7     -0.071000
      3 C30        -1.2490 -124.0400  -31.9160 c3        1 FM7      0.464000
      4 F2         -2.3330 -123.9690  -32.7580 f         1 FM7     -0.170000
      5 F3         -1.0410 -122.7340  -31.5380 f         1 FM7     -0.170000
      6 C20        -0.0240 -124.7330  -32.5000 ca        1 FM7     -0.123000
      7 C21         1.2430 -124.3870  -32.0270 ca        1 FM7     -0.137000
      8 C22         2.3570 -125.0400  -32.5480 ca        1 FM7     -0.100000
      9 C23         2.2200 -126.0160  -33.5280 ca        1 FM7     -0.168000
     10 C19        -0.1910 -125.7030  -33.4810 ca        1 FM7     -0.144000
     11 C18         0.9420 -126.3600  -34.0290 ca        1 FM7      0.100000
     12 N2          0.7430 -127.2880  -35.0500 nh        1 FM7     -0.274000
     13 C13         1.7950 -127.9180  -35.7360 ca        1 FM7      0.102000
     14 C14         2.8370 -127.1500  -36.3080 ca        1 FM7     -0.179000
     15 C15         3.8260 -127.7570  -37.0720 ca        1 FM7     -0.098000
     16 C16         3.8090 -129.1330  -37.2910 ca        1 FM7     -0.166000
     17 C17         2.7970 -129.9070  -36.7290 ca        1 FM7     -0.050000
     18 C12         1.7960 -129.3220  -35.9490 ca        1 FM7     -0.143000
     19 C4          0.7130 -130.1850  -35.3930 c2        1 FM7      0.324000
     20 O1         -0.4860 -129.8530  -35.5040 o         1 FM7     -0.368000
     21 N1          1.0450 -131.3190  -34.6090 n         1 FM7     -0.158000
     22 O2          2.3310 -131.6840  -34.7240 oh        1 FM7     -0.254000
     23 C2          0.1170 -132.4650  -34.6440 c3        1 FM7     -0.092000
     24 C1         -0.2080 -134.7800  -35.4360 c2        1 FM7     -0.460000
     25 PA1        35.0590    0.1910  442.2200 p2        1 FM7      2.361000
     26 OP3        34.2750    0.0220  441.7850 o         1 FM7     -1.120000
     27 OP2        34.5990    0.0050  443.3590 os        1 FM7     -1.120000
     28 OP1        36.3040    0.5470  441.5150 o         1 FM7     -1.120000
     29 C6          0.4980 -135.6560  -34.6510 ca        1 FM7      0.110000
     30 C11        -0.0290 -136.9570  -34.3340 ca        1 FM7     -0.260000
     31 C10         0.6570 -137.8430  -33.5430 ca        1 FM7     -0.053000
     32 C9          1.9140 -137.5110  -33.0060 ca        1 FM7     -0.253000
     33 CL2         2.7320 -138.6430  -32.0200 cl        1 FM7     -0.093000
     34 C8          2.4540 -136.2530  -33.3000 ca        1 FM7      0.044000
     35 CL1         3.9910 -135.8040  -32.6660 cl        1 FM7     -0.103000
     36 C7          1.7840 -135.3450  -34.0930 ca        1 FM7     -0.292000
     37 H31C        1.3550 -133.4870  -36.1240 hc        1 FM7      0.058000
     38 H32C       -0.3050 -133.0520  -36.6920 hc        1 FM7      0.058000
     39 H21C        0.2980 -133.0240  -33.6820 h1        1 FM7      0.114000
     40 H22C       -0.9240 -132.0420  -34.6310 h1        1 FM7      0.114000
     41 H1         -1.1910 -135.0690  -35.8220 ha        1 FM7      0.096000
     42 H21         1.3530 -123.6120  -31.2550 ha        1 FM7      0.144000
     43 H19        -1.2060 -125.9540  -33.8300 ha        1 FM7      0.157000
     44 H22         3.3610 -124.7880  -32.1730 ha        1 FM7      0.135000
     45 H23         3.1170 -126.5340  -33.9040 ha        1 FM7      0.152000
     46 H2         -0.1200 -127.7990  -35.0190 hn        1 FM7      0.262000
     47 H14         2.8540 -126.0590  -36.1620 ha        1 FM7      0.139000
     48 H15         4.6240 -127.1390  -37.5120 ha        1 FM7      0.127000
     49 H16         4.5910 -129.6080  -37.8990 ha        1 FM7      0.135000
     50 H17         2.7900 -131.0000  -36.8860 ha        1 FM7      0.164000
     51 HA          2.5440 -132.1230  -33.8760 ho        1 FM7      0.234000
     52 H11        -1.0080 -137.2290  -34.7490 ha        1 FM7      0.103000
     53 H7          2.2290 -134.3670  -34.3170 ha        1 FM7      0.109000
     54 H10         0.2280 -138.8310  -33.3180 ha        1 FM7      0.102000
@<TRIPOS>BOND
     1    1    3 1   
     2    2   23 1   
     3    2   24 1   
     4    2   37 1   
     5    2   38 1   
     6    3    4 1   
     7    3    5 1   
     8    3    6 1   
     9    6    7 1   
    10    6   10 1   
    11    7    8 1   
    12    7   42 1   
    13    8    9 1   
    14    8   44 1   
    15    9   11 1   
    16    9   45 1   
    17   10   11 1   
    18   10   43 1   
    19   11   12 1   
    20   12   13 1   
    21   12   46 1   
    22   13   14 1   
    23   13   18 1   
    24   14   15 1   
    25   14   47 1   
    26   15   16 1   
    27   15   48 1   
    28   16   17 1   
    29   16   49 1   
    30   17   18 1   
    31   17   50 1   
    32   18   19 1   
    33   19   20 1   
    34   19   21 1   
    35   21   22 1   
    36   21   23 1   
    37   22   51 1   
    38   23   39 1   
    39   23   40 1   
    40   24   29 1   
    41   24   41 1   
    42   25   27 1   
    43   25   28 1   
    44   26   27 1   
    45   29   30 1   
    46   29   36 1   
    47   30   31 1   
    48   30   52 1   
    49   31   32 1   
    50   31   54 1   
    51   32   33 1   
    52   32   34 1   
    53   34   35 1   
    54   34   36 1   
    55   36   53 1   
@<TRIPOS>SUBSTRUCTURE
     1 FM7         1 TEMP              0 ****  ****    0 ROOT
