@<TRIPOS>MOLECULE
FM7
   54    50     1     0     0
SMALL
bcc


@<TRIPOS>ATOM
      1 F1         -5.6980   -4.9180    3.1760 f         1 FM7     -0.179667
      2 C3          2.3200    1.0930   -1.5400 c3        1 FM7     -0.087000
      3 C30        -5.5640   -4.5400    1.9010 c3        1 FM7      0.465000
      4 F2         -4.4850   -5.1350    1.3690 f         1 FM7     -0.179667
      5 F3         -6.6580   -4.8970    1.2110 f         1 FM7     -0.179667
      6 C20        -5.3940   -3.0340    1.8360 c2        1 FM7     -0.138000
      7 C21        -6.5000   -2.2050    1.9610 c2        1 FM7     -0.137000
      8 C22        -6.3470   -0.8300    1.8880 c1        1 FM7     -0.094000
      9 C23        -5.0850   -0.2790    1.6900 c1        1 FM7     -0.146000
     10 C19        -4.1320   -2.4840    1.6380 c1        1 FM7     -0.146000
     11 C18        -3.9790   -1.1070    1.5650 c1        1 FM7      0.082000
     12 N2         -2.6790   -0.5390    1.2840 n3        1 FM7     -0.263000
     13 C13        -1.8870    0.0070    2.3530 c2        1 FM7      0.072000
     14 C14        -2.4660    0.2490    3.5870 c2        1 FM7     -0.172000
     15 C15        -1.6850    0.6970    4.6460 c1        1 FM7     -0.112000
     16 C16        -0.3210    0.9040    4.4660 c1        1 FM7     -0.108000
     17 C17         0.2630    0.6610    3.2270 c1        1 FM7     -0.108000
     18 C12        -0.5140    0.2140    2.1720 c1        1 FM7     -0.142000
     19 C4          0.1000    0.0960    0.7610 c2        1 FM7      0.315000
     20 O1         -0.6070   -0.1760   -0.1860 o         1 FM7     -0.382000
     21 N1          1.5380    0.1960    0.5870 n         1 FM7     -0.136000
     22 O2          2.3510   -0.8360    0.9860 oh        1 FM7     -0.269000
     23 C2          2.1120    1.3660   -0.0440 c3        1 FM7     -0.052000
     24 C1          3.8040    1.1840   -1.8700 c3        1 FM7     -0.413000
     25 PA1         4.4210    2.8270   -1.4280 p5        1 FM7      1.429500
     26 OP3         3.2660    3.6960   -0.9730 o         1 FM7     -0.805833
     27 OP2         5.0810    3.4560   -2.6290 o         1 FM7     -0.805833
     28 OP1         5.4290    2.7020   -0.3080 o         1 FM7     -0.805833
     29 C6          4.0080    0.9510   -3.3540 c2        1 FM7      0.098000
     30 C11         4.8140   -0.0910   -3.7870 c2        1 FM7     -0.268000
     31 C10         5.0680   -0.2560   -5.1420 c1        1 FM7     -0.051000
     32 C9          4.5170    0.6220   -6.0620 c1        1 FM7     -0.277000
     33 CL2         4.8080    0.3950   -7.7670 cl        1 FM7     -0.112000
     34 C8          3.7110    1.6640   -5.6300 c1        1 FM7      0.050000
     35 CL1         3.0240    2.7740   -6.7890 cl        1 FM7     -0.123000
     36 C7          3.4560    1.8290   -4.2750 c2        1 FM7     -0.277000
     37 H31C        1.8290    1.7550   -2.0640 hc        1 FM7      0.060000
     38 H32C        1.9920    0.1970   -1.7560 hc        1 FM7      0.060000
     39 H21C        2.9740    1.5720    0.3730 h1        1 FM7      0.102000
     40 H22C        1.5040    2.1290    0.0680 h1        1 FM7      0.102000
     41 H1          4.2930    0.5050   -1.3630 hc        1 FM7      0.091000
     42 H21        -7.3870   -2.5920    2.1000 ha        1 FM7      0.136000
     43 H19        -3.3590   -3.0700    1.4990 ha        1 FM7      0.146000
     44 H22        -7.1300   -0.2480    1.9410 ha        1 FM7      0.161000
     45 H23        -4.9820    0.6890    1.6070 ha        1 FM7      0.169000
     46 H2         -2.3900   -0.4670    0.4230 hn        1 FM7      0.248000
     47 H14        -3.4260    0.1030    3.7140 ha        1 FM7      0.128000
     48 H15        -2.0940    0.8680    5.5140 ha        1 FM7      0.114000
     49 H16         0.2250    1.2190    5.2080 ha        1 FM7      0.179000
     50 H17         1.2290    0.7570    3.1150 ha        1 FM7      0.179000
     51 HA          2.8710   -0.5620    1.6560 ho        1 FM7      0.276000
     52 H11         5.2090   -0.7060   -3.1370 ha        1 FM7      0.098000
     53 H7          2.9150    2.5820   -3.9680 ha        1 FM7      0.114000
     54 H10         5.6360   -0.9900   -5.4470 ha        1 FM7      0.093000
@<TRIPOS>BOND
     1    1    3 1   
     2    2   23 1   
     3    2   24 1   
     4    2   37 1   
     5    2   38 1   
     6    3    4 1   
     7    3    5 1   
     8    3    6 1   
     9    6    7 1   
    10    6   10 1   
    11    7    8 1   
    12    7   42 1   
    13    8   44 1   
    14    9   11 1   
    15    9   45 1   
    16   10   43 1   
    17   11   12 1   
    18   12   13 1   
    19   12   46 1   
    20   13   14 1   
    21   13   18 1   
    22   14   15 1   
    23   14   47 1   
    24   15   48 1   
    25   16   17 1   
    26   16   49 1   
    27   17   50 1   
    28   18   19 1   
    29   19   20 1   
    30   19   21 1   
    31   21   22 1   
    32   21   23 1   
    33   22   51 1   
    34   23   39 1   
    35   23   40 1   
    36   24   25 1   
    37   24   29 1   
    38   24   41 1   
    39   25   26 1   
    40   25   27 1   
    41   25   28 1   
    42   29   30 1   
    43   29   36 1   
    44   30   31 1   
    45   30   52 1   
    46   31   54 1   
    47   32   33 1   
    48   32   34 1   
    49   34   36 1   
    50   36   53 1   
@<TRIPOS>SUBSTRUCTURE
     1 FM7         1 TEMP              0 ****  ****    0 ROOT
