@<TRIPOS>MOLECULE
FM8
   48    43     1     0     0
SMALL
bcc


@<TRIPOS>ATOM
      1 C1         -1.8220   -0.0950    0.3630 c1        1 FM8      0.303000
      2 N1         -0.3850    0.0010    0.3100 n3        1 FM8     -0.142000
      3 O1         -2.4500    0.5120    1.2400 o         1 FM8     -0.354000
      4 CL1         6.8130   -2.2790    0.5830 cl        1 FM8     -0.116000
      5 C2          0.3510    0.3430    1.4890 c3        1 FM8     -0.053000
      6 N2         -4.4770    1.5750   -2.4540 n2        1 FM8     -0.114500
      7 O2          0.2890   -0.1940   -0.9080 oh        1 FM8     -0.270000
      8 CL2         7.8650   -1.9710    3.5210 cl        1 FM8     -0.114000
      9 C3          1.7020   -0.2920    1.4330 c3        1 FM8     -0.084000
     10 N3         -4.2400    1.1120   -3.6920 n2        1 FM8     -0.114500
     11 C4          2.7730    0.7240    1.9090 c3        1 FM8     -0.421000
     12 N4         -5.5460    2.8490   -3.8670 n2        1 FM8     -0.195000
     13 C6          3.9980   -0.0010    2.3220 c2        1 FM8      0.095000
     14 C7          4.7550   -0.6850    1.3760 c2        1 FM8     -0.273000
     15 C8          5.9230   -1.3100    1.7510 c2        1 FM8      0.048000
     16 C9          6.3430   -1.2570    3.0670 c2        1 FM8     -0.275000
     17 C10         5.5860   -0.5730    4.0110 c1        1 FM8     -0.051000
     18 C11         4.4160    0.0520    3.6340 c1        1 FM8     -0.270000
     19 C12        -2.5810   -0.9440   -0.6760 c1        1 FM8     -0.078000
     20 C13        -3.6400   -0.3860   -1.3850 c2        1 FM8     -0.054000
     21 C14        -4.3630   -1.1610   -2.2770 c1        1 FM8     -0.111000
     22 C15        -4.0320   -2.4980   -2.4640 c1        1 FM8     -0.137000
     23 C16        -2.9740   -3.0580   -1.7580 c1        1 FM8     -0.137000
     24 C17        -2.2470   -2.2780   -0.8610 c1        1 FM8     -0.097000
     25 C18        -3.9790    1.0400   -1.2070 c2        1 FM8      0.008000
     26 C19        -4.9030    1.9030   -4.5670 c1        1 FM8     -0.138500
     27 C20        -5.2840    2.6480   -2.5580 c1        1 FM8     -0.138500
     28 PA1         3.1660    1.8440    0.5710 p5        1 FM8      1.430500
     29 OP1         3.3610    1.0630   -0.6950 o         1 FM8     -0.806833
     30 OP2         2.0320    2.8250    0.3840 o         1 FM8     -0.806833
     31 OP3         4.4560    2.6030    0.9070 o         1 FM8     -0.806833
     32 H2         -0.1240    0.0210    2.2690 h1        1 FM8      0.103500
     33 H2A         0.4470    1.3040    1.5420 h1        1 FM8      0.103500
     34 HO2         0.7270    0.5530   -1.1290 ho        1 FM8      0.276000
     35 H3          1.9040   -0.5720    0.4770 hc        1 FM8      0.058500
     36 H3A         1.7160   -1.0670    2.0050 hc        1 FM8      0.058500
     37 H4          2.4260    1.2340    2.6690 hc        1 FM8      0.092000
     38 H7          4.4320   -0.7550    0.4370 ha        1 FM8      0.119000
     39 H10         5.8850   -0.5350    4.9490 ha        1 FM8      0.092000
     40 H11         3.8620    0.4610    4.2930 ha        1 FM8      0.097000
     41 H14        -5.1490   -0.7660   -2.7600 ha        1 FM8      0.139000
     42 H15        -4.5210   -3.0350   -3.1200 ha        1 FM8      0.119500
     43 H16        -2.6830   -3.9720   -1.9590 ha        1 FM8      0.119500
     44 H17        -1.4640   -2.6530   -0.4100 ha        1 FM8      0.150000
     45 H18        -4.6680    1.1290   -0.5130 ha        1 FM8      0.164000
     46 H18A       -3.1600    1.5460   -0.9330 ha        1 FM8      0.164000
     47 H19        -4.9130    1.8060   -5.5030 DU        1 FM8      0.209500
     48 H20        -5.6220    3.1870   -1.8170 DU        1 FM8      0.209500
@<TRIPOS>BOND
     1    1    2 1   
     2    1    3 1   
     3    2    5 1   
     4    2    7 1   
     5    4   15 1   
     6    5    9 1   
     7    5   32 1   
     8    5   33 1   
     9    6   10 1   
    10    6   27 1   
    11    7   34 1   
    12    8   16 1   
    13    9   11 1   
    14    9   35 1   
    15    9   36 1   
    16   10   26 1   
    17   11   13 1   
    18   11   28 1   
    19   11   37 1   
    20   12   26 1   
    21   12   27 1   
    22   13   14 1   
    23   13   18 1   
    24   14   15 1   
    25   14   38 1   
    26   15   16 1   
    27   16   17 1   
    28   17   39 1   
    29   18   40 1   
    30   19   20 1   
    31   19   24 1   
    32   20   21 1   
    33   20   25 1   
    34   21   41 1   
    35   22   23 1   
    36   22   42 1   
    37   23   43 1   
    38   24   44 1   
    39   25   45 1   
    40   25   46 1   
    41   28   29 1   
    42   28   30 1   
    43   28   31 1   
@<TRIPOS>SUBSTRUCTURE
     1 FM8         1 TEMP              0 ****  ****    0 ROOT
