@<TRIPOS>MOLECULE
FM8
   48    49     1     0     0
SMALL
bcc


@<TRIPOS>ATOM
      1 C1         -1.8670   -0.5420   -0.5370 c2        1 FM8      0.291000
      2 N1         -1.3250   -0.7850    0.7780 n         1 FM8     -0.130000
      3 O1         -1.4480   -1.1940   -1.5060 o         1 FM8     -0.318000
      4 CL1         6.9780    0.1880    0.2150 cl        1 FM8     -0.116000
      5 C2          0.1350   -0.5470    0.8650 c3        1 FM8     -0.102000
      6 N2         -5.3670   -1.9510    0.4480 na        1 FM8     -0.147000
      7 O2         -2.0200   -0.2170    1.7560 oh        1 FM8     -0.263000
      8 CL2         6.2520   -1.4910   -2.3730 cl        1 FM8     -0.116000
      9 C3          0.5520    0.9120    0.6460 c3        1 FM8     -0.143000
     10 N3         -6.6360   -2.3930    0.4530 n2        1 FM8     -0.115000
     11 C4          1.9910    1.1390    0.8360 c2        1 FM8     -0.545000
     12 N4         -5.8340   -2.3310    2.6180 n2        1 FM8     -0.189000
     13 C6          2.9730    0.5720    0.0470 ca        1 FM8      0.140000
     14 C7          4.3560    0.6740    0.4230 ca        1 FM8     -0.238000
     15 C8          5.3410    0.0530   -0.3120 ca        1 FM8      0.028000
     16 C9          5.0390   -0.6880   -1.4650 ca        1 FM8     -0.246000
     17 C10         3.7030   -0.7570   -1.8850 ca        1 FM8     -0.057000
     18 C11         2.7030   -0.1500   -1.1620 ca        1 FM8     -0.264000
     19 C12        -3.0200    0.4020   -0.6810 ca        1 FM8     -0.110000
     20 C13        -4.3350   -0.0710   -0.7880 ca        1 FM8     -0.093000
     21 C14        -5.3830    0.8380   -0.9640 ca        1 FM8     -0.137000
     22 C15        -5.1190    2.2050   -1.0350 ca        1 FM8     -0.143000
     23 C16        -3.8100    2.6700   -0.9240 ca        1 FM8     -0.114000
     24 C17        -2.7540    1.7750   -0.7450 ca        1 FM8     -0.092000
     25 C18        -4.6340   -1.5410   -0.7410 c3        1 FM8      0.029000
     26 C19        -6.9120   -2.6290    1.7680 c2        1 FM8     -0.187000
     27 C20        -4.8740   -1.8990    1.7700 c2        1 FM8     -0.060000
     28 PA1         1.0930    3.5470    0.7080 p3        1 FM8      2.463000
     29 OP1        -0.0780    3.3810   -0.1960 o         1 FM8     -1.155667
     30 OP2         0.8160    3.4710    2.1610 o         1 FM8     -1.155667
     31 OP3         2.2910    4.2490    0.2150 o         1 FM8     -1.155667
     32 H2          0.4510   -0.8850    1.8880 h1        1 FM8      0.113000
     33 H2A         0.6100   -1.2090    0.0910 h1        1 FM8      0.113000
     34 HO2        -1.8010    0.7390    1.8230 ho        1 FM8      0.215000
     35 H3          0.2410    1.2220   -0.3920 hc        1 FM8      0.099500
     36 H3A        -0.0220    1.5420    1.3860 hc        1 FM8      0.099500
     37 H4          2.2840    1.6100    1.7870 ha        1 FM8      0.134000
     38 H7          4.6070    1.2750    1.3070 ha        1 FM8      0.131000
     39 H10         3.4590   -1.3080   -2.8060 ha        1 FM8      0.098000
     40 H11         1.6660   -0.1920   -1.5220 ha        1 FM8      0.118000
     41 H14        -6.4150    0.4680   -1.0430 ha        1 FM8      0.123000
     42 H15        -5.9480    2.9130   -1.1720 ha        1 FM8      0.114000
     43 H16        -3.5910    3.7480   -0.9700 ha        1 FM8      0.148000
     44 H17        -1.7120    2.1730   -0.6500 ha        1 FM8      0.254000
     45 H18        -3.6730   -2.1360   -0.7550 h1        1 FM8      0.120500
     46 H18A       -5.2340   -1.8190   -1.6550 h1        1 FM8      0.120500
     47 H19        -7.8680   -3.0100    2.1320 h5        1 FM8      0.186000
     48 H20        -3.8590   -1.5460    2.0180 h5        1 FM8      0.251000
@<TRIPOS>BOND
     1    1    2 1   
     2    1    3 1   
     3    1   19 1   
     4    2    5 1   
     5    2    7 1   
     6    4   15 1   
     7    5    9 1   
     8    5   32 1   
     9    5   33 1   
    10    6   10 1   
    11    6   25 1   
    12    6   27 1   
    13    7   34 1   
    14    8   16 1   
    15    9   11 1   
    16    9   35 1   
    17    9   36 1   
    18   10   26 1   
    19   11   13 1   
    20   11   37 1   
    21   12   26 1   
    22   12   27 1   
    23   13   14 1   
    24   13   18 1   
    25   14   15 1   
    26   14   38 1   
    27   15   16 1   
    28   16   17 1   
    29   17   18 1   
    30   17   39 1   
    31   18   40 1   
    32   19   20 1   
    33   19   24 1   
    34   20   21 1   
    35   20   25 1   
    36   21   22 1   
    37   21   41 1   
    38   22   23 1   
    39   22   42 1   
    40   23   24 1   
    41   23   43 1   
    42   24   44 1   
    43   25   45 1   
    44   25   46 1   
    45   26   47 1   
    46   27   48 1   
    47   28   29 1   
    48   28   30 1   
    49   28   31 1   
@<TRIPOS>SUBSTRUCTURE
     1 FM8         1 TEMP              0 ****  ****    0 ROOT
