@<TRIPOS>MOLECULE
FM8
   49    51     1     0     0
SMALL
bcc


@<TRIPOS>ATOM
      1 C1          0.0000    0.0000    0.0000 c         1 FM8      0.363700
      2 N1          1.3480    0.0000    0.0000 nx        1 FM8      0.253300
      3 O1         -0.6080    0.0000    1.0530 o         1 FM8     -0.553100
      4 Cl1         2.5770    2.9840    6.6550 cl        1 FM8     -0.062400
      5 C2          2.0800    0.1150    1.2640 c3        1 FM8     -0.041200
      6 N2         -1.7070    2.8850   -0.2410 na        1 FM8      0.363600
      7 O2          2.0560   -0.1110   -1.2210 oh        1 FM8     -0.532300
      8 Cl2        -0.5320    2.7250    6.7650 cl        1 FM8     -0.067400
      9 C3          2.0120   -1.2160    2.0150 c3        1 FM8     -0.006400
     10 N3         -0.3180    3.0940   -0.2070 nc        1 FM8     -0.713800
     11 C4          2.6790   -1.0630    3.3840 c3        1 FM8     -0.000600
     12 N4         -1.3170    4.9960   -0.2180 nd        1 FM8     -0.710000
     13 C6          1.8750   -0.1130    4.2320 ca        1 FM8      0.013700
     14 C7          2.5140    0.8730    4.9610 ca        1 FM8     -0.108000
     15 C8          1.7760    1.7450    5.7390 ca        1 FM8     -0.022600
     16 C9          0.3960    1.6310    5.7890 ca        1 FM8     -0.064600
     17 C10        -0.2420    0.6440    5.0580 ca        1 FM8     -0.092000
     18 C11         0.4970   -0.2240    4.2760 ca        1 FM8     -0.089000
     19 C12        -0.7390    0.0040   -1.2800 ca        1 FM8     -0.119600
     20 C13        -1.8980    0.7710   -1.4170 ca        1 FM8     -0.074300
     21 C14        -2.5830    0.7720   -2.6150 ca        1 FM8     -0.094000
     22 C15        -2.1230    0.0160   -3.6780 ca        1 FM8     -0.097000
     23 C16        -0.9760   -0.7460   -3.5490 ca        1 FM8     -0.091000
     24 C17        -0.2780   -0.7510   -2.3590 ca        1 FM8     -0.073000
     25 C18        -2.4010    1.5940   -0.2590 c3        1 FM8      0.014600
     26 C19        -0.1320    4.3870   -0.1940 cd        1 FM8      0.609900
     27 C20        -2.2730    4.1040   -0.2470 cc        1 FM8      0.302400
     28 PA1         2.7610   -2.6890    4.2040 p5        1 FM8      0.499700
     29 OP1         3.3420   -2.5090    5.6950 o         1 FM8     -0.577500
     30 OP2         3.7290   -3.6650    3.3660 o         1 FM8     -0.577500
     31 OP3         1.4050   -3.2770    4.2700 o         1 FM8     -0.577500
     32 H2          3.1150    0.3620    1.0600 hx        1 FM8      0.063200
     33 H2A         1.6350    0.8950    1.8690 hx        1 FM8      0.063200
     34 HO2         2.9530   -0.3420   -1.0450 ho        1 FM8      0.433000
     35 H3          0.9760   -1.5030    2.1490 hc        1 FM8      0.046700
     36 H3A         2.5280   -1.9790    1.4450 hc        1 FM8      0.046700
     37 H4          3.6820   -0.6730    3.2560 hc        1 FM8      0.034700
     38 H7          3.5950    0.9460    4.9420 ha        1 FM8      0.120000
     39 H10        -1.3210    0.5570    5.0920 ha        1 FM8      0.103000
     40 H11        -0.0020   -0.9970    3.7050 ha        1 FM8      0.143000
     41 H14        -3.4870    1.3600   -2.7200 ha        1 FM8      0.103000
     42 H15        -2.6660    0.0180   -4.6150 ha        1 FM8      0.101000
     43 H16        -0.6250   -1.3400   -4.3840 ha        1 FM8      0.104000
     44 H17         0.6200   -1.3480   -2.2590 ha        1 FM8      0.125000
     45 H18        -3.4660    1.7590   -0.3690 h1        1 FM8      0.065200
     46 H18A       -2.2100    1.0680    0.6680 h1        1 FM8      0.065200
     47 H19         0.8310    4.8840   -0.1690 h5        1 FM8      0.020100
     48 H20        -3.3360    4.3110   -0.2730 h5        1 FM8      0.022100
     49 H111        1.3480    0.9970   -0.0910 hn        1 FM8      0.262800
@<TRIPOS>BOND
     1    1    2 1   
     2    1    3 2   
     3    1   19 1   
     4    2    5 1   
     5    2    7 1   
     6    2   49 1   
     7    4   15 1   
     8    5    9 1   
     9    5   32 1   
    10    5   33 1   
    11    6   10 1   
    12    6   25 1   
    13    6   27 1   
    14    7   34 1   
    15    8   16 1   
    16    9   11 1   
    17    9   35 1   
    18    9   36 1   
    19   10   26 2   
    20   11   13 1   
    21   11   28 1   
    22   11   37 1   
    23   12   26 1   
    24   12   27 2   
    25   13   14 ar  
    26   13   18 ar  
    27   14   15 ar  
    28   14   38 1   
    29   15   16 ar  
    30   16   17 ar  
    31   17   18 ar  
    32   17   39 1   
    33   18   40 1   
    34   19   20 ar  
    35   19   24 ar  
    36   20   21 ar  
    37   20   25 1   
    38   21   22 ar  
    39   21   41 1   
    40   22   23 ar  
    41   22   42 1   
    42   23   24 ar  
    43   23   43 1   
    44   24   44 1   
    45   25   45 1   
    46   25   46 1   
    47   26   47 1   
    48   27   48 1   
    49   28   29 1   
    50   28   30 1   
    51   28   31 1   
@<TRIPOS>SUBSTRUCTURE
     1 FM8         1 TEMP              0 ****  ****    0 ROOT
