@<TRIPOS>MOLECULE
FM8
   48    49     1     0     0
SMALL
bcc


@<TRIPOS>ATOM
      1 C1       -117.8910  137.3400  -20.7100 c2        1 FM8      0.293000
      2 N1       -116.7900  137.1360  -19.8210 n         1 FM8     -0.124000
      3 O1       -118.8840  136.5910  -20.6620 o         1 FM8     -0.338000
      4 CL1      -110.3520  136.8680  -23.3330 cl        1 FM8     -0.088000
      5 C2       -116.4150  135.7300  -19.6010 c3        1 FM8     -0.092000
      6 N2       -118.2240  140.8500  -18.9120 na        1 FM8     -0.158000
      7 O2       -115.7660  137.9600  -19.9980 oh        1 FM8     -0.258000
      8 CL2      -109.1450  135.3890  -20.8040 cl        1 FM8     -0.084000
      9 C3       -116.0260  134.9370  -20.8540 c3        1 FM8     -0.078000
     10 N3       -118.6530  142.0780  -18.5660 n2        1 FM8     -0.111000
     11 C4       -115.0130  135.6040  -21.6800 c2        1 FM8     -0.524000
     12 N4       -116.5380  141.7250  -17.7050 n2        1 FM8     -0.178000
     13 C6       -113.6530  135.5350  -21.4680 ca        1 FM8      0.121000
     14 C7       -112.7440  136.1540  -22.3900 ca        1 FM8     -0.269000
     15 C8       -111.3800  136.1070  -22.1850 ca        1 FM8      0.033000
     16 C9       -110.8310  135.4550  -21.0720 ca        1 FM8     -0.234000
     17 C10      -111.6990  134.8430  -20.1560 ca        1 FM8     -0.049000
     18 C11      -113.0620  134.8790  -20.3410 ca        1 FM8     -0.272000
     19 C12      -117.8940  138.5570  -21.5810 ca        1 FM8     -0.075000
     20 C13      -118.4130  139.7780  -21.1330 ca        1 FM8     -0.081000
     21 C14      -118.4330  140.8770  -22.0000 ca        1 FM8     -0.116000
     22 C15      -117.9380  140.7590  -23.2970 ca        1 FM8     -0.130000
     23 C16      -117.4160  139.5420  -23.7370 ca        1 FM8     -0.123000
     24 C17      -117.3930  138.4420  -22.8830 ca        1 FM8     -0.098000
     25 C18      -118.9660  139.9200  -19.7440 c3        1 FM8      0.032000
     26 C19      -117.6330  142.6000  -17.8280 c2        1 FM8     -0.175000
     27 C20      -116.9240  140.6350  -18.4010 c2        1 FM8     -0.058000
     28 PA1      1279.3420-1510.5080  243.5300 p3        1 FM8      2.361000
     29 OP1      1278.7940-1509.3040  242.8820 o         1 FM8     -1.120000
     30 OP2      1278.7560-1511.8300  243.2450 o         1 FM8     -1.120000
     31 OP3      1280.4770-1510.3910  244.4630 o         1 FM8     -1.120000
     32 H2       -117.3040  135.2520  -19.1070 h1        1 FM8      0.101500
     33 H2A      -115.5460  135.7430  -18.8860 h1        1 FM8      0.101500
     34 HO2      -115.1220  137.5600  -20.6340 ho        1 FM8      0.245000
     35 H3       -115.6670  133.9320  -20.5000 hc        1 FM8      0.064500
     36 H3A      -116.9570  134.7630  -21.4600 hc        1 FM8      0.064500
     37 H4       -115.3820  136.0960  -22.5880 ha        1 FM8      0.088000
     38 H7       -113.1590  136.6620  -23.2690 ha        1 FM8      0.118000
     39 H10      -111.2760  134.3290  -19.2800 ha        1 FM8      0.106000
     40 H11      -113.7240  134.3930  -19.6120 ha        1 FM8      0.105000
     41 H14      -118.8370  141.8380  -21.6470 ha        1 FM8      0.140000
     42 H15      -117.9520  141.6280  -23.9700 ha        1 FM8      0.127000
     43 H16      -117.0140  139.4500  -24.7570 ha        1 FM8      0.133000
     44 H17      -116.9700  137.4810  -23.2200 ha        1 FM8      0.159000
     45 H18      -118.9530  138.9220  -19.2150 h1        1 FM8      0.122000
     46 H18A     -120.0390  140.2660  -19.8170 h1        1 FM8      0.122000
     47 H19      -117.6520  143.5930  -17.3720 h5        1 FM8      0.194000
     48 H20      -116.3550  139.7090  -18.5780 h5        1 FM8      0.247000
@<TRIPOS>BOND
     1    1    2 1   
     2    1    3 1   
     3    1   19 1   
     4    2    5 1   
     5    2    7 1   
     6    4   15 1   
     7    5    9 1   
     8    5   32 1   
     9    5   33 1   
    10    6   10 1   
    11    6   25 1   
    12    6   27 1   
    13    7   34 1   
    14    8   16 1   
    15    9   11 1   
    16    9   35 1   
    17    9   36 1   
    18   10   26 1   
    19   11   13 1   
    20   11   37 1   
    21   12   26 1   
    22   12   27 1   
    23   13   14 1   
    24   13   18 1   
    25   14   15 1   
    26   14   38 1   
    27   15   16 1   
    28   16   17 1   
    29   17   18 1   
    30   17   39 1   
    31   18   40 1   
    32   19   20 1   
    33   19   24 1   
    34   20   21 1   
    35   20   25 1   
    36   21   22 1   
    37   21   41 1   
    38   22   23 1   
    39   22   42 1   
    40   23   24 1   
    41   23   43 1   
    42   24   44 1   
    43   25   45 1   
    44   25   46 1   
    45   26   47 1   
    46   27   48 1   
    47   28   29 1   
    48   28   30 1   
    49   28   31 1   
@<TRIPOS>SUBSTRUCTURE
     1 FM8         1 TEMP              0 ****  ****    0 ROOT
