@<TRIPOS>MOLECULE
FM9
   44    46     1     0     0
SMALL
bcc


@<TRIPOS>ATOM
      1 C1          0.0100    0.6340    0.1460 ca        1 FM9      0.661900
      2 N1          1.3310    0.4070   -0.0390 nb        1 FM9     -0.761000
      3 S1         -2.6030   -0.2260    5.3460 ss        1 FM9      0.067700
      4 O1         -2.8270   -0.1610    7.8430 o         1 FM9     -0.583100
      5 F1         -0.5550    0.6490   13.6870 f         1 FM9     -0.131900
      6 C10        -1.2940    0.1410    9.6450 ca        1 FM9     -0.152600
      7 C11        -0.5400    1.2340   10.0830 ca        1 FM9     -0.063500
      8 C12        -0.2900    1.4140   11.4390 ca        1 FM9     -0.173500
      9 C13        -0.7990    0.4840   12.3670 ca        1 FM9      0.151900
     10 C14        -1.5630   -0.6140   11.9280 ca        1 FM9     -0.173500
     11 C15        -1.8130   -0.7740   10.5690 ca        1 FM9     -0.063500
     12 C16         4.2980   -0.2510    2.0360 c3        1 FM9      0.202500
     13 C17         5.6860   -0.7690    1.6520 c3        1 FM9     -0.116100
     14 C18         4.4420    1.1600    2.6100 c3        1 FM9     -0.116100
     15 C2         -0.0030    0.1640    2.3970 ca        1 FM9      0.440300
     16 N2         -0.7080    0.5390    1.2900 nb        1 FM9     -0.730000
     17 C3          1.3760   -0.1100    2.3410 ca        1 FM9     -0.385600
     18 N3         -0.0590    0.0810    4.8890 nc        1 FM9     -0.670000
     19 C4          2.0370    0.0090    1.0770 ca        1 FM9      0.663200
     20 N4         -0.6200   -0.0590    7.2550 n         1 FM9     -0.426300
     21 N5          3.3770   -0.3590    0.9160 nh        1 FM9     -0.832900
     22 C5         -0.7300    0.0410    3.6710 cc        1 FM9      0.282300
     23 C6         -2.1130   -0.1170    3.7710 cd        1 FM9     -0.276400
     24 C7         -0.9590   -0.0550    5.8900 cd        1 FM9      0.465300
     25 C8         -1.6390   -0.0310    8.2090 c         1 FM9      0.673700
     26 C9          0.7770   -0.0570    7.6080 c3        1 FM9      0.082300
     27 H1         -0.5530    0.9450   -0.7590 h5        1 FM9      0.050100
     28 H2         -0.1460    1.9610    9.3550 ha        1 FM9      0.154000
     29 H3          0.2960    2.2730   11.7950 ha        1 FM9      0.158000
     30 H4         -1.9620   -1.3300   12.6610 ha        1 FM9      0.158000
     31 H5         -2.4290   -1.6170   10.2150 ha        1 FM9      0.154000
     32 H6          3.8960   -0.9230    2.8540 h1        1 FM9      0.063700
     33 H7          5.6310   -1.8150    1.2650 hc        1 FM9      0.045533
     34 H8          6.1540   -0.1210    0.8720 hc        1 FM9      0.045533
     35 H9          6.3350   -0.7580    2.5600 hc        1 FM9      0.045533
     36 H10         3.4500    1.5540    2.9390 hc        1 FM9      0.045533
     37 H11         4.8710    1.8570    1.8520 hc        1 FM9      0.045533
     38 H12         5.1240    1.1300    3.4920 hc        1 FM9      0.045533
     39 H13         1.9230   -0.4110    3.2420 ha        1 FM9      0.167000
     40 H14         3.7830   -0.1070    0.0370 hn        1 FM9      0.418800
     41 H15        -2.7850   -0.1510    2.9120 h4        1 FM9      0.199000
     42 H16         1.3250   -0.8240    6.9970 h1        1 FM9      0.056033
     43 H17         0.9050   -0.3070    8.6940 h1        1 FM9      0.056033
     44 H18         1.2250    0.9530    7.4030 h1        1 FM9      0.056033
@<TRIPOS>BOND
     1    1    2 ar  
     2    1   16 ar  
     3    1   27 1   
     4    2   19 ar  
     5    3   23 1   
     6    3   24 1   
     7    4   25 2   
     8    5    9 1   
     9    6    7 ar  
    10    6   11 ar  
    11    6   25 1   
    12    7    8 ar  
    13    7   28 1   
    14    8    9 ar  
    15    8   29 1   
    16    9   10 ar  
    17   10   11 ar  
    18   10   30 1   
    19   11   31 1   
    20   12   13 1   
    21   12   14 1   
    22   12   21 1   
    23   12   32 1   
    24   13   33 1   
    25   13   34 1   
    26   13   35 1   
    27   14   36 1   
    28   14   37 1   
    29   14   38 1   
    30   15   16 ar  
    31   15   17 ar  
    32   15   22 1   
    33   17   19 ar  
    34   17   39 1   
    35   18   22 1   
    36   18   24 2   
    37   19   21 1   
    38   20   24 1   
    39   20   25 1   
    40   20   26 1   
    41   21   40 1   
    42   22   23 2   
    43   23   41 1   
    44   26   42 1   
    45   26   43 1   
    46   26   44 1   
@<TRIPOS>SUBSTRUCTURE
     1 FM9         1 TEMP              0 ****  ****    0 ROOT
