@<TRIPOS>MOLECULE
FM9
   44    46     1     0     0
SMALL
bcc


@<TRIPOS>ATOM
      1 C1          0.0040    0.6130    0.1450 ca        1 FM9      0.661900
      2 N1          1.3270    0.3970   -0.0400 nb        1 FM9     -0.761000
      3 S1         -2.5980   -0.2600    5.3480 ss        1 FM9      0.067700
      4 O1         -2.8230   -0.1910    7.8440 o         1 FM9     -0.583100
      5 F1         -0.5590    0.6580   13.6860 f         1 FM9     -0.131900
      6 C10        -1.2940    0.1320    9.6460 ca        1 FM9     -0.152600
      7 C11        -0.5520    1.2350   10.0810 ca        1 FM9     -0.063500
      8 C12        -0.3040    1.4210   11.4370 ca        1 FM9     -0.173500
      9 C13        -0.8020    0.4870   12.3670 ca        1 FM9      0.151900
     10 C14        -1.5530   -0.6200   11.9300 ca        1 FM9     -0.173500
     11 C15        -1.8010   -0.7870   10.5720 ca        1 FM9     -0.063500
     12 C16         4.3000   -0.2310    2.0350 c3        1 FM9      0.202500
     13 C17         5.6930   -0.7380    1.6520 c3        1 FM9     -0.116100
     14 C18         4.4330    1.1830    2.6060 c3        1 FM9     -0.116100
     15 C2         -0.0040    0.1480    2.3970 ca        1 FM9      0.440300
     16 N2         -0.7130    0.5150    1.2900 nb        1 FM9     -0.730000
     17 C3          1.3770   -0.1140    2.3410 ca        1 FM9     -0.385600
     18 N3         -0.0580    0.0720    4.8890 nc        1 FM9     -0.670000
     19 C4          2.0370    0.0080    1.0770 ca        1 FM9      0.663200
     20 N4         -0.6170   -0.0650    7.2560 n         1 FM9     -0.426300
     21 N5          3.3800   -0.3490    0.9160 nu        1 FM9     -0.832900
     22 C5         -0.7290    0.0220    3.6720 cc        1 FM9      0.282300
     23 C6         -2.1100   -0.1510    3.7730 cd        1 FM9     -0.276400
     24 C7         -0.9570   -0.0700    5.8910 cd        1 FM9      0.465300
     25 C8         -1.6370   -0.0470    8.2100 c         1 FM9      0.673700
     26 C9          0.7800   -0.0470    7.6090 c3        1 FM9      0.082300
     27 H1         -0.5620    0.9170   -0.7600 h5        1 FM9      0.050100
     28 H2         -0.1660    1.9650    9.3510 ha        1 FM9      0.154000
     29 H3          0.2730    2.2880   11.7900 ha        1 FM9      0.158000
     30 H4         -1.9440   -1.3390   12.6650 ha        1 FM9      0.158000
     31 H5         -2.4080   -1.6370   10.2200 ha        1 FM9      0.154000
     32 H6          3.9040   -0.9040    2.8550 h1        1 FM9      0.063700
     33 H7          5.6460   -1.7840    1.2670 hc        1 FM9      0.045533
     34 H8          6.1550   -0.0880    0.8700 hc        1 FM9      0.045533
     35 H9          6.3420   -0.7190    2.5600 hc        1 FM9      0.045533
     36 H10         3.4370    1.5690    2.9350 hc        1 FM9      0.045533
     37 H11         5.1150    1.1600    3.4880 hc        1 FM9      0.045533
     38 H12         4.8560    1.8820    1.8460 hc        1 FM9      0.045533
     39 H13         1.9280   -0.4070    3.2430 ha        1 FM9      0.167000
     40 H14         3.7840   -0.0950    0.0360 hn        1 FM9      0.418800
     41 H15        -2.7820   -0.1950    2.9140 h4        1 FM9      0.199000
     42 H16         0.9100   -0.2930    8.6950 h1        1 FM9      0.056033
     43 H17         1.3360   -0.8100    7.0000 h1        1 FM9      0.056033
     44 H18         1.2170    0.9670    7.4010 h1        1 FM9      0.056033
@<TRIPOS>BOND
     1    1    2 ar  
     2    1   16 ar  
     3    1   27 1   
     4    2   19 ar  
     5    3   23 1   
     6    3   24 1   
     7    4   25 2   
     8    5    9 1   
     9    6    7 ar  
    10    6   11 ar  
    11    6   25 1   
    12    7    8 ar  
    13    7   28 1   
    14    8    9 ar  
    15    8   29 1   
    16    9   10 ar  
    17   10   11 ar  
    18   10   30 1   
    19   11   31 1   
    20   12   13 1   
    21   12   14 1   
    22   12   21 1   
    23   12   32 1   
    24   13   33 1   
    25   13   34 1   
    26   13   35 1   
    27   14   36 1   
    28   14   37 1   
    29   14   38 1   
    30   15   16 ar  
    31   15   17 ar  
    32   15   22 1   
    33   17   19 ar  
    34   17   39 1   
    35   18   22 1   
    36   18   24 2   
    37   19   21 1   
    38   20   24 1   
    39   20   25 1   
    40   20   26 1   
    41   21   40 1   
    42   22   23 2   
    43   23   41 1   
    44   26   42 1   
    45   26   43 1   
    46   26   44 1   
@<TRIPOS>SUBSTRUCTURE
     1 FM9         1 TEMP              0 ****  ****    0 ROOT
