@<TRIPOS>MOLECULE
FM9
   46    48     1     0     0
SMALL
bcc


@<TRIPOS>ATOM
      1 C1          0.1210    0.4370    0.6570 ca        1 FM9      0.694900
      2 N1          1.4660    0.2930    0.5390 nb        1 FM9     -0.666000
      3 S1         -2.5940    0.1680    5.8420 ss        1 FM9      0.202700
      4 O1          1.0440   -0.0330    7.9540 o         1 FM9     -0.406100
      5 F1         -1.8930    1.1440   13.5190 f         1 FM9     -0.079900
      6 C10        -0.5560   -0.0060    9.7730 ca        1 FM9     -0.244600
      7 C11        -0.1620    1.2340   10.3130 ca        1 FM9     -0.040000
      8 C12        -0.6110    1.6290   11.5650 ca        1 FM9     -0.166000
      9 C13        -1.4530    0.7730   12.3060 ca        1 FM9      0.232900
     10 C14        -1.8300   -0.4840   11.7750 ca        1 FM9     -0.166000
     11 C15        -1.3820   -0.8640   10.5210 ca        1 FM9     -0.040000
     12 C16         4.3330    1.1630    1.3230 c3        1 FM9      0.150500
     13 C17         5.6230    1.2270    2.1280 c3        1 FM9     -0.141600
     14 C18         4.6260    1.3020   -0.1630 c3        1 FM9     -0.141600
     15 C2          0.0680    0.0720    2.9400 ca        1 FM9      0.451300
     16 N2         -0.6120    0.3400    1.7970 nb        1 FM9     -0.647000
     17 C3          1.4820   -0.0940    2.9470 ca        1 FM9     -0.312600
     18 N3         -0.2070   -0.6930    5.2990 nc        1 FM9     -0.561000
     19 C4          2.1320    0.0280    1.6990 ca        1 FM9      0.510200
     20 N4         -0.9380   -1.2470    7.5910 n4        1 FM9     -0.549900
     21 N5          3.5980   -0.1450    1.6170 n4        1 FM9     -0.765700
     22 C5         -0.7020   -0.0400    4.1890 cc        1 FM9      0.257300
     23 C6         -2.0030    0.4790    4.3500 cd        1 FM9     -0.191400
     24 C7         -1.1460   -0.6520    6.2780 cd        1 FM9      0.350300
     25 C8         -0.0140   -0.3550    8.4650 c         1 FM9      0.590700
     26 C9         -0.3660   -2.6190    7.5070 c3        1 FM9      0.094100
     27 H1         -0.4370    0.6530   -0.2870 h5        1 FM9      0.112100
     28 H2          0.5120    1.8940    9.7390 ha        1 FM9      0.152500
     29 H3         -0.3090    2.6010   11.9910 ha        1 FM9      0.191000
     30 H4         -2.4710   -1.1540   12.3750 ha        1 FM9      0.191000
     31 H5         -1.6570   -1.8650   10.1520 ha        1 FM9      0.152500
     32 H6          3.6430    1.9960    1.6520 hx        1 FM9      0.109700
     33 H7          6.3400    0.4230    1.8270 hc        1 FM9      0.085867
     34 H8          5.4340    1.1610    3.2270 hc        1 FM9      0.085867
     35 H9          6.1100    2.2160    1.9210 hc        1 FM9      0.085867
     36 H10         5.0970    2.3050   -0.3300 hc        1 FM9      0.085867
     37 H11         5.3420    0.5200   -0.5140 hc        1 FM9      0.085867
     38 H12         3.6950    1.2530   -0.7800 hc        1 FM9      0.085867
     39 H13         2.0190   -0.3050    3.8830 ha        1 FM9      0.190000
     40 H14         3.8180   -0.8180    0.8670 hn        1 FM9      0.467300
     41 H15        -2.5480    1.0160    3.5600 h4        1 FM9      0.242000
     42 H16        -0.3720   -3.0670    8.5370 hx        1 FM9      0.112367
     43 H17         0.6900   -2.5610    7.1240 hx        1 FM9      0.112367
     44 H18        -0.9820   -3.2480    6.8100 hx        1 FM9      0.112367
     45 H41        -1.8590   -1.3010    8.0470 hn        1 FM9      0.459800
     46 H52         3.9290   -0.5260    2.5110 hn        1 FM9      0.467300
@<TRIPOS>BOND
     1    1    2 ar  
     2    1   16 ar  
     3    1   27 1   
     4    2   19 ar  
     5    3   23 1   
     6    3   24 1   
     7    4   25 2   
     8    5    9 1   
     9    6    7 ar  
    10    6   11 ar  
    11    6   25 1   
    12    7    8 ar  
    13    7   28 1   
    14    8    9 ar  
    15    8   29 1   
    16    9   10 ar  
    17   10   11 ar  
    18   10   30 1   
    19   11   31 1   
    20   12   13 1   
    21   12   14 1   
    22   12   21 1   
    23   12   32 1   
    24   13   33 1   
    25   13   34 1   
    26   13   35 1   
    27   14   36 1   
    28   14   37 1   
    29   14   38 1   
    30   15   16 ar  
    31   15   17 ar  
    32   15   22 1   
    33   17   19 ar  
    34   17   39 1   
    35   18   22 1   
    36   18   24 2   
    37   19   21 1   
    38   20   24 1   
    39   20   25 1   
    40   20   26 1   
    41   20   45 1   
    42   21   40 1   
    43   21   46 1   
    44   22   23 2   
    45   23   41 1   
    46   26   42 1   
    47   26   43 1   
    48   26   44 1   
@<TRIPOS>SUBSTRUCTURE
     1 FM9         1 TEMP              0 ****  ****    0 ROOT
