@<TRIPOS>MOLECULE
FMB
   31    33     1     0     0
SMALL
bcc


@<TRIPOS>ATOM
      1 N1         -0.0730   -0.1890    0.2150 ns        1 FMB     -0.484400
      2 C2          1.2840    0.1220    0.1100 cc        1 FMB      0.469800
      3 N3          2.1560    0.2130    1.0960 nd        1 FMB     -0.559100
      4 C4          1.6430   -0.0340    2.3560 cd        1 FMB      0.034100
      5 C5          0.2620   -0.3610    2.5720 cc        1 FMB     -0.223900
      6 C6         -0.6770   -0.4530    1.4610 c         1 FMB      0.730100
      7 O6         -1.8860   -0.7270    1.5400 o         1 FMB     -0.620500
      8 N7          0.1030   -0.5380    3.9420 na        1 FMB      0.041400
      9 N8          1.2440   -0.3590    4.5940 nc        1 FMB     -0.472800
     10 C9          2.2210   -0.0450    3.6870 cd        1 FMB      0.309600
     11 C1'         3.6490    0.2250    4.0080 c3        1 FMB      0.090800
     12 C2'         3.8190    1.4470    4.9390 c3        1 FMB      0.090100
     13 O2'         4.7110    2.4000    4.4080 oh        1 FMB     -0.587800
     14 C3'         4.3570    0.8700    6.2710 c3        1 FMB      0.087100
     15 O3'         5.6100    1.4440    6.5980 oh        1 FMB     -0.593800
     16 C4'         4.5850   -0.6270    6.0150 c3        1 FMB      0.093100
     17 O4'         4.2440   -0.9100    4.6490 os        1 FMB     -0.414600
     18 C5'         3.7360   -1.5060    6.9320 c3        1 FMB      0.121400
     19 O5'         3.9320   -2.8750    6.6480 oh        1 FMB     -0.595800
     20 HN1        -0.6380   -0.2320   -0.6030 hn        1 FMB      0.343500
     21 H2          1.6540    0.3110   -0.9210 h5        1 FMB      0.060800
     22 HN7        -0.7340   -0.7950    4.4170 hn        1 FMB      0.346700
     23 H1'         4.2190    0.3640    3.0450 h1        1 FMB      0.106700
     24 H2'         2.8570    2.0060    5.0800 h1        1 FMB      0.102700
     25 HO2         5.5690    1.9670    4.2920 ho        1 FMB      0.418000
     26 H3'         3.6280    1.0410    7.1070 h1        1 FMB      0.063700
     27 HO3         5.4790    2.4020    6.6300 ho        1 FMB      0.419000
     28 H4'         5.6730   -0.8970    6.1140 h1        1 FMB      0.099700
     29 H5'1        4.0680   -1.3770    7.9970 h1        1 FMB      0.055700
     30 H5'2        2.6500   -1.2440    6.8340 h1        1 FMB      0.055700
     31 HO5         3.7570   -2.9960    5.7050 ho        1 FMB      0.415000
@<TRIPOS>BOND
     1    1    2 1   
     2    1    6 1   
     3    1   20 1   
     4    2    3 2   
     5    2   21 1   
     6    3    4 1   
     7    4    5 2   
     8    4   10 1   
     9    5    6 1   
    10    5    8 1   
    11    6    7 2   
    12    8    9 1   
    13    8   22 1   
    14    9   10 2   
    15   10   11 1   
    16   11   12 1   
    17   11   17 1   
    18   11   23 1   
    19   12   13 1   
    20   12   14 1   
    21   12   24 1   
    22   13   25 1   
    23   14   15 1   
    24   14   16 1   
    25   14   26 1   
    26   15   27 1   
    27   16   17 1   
    28   16   18 1   
    29   16   28 1   
    30   18   19 1   
    31   18   29 1   
    32   18   30 1   
    33   19   31 1   
@<TRIPOS>SUBSTRUCTURE
     1 FMB         1 TEMP              0 ****  ****    0 ROOT
