@<TRIPOS>MOLECULE
FMB
   31    33     1     0     0
SMALL
bcc


@<TRIPOS>ATOM
      1 N1         -0.2000    0.6120    0.6730 n         1 FMB     -0.484400
      2 C2          1.0430    1.2380    0.7750 cc        1 FMB      0.472800
      3 N3          2.0000    0.9660    1.6430 nd        1 FMB     -0.578100
      4 C4          1.7100   -0.0560    2.5290 cd        1 FMB      0.010100
      5 C5          0.4600   -0.7610    2.5130 cc        1 FMB     -0.216900
      6 C6         -0.5770   -0.4340    1.5410 c         1 FMB      0.730100
      7 O6         -1.6880   -0.9780    1.4380 o         1 FMB     -0.614500
      8 N7          0.5200   -1.7000    3.5350 na        1 FMB      0.038400
      9 N8          1.6800   -1.6520    4.1790 nc        1 FMB     -0.451800
     10 C9          2.4510   -0.6720    3.6150 cd        1 FMB      0.301600
     11 C1'         3.8390   -0.2880    3.9900 c3        1 FMB      0.086800
     12 C2'         3.8900    1.1540    4.5540 c3        1 FMB      0.091100
     13 O2'         4.8670    1.9190    3.8770 oh        1 FMB     -0.594800
     14 C3'         4.3390    1.0040    6.0270 c3        1 FMB      0.135100
     15 O3'         5.4940    1.7400    6.3430 oh        1 FMB     -0.575800
     16 C4'         4.5430   -0.5090    6.2310 c3        1 FMB      0.055100
     17 O4'         4.4070   -1.1660    4.9610 os        1 FMB     -0.402600
     18 C5'         3.5250   -1.0990    7.2060 c3        1 FMB      0.124400
     19 O5'         3.6360   -2.5030    7.2750 oh        1 FMB     -0.595800
     20 HN1        -0.8450    0.8990   -0.0280 hn        1 FMB      0.344500
     21 H2          1.2320    2.0510    0.0410 h5        1 FMB      0.059800
     22 HN7        -0.1840   -2.3590    3.7830 hn        1 FMB      0.347700
     23 H1'         4.4950   -0.3890    3.0770 h1        1 FMB      0.097700
     24 H2'         2.8890    1.6540    4.4860 h1        1 FMB      0.067700
     25 HO2         4.5210    2.0900    2.9910 ho        1 FMB      0.425000
     26 H3'         3.5510    1.4050    6.7220 h1        1 FMB      0.090700
     27 HO3         6.1440    1.5990    5.6410 ho        1 FMB      0.423000
     28 H4'         5.5890   -0.7420    6.5710 h1        1 FMB      0.094700
     29 H5'1        2.4830   -0.8110    6.9010 h1        1 FMB      0.049700
     30 H5'2        3.7340   -0.7340    8.2460 h1        1 FMB      0.049700
     31 HO5         3.5480   -2.8390    6.3720 ho        1 FMB      0.419000
@<TRIPOS>BOND
     1    1    2 1   
     2    1    6 1   
     3    1   20 1   
     4    2    3 2   
     5    2   21 1   
     6    3    4 1   
     7    4    5 2   
     8    4   10 1   
     9    5    6 1   
    10    5    8 1   
    11    6    7 2   
    12    8    9 1   
    13    8   22 1   
    14    9   10 2   
    15   10   11 1   
    16   11   12 1   
    17   11   17 1   
    18   11   23 1   
    19   12   13 1   
    20   12   14 1   
    21   12   24 1   
    22   13   25 1   
    23   14   15 1   
    24   14   16 1   
    25   14   26 1   
    26   15   27 1   
    27   16   17 1   
    28   16   18 1   
    29   16   28 1   
    30   18   19 1   
    31   18   29 1   
    32   18   30 1   
    33   19   31 1   
@<TRIPOS>SUBSTRUCTURE
     1 FMB         1 TEMP              0 ****  ****    0 ROOT
