@<TRIPOS>MOLECULE
FMB
   31    33     1     0     0
SMALL
bcc


@<TRIPOS>ATOM
      1 N1         -0.1010    0.8920   -4.2150 n         1 FMB     -0.484400
      2 C2         -0.9060    1.6220   -3.3390 cc        1 FMB      0.468800
      3 N3         -0.9970    1.4700   -2.0310 nd        1 FMB     -0.556100
      4 C4         -0.1940    0.4790   -1.5000 cd        1 FMB      0.035100
      5 C5          0.6710   -0.3280   -2.3140 cc        1 FMB     -0.224900
      6 C6          0.7460   -0.1370   -3.7580 c         1 FMB      0.730100
      7 O6          1.4580   -0.7790   -4.5490 o         1 FMB     -0.620500
      8 N7          1.3180   -1.2110   -1.4580 na        1 FMB      0.041400
      9 N8          0.9470   -1.0300   -0.1980 nc        1 FMB     -0.472800
     10 C9          0.0240   -0.0180   -0.1540 cd        1 FMB      0.308600
     11 C1'        -0.6350    0.5030    1.0750 c3        1 FMB      0.121800
     12 C2'        -1.4650   -0.5810    1.7940 c3        1 FMB      0.088100
     13 O2'        -2.7740   -0.0640    1.9580 oh        1 FMB     -0.592800
     14 C3'        -0.7840   -0.7840    3.1700 c3        1 FMB      0.090100
     15 O3'        -1.6990   -0.5670    4.2210 oh        1 FMB     -0.590800
     16 C4'         0.3890    0.2070    3.1940 c3        1 FMB      0.064100
     17 O4'         0.3470    0.9960    1.9960 os        1 FMB     -0.413600
     18 C5'         1.7430   -0.4970    3.2790 c3        1 FMB      0.121400
     19 O5'         2.8030    0.4340    3.2670 oh        1 FMB     -0.595800
     20 HN1        -0.1120    1.0970   -5.1890 hn        1 FMB      0.343500
     21 H2         -1.5330    2.4100   -3.8080 h5        1 FMB      0.060800
     22 HN7         2.0030   -1.8900   -1.7070 hn        1 FMB      0.345700
     23 H1'        -1.2750    1.3920    0.8050 h1        1 FMB      0.118700
     24 H2'        -1.5020   -1.5380    1.2130 h1        1 FMB      0.068700
     25 HO2        -3.2710   -0.7240    2.4610 ho        1 FMB      0.418000
     26 H3'        -0.4390   -1.8430    3.3090 h1        1 FMB      0.096700
     27 HO3        -2.0260    0.3410    4.1420 ho        1 FMB      0.418000
     28 H4'         0.2900    0.9440    4.0390 h1        1 FMB      0.086700
     29 H5'1        1.8600   -1.2260    2.4330 h1        1 FMB      0.055700
     30 H5'2        1.8340   -1.0330    4.2610 h1        1 FMB      0.055700
     31 HO5         2.6910    0.9810    2.4780 ho        1 FMB      0.415000
@<TRIPOS>BOND
     1    1    2 1   
     2    1    6 1   
     3    1   20 1   
     4    2    3 2   
     5    2   21 1   
     6    3    4 1   
     7    4    5 2   
     8    4   10 1   
     9    5    6 1   
    10    5    8 1   
    11    6    7 2   
    12    8    9 1   
    13    8   22 1   
    14    9   10 2   
    15   10   11 1   
    16   11   12 1   
    17   11   17 1   
    18   11   23 1   
    19   12   13 1   
    20   12   14 1   
    21   12   24 1   
    22   13   25 1   
    23   14   15 1   
    24   14   16 1   
    25   14   26 1   
    26   15   27 1   
    27   16   17 1   
    28   16   18 1   
    29   16   28 1   
    30   18   19 1   
    31   18   29 1   
    32   18   30 1   
    33   19   31 1   
@<TRIPOS>SUBSTRUCTURE
     1 FMB         1 TEMP              0 ****  ****    0 ROOT
