@<TRIPOS>MOLECULE
FMB
   31    26     1     0     0
SMALL
bcc


@<TRIPOS>ATOM
      1 N1         -2.3360   -0.2350   -3.9080 n2        1 FMB     -0.324000
      2 C2         -0.9980   -0.3430   -3.9210 c1        1 FMB      0.044000
      3 N3         -0.2880   -0.2250   -2.7490 n1        1 FMB     -0.128000
      4 C4         -0.9480    0.0030   -1.5640 c1        1 FMB     -0.109500
      5 C5         -2.2760    0.1100   -1.5520 c1        1 FMB     -0.109500
      6 C6         -2.9920   -0.0090   -2.7340 c1        1 FMB      0.367000
      7 O6         -4.1360    0.0600   -2.7200 o         1 FMB     -0.347000
      8 N7         -2.6800    0.3410   -0.2290 n1        1 FMB     -0.104000
      9 N8         -1.5780    0.3700    0.5450 n2        1 FMB     -0.044000
     10 C9         -0.4930    0.1640   -0.2570 c1        1 FMB     -0.113000
     11 C1'         1.0310    0.2490   -0.1940 c2        1 FMB      0.101000
     12 C2'         1.4720    1.2680    0.9140 c3        1 FMB      0.025000
     13 O2'         2.4300    2.0760    0.4440 oh        1 FMB     -0.316000
     14 C3'         2.0030    0.4260    2.0520 c3        1 FMB     -0.025000
     15 O3'         3.5340    0.5240    2.1190 oh        1 FMB     -0.328000
     16 C4'         1.6380   -0.7970    1.7630 c3        1 FMB     -0.048000
     17 O4'         1.5140   -0.8640    0.1680 os        1 FMB     -0.265000
     18 C5'         0.2940   -1.1040    2.4050 c3        1 FMB     -0.030000
     19 O5'        -0.1610   -2.4200    1.9690 oh        1 FMB     -0.324000
     20 HN1        -2.8190   -0.3160   -4.7060 hn        1 FMB      0.257000
     21 H2         -0.5090   -0.5100   -4.8020 ha        1 FMB      0.190000
     22 HN7        -3.5050    0.4490    0.0460 DU        1 FMB      0.295000
     23 H1'         1.4200    0.5320   -1.1230 h4        1 FMB      0.162000
     24 H2'         0.6870    1.8010    1.2190 h1        1 FMB      0.104000
     25 HO2         2.2260    2.9500    0.6560 ho        1 FMB      0.228000
     26 H3'         1.5900    0.7210    2.9280 h1        1 FMB      0.101000
     27 HO3         3.7770    0.7060    2.9310 ho        1 FMB      0.219000
     28 H4'         2.3270   -1.4470    2.0820 h1        1 FMB      0.121000
     29 H5'1       -0.3200   -0.4690    2.1500 h1        1 FMB      0.093000
     30 H5'2        0.3900   -1.0940    3.4170 h1        1 FMB      0.093000
     31 HO5        -0.2930   -2.9160    2.6520 ho        1 FMB      0.216000
@<TRIPOS>BOND
     1    1    6 1   
     2    1   20 1   
     3    2    3 1   
     4    2   21 1   
     5    4    5 1   
     6    6    7 1   
     7    8    9 1   
     8    9   10 1   
     9   11   12 1   
    10   11   17 1   
    11   11   23 1   
    12   12   13 1   
    13   12   14 1   
    14   12   24 1   
    15   13   25 1   
    16   14   15 1   
    17   14   16 1   
    18   14   26 1   
    19   15   27 1   
    20   16   17 1   
    21   16   18 1   
    22   16   28 1   
    23   18   19 1   
    24   18   29 1   
    25   18   30 1   
    26   19   31 1   
@<TRIPOS>SUBSTRUCTURE
     1 FMB         1 TEMP              0 ****  ****    0 ROOT
