@<TRIPOS>MOLECULE
FMC
   32    34     1     0     0
SMALL
bcc


@<TRIPOS>ATOM
      1 N1         -0.2010    0.8130    0.5790 nb        1 FMC     -0.744000
      2 C2          1.0870    1.2670    0.6470 ca        1 FMC      0.652900
      3 N3          2.0430    0.9920    1.5620 nb        1 FMC     -0.686000
      4 C4          1.6270    0.1630    2.5470 ca        1 FMC      0.330000
      5 C5          0.2830   -0.3750    2.6080 ca        1 FMC     -0.344800
      6 C6         -0.6360   -0.0230    1.5660 ca        1 FMC      0.685200
      7 N6         -1.9580   -0.4640    1.6230 nv        1 FMC     -0.925500
      8 N7          0.2410   -1.2280    3.7240 na        1 FMC      0.016900
      9 N8          1.3960   -1.1870    4.4020 nc        1 FMC     -0.471100
     10 C9          2.2820   -0.4160    3.7320 cd        1 FMC      0.210300
     11 C1'         3.7170   -0.1800    4.0480 c3        1 FMC      0.102800
     12 C2'         3.9860    1.3160    4.3490 c3        1 FMC      0.093100
     13 O2'         5.0420    1.8010    3.5460 oh        1 FMC     -0.594800
     14 C3'         4.4470    1.3620    5.8260 c3        1 FMC      0.134100
     15 O3'         5.7130    1.9460    6.0050 oh        1 FMC     -0.575800
     16 C4'         4.4150   -0.1030    6.3000 c3        1 FMC      0.054100
     17 O4'         4.1650   -0.9470    5.1650 os        1 FMC     -0.402600
     18 C5'         3.3270   -0.3440    7.3460 c3        1 FMC      0.124400
     19 O5'         3.2120   -1.7130    7.6630 oh        1 FMC     -0.596800
     20 H2          1.3790    1.9500   -0.1800 h5        1 FMC      0.059100
     21 HN7        -0.5930   -1.4510    4.2230 hn        1 FMC      0.321700
     22 H5'         3.6010    0.1610    8.3100 h1        1 FMC      0.048700
     23 H5'A        2.3410    0.0480    6.9760 h1        1 FMC      0.048700
     24 H1'         4.3380   -0.5340    3.1740 h1        1 FMC      0.099700
     25 H2'         3.0630    1.9350    4.1980 h1        1 FMC      0.068700
     26 HO2'        4.6900    1.8950    2.6510 ho        1 FMC      0.428000
     27 H3'         3.7530    2.0020    6.4370 h1        1 FMC      0.089700
     28 HO3'        6.3090    1.5890    5.3330 ho        1 FMC      0.424000
     29 H4'         5.4150   -0.4320    6.6950 h1        1 FMC      0.095700
     30 HO5'        3.0730   -2.1860    6.8300 ho        1 FMC      0.419000
     31 HN6        -2.5250   -0.2590    0.8290 hn        1 FMC      0.416300
     32 HN6A       -2.0710   -1.3850    1.9830 hn        1 FMC      0.416300
@<TRIPOS>BOND
     1    1    2 ar  
     2    1    6 ar  
     3    2    3 ar  
     4    2   20 1   
     5    3    4 ar  
     6    4    5 ar  
     7    4   10 1   
     8    5    6 ar  
     9    5    8 1   
    10    6    7 1   
    11    7   31 1   
    12    7   32 1   
    13    8    9 1   
    14    8   21 1   
    15    9   10 2   
    16   10   11 1   
    17   11   12 1   
    18   11   17 1   
    19   11   24 1   
    20   12   13 1   
    21   12   14 1   
    22   12   25 1   
    23   13   26 1   
    24   14   15 1   
    25   14   16 1   
    26   14   27 1   
    27   15   28 1   
    28   16   17 1   
    29   16   18 1   
    30   16   29 1   
    31   18   19 1   
    32   18   22 1   
    33   18   23 1   
    34   19   30 1   
@<TRIPOS>SUBSTRUCTURE
     1 FMC         1 TEMP              0 ****  ****    0 ROOT
