@<TRIPOS>MOLECULE
FMC
   32    27     1     0     0
SMALL
bcc


@<TRIPOS>ATOM
      1 N1         -2.0880    0.1280   -4.1310 n1        1 FMC     -0.218000
      2 C2         -0.7240    0.1280   -4.1310 c1        1 FMC     -0.009000
      3 N3         -0.0400    0.1280   -2.9490 n1        1 FMC     -0.161000
      4 C4         -0.7190    0.1280   -1.7670 c1        1 FMC     -0.099500
      5 C5         -2.0660    0.1280   -1.7660 c1        1 FMC     -0.099500
      6 C6         -2.7600    0.1280   -2.9690 c1        1 FMC      0.166000
      7 N6         -4.1080    0.1670   -3.4230 n3        1 FMC     -0.324000
      8 N7         -2.4890    0.1280   -0.4590 n1        1 FMC     -0.157000
      9 N8         -1.3790    0.1280    0.3460 n2        1 FMC     -0.006000
     10 C9         -0.2900    0.1280   -0.4440 c1        1 FMC     -0.119000
     11 C1'         1.0060   -0.0810   -0.0210 c2        1 FMC      0.067000
     12 C2'         1.5090    1.1320    0.7770 c3        1 FMC     -0.019000
     13 O2'         2.8630    1.5130    0.3280 oh        1 FMC     -0.322000
     14 C3'         1.5410    0.7240    2.0370 c3        1 FMC      0.024000
     15 O3'         2.6380    1.3480    2.7320 oh        1 FMC     -0.303000
     16 C4'         1.7550   -0.8770    1.9860 c3        1 FMC     -0.056000
     17 O4'         1.0680   -1.3050    0.9740 os        1 FMC     -0.260000
     18 C5'         1.2510   -1.5070    3.2570 c3        1 FMC     -0.027000
     19 O5'         1.5440   -2.8910    3.2470 oh        1 FMC     -0.323000
     20 H2         -0.2360    0.1280   -4.9770 ha        1 FMC      0.196000
     21 HN7        -3.3560    0.1280   -0.1770 DU        1 FMC      0.268000
     22 H5'         1.6870   -1.0880    4.0240 h1        1 FMC      0.090000
     23 H5'A        0.2850   -1.3800    3.3230 h1        1 FMC      0.090000
     24 H1'         1.5880   -0.2420   -0.7880 h4        1 FMC      0.139000
     25 H2'         0.8930    1.8830    0.6780 h1        1 FMC      0.108000
     26 HO2'        2.8230    2.2790   -0.1170 ho        1 FMC      0.227000
     27 H3'         0.6970    0.9360    2.4810 h1        1 FMC      0.129000
     28 HO3'        2.3270    1.9890    3.2620 ho        1 FMC      0.223000
     29 H4'         2.7010   -1.0840    1.8610 h1        1 FMC      0.134000
     30 HO5'        1.1580   -3.2810    3.9440 ho        1 FMC      0.217000
     31 HN6        -4.3260   -0.1830   -4.2360 hn        1 FMC      0.213000
     32 HN6A       -4.7550    0.5420   -2.9000 hn        1 FMC      0.213000
@<TRIPOS>BOND
     1    1    6 1   
     2    2    3 1   
     3    2   20 1   
     4    4    5 1   
     5    6    7 1   
     6    7   31 1   
     7    7   32 1   
     8    8    9 1   
     9    9   10 1   
    10   11   12 1   
    11   11   17 1   
    12   11   24 1   
    13   12   13 1   
    14   12   14 1   
    15   12   25 1   
    16   13   26 1   
    17   14   15 1   
    18   14   16 1   
    19   14   27 1   
    20   15   28 1   
    21   16   17 1   
    22   16   18 1   
    23   16   29 1   
    24   18   19 1   
    25   18   22 1   
    26   18   23 1   
    27   19   30 1   
@<TRIPOS>SUBSTRUCTURE
     1 FMC         1 TEMP              0 ****  ****    0 ROOT
