@<TRIPOS>MOLECULE
FMC
   32    34     1     0     0
SMALL
bcc


@<TRIPOS>ATOM
      1 N1         -4.2880   -0.2500    0.8300 nb        1 FMC     -0.742000
      2 C2         -3.4200   -1.1390    1.3980 ca        1 FMC      0.648900
      3 N3         -2.0790   -1.2370    1.2540 nb        1 FMC     -0.660000
      4 C4         -1.5560   -0.3230    0.4050 ca        1 FMC      0.348000
      5 C5         -2.3680    0.6660   -0.2770 ca        1 FMC     -0.348800
      6 C6         -3.7780    0.6810   -0.0270 ca        1 FMC      0.677200
      7 N6         -4.5990    1.5750   -0.7190 nh        1 FMC     -0.922500
      8 N7         -1.4870    1.4730   -1.0180 na        1 FMC      0.019900
      9 N8         -0.2340    1.0090   -0.9320 nc        1 FMC     -0.493100
     10 C9         -0.1930   -0.0280   -0.0660 cd        1 FMC      0.221300
     11 C1'         1.0270   -0.7570    0.3830 c3        1 FMC      0.137800
     12 C2'         1.7570   -1.4430   -0.7910 c3        1 FMC      0.088100
     13 O2'         1.9180   -2.8060   -0.4440 oh        1 FMC     -0.591800
     14 C3'         3.1340   -0.7420   -0.8930 c3        1 FMC      0.090100
     15 O3'         4.1840   -1.6780   -0.7870 oh        1 FMC     -0.590800
     16 C4'         3.1490    0.2930    0.2430 c3        1 FMC      0.063100
     17 O4'         1.9450    0.1480    1.0090 os        1 FMC     -0.411600
     18 C5'         3.2390    1.7270   -0.2790 c3        1 FMC      0.121400
     19 O5'         3.2190    2.6560    0.7830 oh        1 FMC     -0.595800
     20 H2         -3.8930   -1.8770    2.0820 h5        1 FMC      0.060100
     21 HN7        -1.7500    1.9770   -1.8370 hn        1 FMC      0.319700
     22 H5'         4.2260    1.8860   -0.7890 h1        1 FMC      0.055700
     23 H5'A        2.4000    1.9370   -0.9930 h1        1 FMC      0.055700
     24 H1'         0.7430   -1.5060    1.1780 h1        1 FMC      0.121700
     25 H2'         1.1850   -1.3560   -1.7510 h1        1 FMC      0.066700
     26 HO2'        2.4220   -3.2170   -1.1600 ho        1 FMC      0.419000
     27 H3'         3.2830   -0.2620   -1.8970 h1        1 FMC      0.096700
     28 HO3'        4.0960   -2.1210    0.0690 ho        1 FMC      0.418000
     29 H4'         3.9870    0.0980    0.9680 h1        1 FMC      0.087700
     30 HO5'        2.4240    2.4760    1.3020 ho        1 FMC      0.415000
     31 HN6        -5.5580    1.5850   -0.4420 hn        1 FMC      0.411300
     32 HN6A       -4.2040    2.4820   -0.8340 hn        1 FMC      0.411300
@<TRIPOS>BOND
     1    1    2 ar  
     2    1    6 ar  
     3    2    3 ar  
     4    2   20 1   
     5    3    4 ar  
     6    4    5 ar  
     7    4   10 1   
     8    5    6 ar  
     9    5    8 1   
    10    6    7 1   
    11    7   31 1   
    12    7   32 1   
    13    8    9 1   
    14    8   21 1   
    15    9   10 2   
    16   10   11 1   
    17   11   12 1   
    18   11   17 1   
    19   11   24 1   
    20   12   13 1   
    21   12   14 1   
    22   12   25 1   
    23   13   26 1   
    24   14   15 1   
    25   14   16 1   
    26   14   27 1   
    27   15   28 1   
    28   16   17 1   
    29   16   18 1   
    30   16   29 1   
    31   18   19 1   
    32   18   22 1   
    33   18   23 1   
    34   19   30 1   
@<TRIPOS>SUBSTRUCTURE
     1 FMC         1 TEMP              0 ****  ****    0 ROOT
