@<TRIPOS>MOLECULE
FMC
   32    34     1     0     0
SMALL
bcc


@<TRIPOS>ATOM
      1 N1         -0.1420   -0.2950    0.1920 nb        1 FMC     -0.742000
      2 C2          1.2020   -0.0700    0.0930 ca        1 FMC      0.648900
      3 N3          2.1150    0.1060    1.0750 nb        1 FMC     -0.660000
      4 C4          1.5870    0.0700    2.3200 ca        1 FMC      0.348000
      5 C5          0.1740   -0.1430    2.5650 ca        1 FMC     -0.348800
      6 C6         -0.6910   -0.3370    1.4400 ca        1 FMC      0.677200
      7 N6         -2.0680   -0.4770    1.6350 nh        1 FMC     -0.922500
      8 N7          0.0050   -0.1800    3.9600 na        1 FMC      0.019900
      9 N8          1.1580    0.0910    4.5840 nc        1 FMC     -0.493100
     10 C9          2.1510    0.2030    3.6720 cd        1 FMC      0.221300
     11 C1'         3.5990    0.4020    3.9640 c3        1 FMC      0.137800
     12 C2'         3.8630    1.7240    4.7160 c3        1 FMC      0.088100
     13 O2'         4.8430    2.4340    3.9810 oh        1 FMC     -0.591800
     14 C3'         4.4180    1.3110    6.1020 c3        1 FMC      0.090100
     15 O3'         5.6780    1.8990    6.3340 oh        1 FMC     -0.590800
     16 C4'         4.4760   -0.2240    6.0770 c3        1 FMC      0.063100
     17 O4'         4.0960   -0.6750    4.7690 os        1 FMC     -0.411600
     18 C5'         3.5480   -0.8580    7.1120 c3        1 FMC      0.121400
     19 O5'         3.5980   -2.2670    7.0450 oh        1 FMC     -0.595800
     20 H2          1.5910   -0.0410   -0.9480 h5        1 FMC      0.060100
     21 HN7        -0.8480    0.0470    4.4220 hn        1 FMC      0.319700
     22 H5'         3.8980   -0.6010    8.1470 h1        1 FMC      0.055700
     23 H5'A        2.4940   -0.5010    6.9640 h1        1 FMC      0.055700
     24 H1'         4.1830    0.3600    2.9990 h1        1 FMC      0.121700
     25 H2'         2.9350    2.3430    4.8170 h1        1 FMC      0.066700
     26 HO2'        5.0410    3.2360    4.4850 ho        1 FMC      0.419000
     27 H3'         3.7700    1.6900    6.9370 h1        1 FMC      0.096700
     28 HO3'        6.2750    1.5990    5.6330 ho        1 FMC      0.418000
     29 H4'         5.5270   -0.5990    6.2260 h1        1 FMC      0.087700
     30 HO5'        3.3970   -2.5140    6.1320 ho        1 FMC      0.415000
     31 HN6        -2.3090   -1.0310    2.4270 hn        1 FMC      0.411300
     32 HN6A       -2.6020   -0.6860    0.8190 hn        1 FMC      0.411300
@<TRIPOS>BOND
     1    1    2 ar  
     2    1    6 ar  
     3    2    3 ar  
     4    2   20 1   
     5    3    4 ar  
     6    4    5 ar  
     7    4   10 1   
     8    5    6 ar  
     9    5    8 1   
    10    6    7 1   
    11    7   31 1   
    12    7   32 1   
    13    8    9 1   
    14    8   21 1   
    15    9   10 2   
    16   10   11 1   
    17   11   12 1   
    18   11   17 1   
    19   11   24 1   
    20   12   13 1   
    21   12   14 1   
    22   12   25 1   
    23   13   26 1   
    24   14   15 1   
    25   14   16 1   
    26   14   27 1   
    27   15   28 1   
    28   16   17 1   
    29   16   18 1   
    30   16   29 1   
    31   18   19 1   
    32   18   22 1   
    33   18   23 1   
    34   19   30 1   
@<TRIPOS>SUBSTRUCTURE
     1 FMC         1 TEMP              0 ****  ****    0 ROOT
