@<TRIPOS>MOLECULE
FMC
   33    35     1     0     0
SMALL
bcc


@<TRIPOS>ATOM
      1 N1         -0.0960   -0.1510    0.0510 nb        1 FMC     -0.651000
      2 C2          1.2380    0.0640   -0.0170 ca        1 FMC      0.651900
      3 N3          2.1150    0.2180    1.0260 nb        1 FMC     -0.557000
      4 C4          1.5710    0.1200    2.2360 ca        1 FMC      0.362000
      5 C5          0.1260   -0.1290    2.4540 ca        1 FMC     -0.266800
      6 C6         -0.6560   -0.2360    1.2930 ca        1 FMC      0.450200
      7 N6         -2.1130   -0.4410    1.3740 n4        1 FMC     -0.815300
      8 N7         -0.0840   -0.0700    3.8340 na        1 FMC      0.000900
      9 N8          1.0920    0.0770    4.4920 nc        1 FMC     -0.450100
     10 C9          2.0980    0.2330    3.6190 cd        1 FMC      0.297300
     11 C1'         3.5460    0.4330    3.9400 c3        1 FMC      0.084800
     12 C2'         3.8050    1.7280    4.7450 c3        1 FMC      0.095100
     13 O2'         4.6340    2.6160    4.0380 oh        1 FMC     -0.579800
     14 C3'         4.4570    1.2520    6.0660 c3        1 FMC      0.086100
     15 O3'         5.7950    1.7040    6.1400 oh        1 FMC     -0.583800
     16 C4'         4.4950   -0.2840    5.9890 c3        1 FMC      0.130100
     17 O4'         4.0140   -0.6820    4.6940 os        1 FMC     -0.382600
     18 C5'         3.6340   -0.9200    7.0800 c3        1 FMC      0.120400
     19 O5'         3.9130   -2.3080    7.0720 oh        1 FMC     -0.584800
     20 H2          1.6720    0.1290   -1.0430 h5        1 FMC      0.106100
     21 HN7        -0.8070   -0.5600    4.3200 hn        1 FMC      0.327700
     22 H5'         3.9030   -0.4650    8.0710 h1        1 FMC      0.036200
     23 H5'A        2.5430   -0.7560    6.8730 h1        1 FMC      0.036200
     24 H1'         4.1310    0.4320    2.9750 h1        1 FMC      0.112700
     25 H2'         2.8610    2.3060    4.9320 h1        1 FMC      0.096700
     26 HO2'        5.5180    2.2220    3.9790 ho        1 FMC      0.429000
     27 H3'         3.8690    1.6130    6.9520 h1        1 FMC      0.068700
     28 HO3'        5.7650    2.6580    6.2970 ho        1 FMC      0.425000
     29 H4'         5.5490   -0.6770    6.0480 h1        1 FMC      0.120700
     30 HO5'        3.6080   -2.6580    7.9180 ho        1 FMC      0.409000
     31 HN6        -2.5210    0.2890    1.9690 hn        1 FMC      0.474467
     32 HN6A       -2.3040   -1.3660    1.7740 hn        1 FMC      0.474467
     33 H63        -2.5390   -0.3880    0.4350 hn        1 FMC      0.474467
@<TRIPOS>BOND
     1    1    2 ar  
     2    1    6 ar  
     3    2    3 ar  
     4    2   20 1   
     5    3    4 ar  
     6    4    5 ar  
     7    4   10 1   
     8    5    6 ar  
     9    5    8 1   
    10    6    7 1   
    11    7   31 1   
    12    7   32 1   
    13    7   33 1   
    14    8    9 1   
    15    8   21 1   
    16    9   10 2   
    17   10   11 1   
    18   11   12 1   
    19   11   17 1   
    20   11   24 1   
    21   12   13 1   
    22   12   14 1   
    23   12   25 1   
    24   13   26 1   
    25   14   15 1   
    26   14   16 1   
    27   14   27 1   
    28   15   28 1   
    29   16   17 1   
    30   16   18 1   
    31   16   29 1   
    32   18   19 1   
    33   18   22 1   
    34   18   23 1   
    35   19   30 1   
@<TRIPOS>SUBSTRUCTURE
     1 FMC         1 TEMP              0 ****  ****    0 ROOT
