@<TRIPOS>MOLECULE
FMD
   48    42     1     0     0
SMALL
bcc


@<TRIPOS>ATOM
      1 F17        -3.2070   -1.6320   -2.1810 f         1 FMD     -0.097000
      2 C1         -2.3120   -0.6660   -1.9100 c2        1 FMD      0.087000
      3 C2         -2.0240   -0.6880   -0.5430 c2        1 FMD      0.027000
      4 C18        -0.8670   -1.0860   -1.4650 c1        1 FMD     -0.088000
      5 C19         0.0480   -1.4000   -2.1920 c1        1 FMD     -0.180000
      6 C20         1.1970   -1.7960   -3.1080 c2        1 FMD      0.096000
      7 O27         0.7140   -1.9810   -4.4120 oh        1 FMD     -0.336000
      8 C23         2.2450   -0.6990   -3.1070 c3        1 FMD     -0.051000
      9 N28         3.1430   -0.9020   -2.0230 n3        1 FMD     -0.325000
     10 C24         3.0130   -0.7330   -4.4140 c3        1 FMD      0.035000
     11 O26         3.9570   -1.7670   -4.3740 oh        1 FMD     -0.333000
     12 C25         3.7260    0.6000   -4.6190 c3        1 FMD     -0.207000
     13 C3         -1.7020    0.5010    0.1240 c1        1 FMD     -0.021000
     14 C4         -1.6680    1.7160   -0.5840 c1        1 FMD      0.042000
     15 N9         -1.4690    2.8280    0.4090 n         1 FMD     -0.326000
     16 C8         -1.3860    2.2470    1.7130 c2        1 FMD      0.364000
     17 O10        -1.0810    2.8300    2.7380 o         1 FMD     -0.380000
     18 C5         -1.9560    1.7360   -1.9530 c1        1 FMD     -0.130000
     19 C6         -2.2780    0.5480   -2.6170 c1        1 FMD     -0.145000
     20 C7         -1.6180    0.8150    1.5800 c2        1 FMD     -0.193000
     21 C11        -1.8900   -0.0510    2.6040 c1        1 FMD      0.073000
     22 C12        -1.9720    0.4680    4.0450 c1        1 FMD     -0.105000
     23 C13        -1.0260    0.2720    5.0330 c1        1 FMD     -0.105500
     24 O21         0.2260   -0.3690    4.8720 o         1 FMD     -0.199000
     25 C22         0.4970   -1.3560    5.8540 c3        1 FMD     -0.074000
     26 C14        -1.4910    0.8460    6.1790 c1        1 FMD     -0.105500
     27 C15        -2.7280    1.4000    5.9080 c1        1 FMD     -0.105000
     28 N16        -3.0180    1.1630    4.5910 n2        1 FMD     -0.132000
     29 H20         1.5990   -2.6330   -2.7860 h4        1 FMD      0.104000
     30 H27         0.6840   -2.8540   -4.5970 ho        1 FMD      0.216000
     31 H23         1.8050    0.1730   -3.0090 h1        1 FMD      0.113000
     32 H281        4.0060   -0.8230   -2.3220 hn        1 FMD      0.151500
     33 H282        3.0160   -1.7410   -1.6730 hn        1 FMD      0.151500
     34 H24         2.3890   -0.8880   -5.1570 h1        1 FMD      0.085000
     35 H26         4.1510   -2.0250   -5.2060 ho        1 FMD      0.216000
     36 H251        4.3250    0.5350   -5.3980 hc        1 FMD      0.087000
     37 H252        4.2520    0.8170   -3.8180 hc        1 FMD      0.087000
     38 H253        3.0610    1.3070   -4.7760 hc        1 FMD      0.087000
     39 HN9        -1.4060    3.7200    0.2120 hn        1 FMD      0.258000
     40 HC5        -1.9320    2.5840   -2.4470 ha        1 FMD      0.147000
     41 HC6        -2.5240    0.5690   -3.5680 ha        1 FMD      0.154000
     42 H11        -2.0740   -0.9970    2.4110 ha        1 FMD      0.163000
     43 H221        1.0920   -2.0420    5.4750 h1        1 FMD      0.088333
     44 H222        0.9320   -0.9370    6.6280 h1        1 FMD      0.088333
     45 H223       -0.3460   -1.7750    6.1390 h1        1 FMD      0.088333
     46 H14        -1.0280    0.8620    7.0450 DU        1 FMD      0.210333
     47 H15        -3.2980    1.8790    6.5480 DU        1 FMD      0.210333
     48 H16        -3.7800    1.4240    4.1520 DU        1 FMD      0.210333
@<TRIPOS>BOND
     1    1    2 1   
     2    2    3 1   
     3    2   19 1   
     4    3    4 1   
     5    3   13 1   
     6    4    5 1   
     7    6    7 1   
     8    6    8 1   
     9    6   29 1   
    10    7   30 1   
    11    8    9 1   
    12    8   10 1   
    13    8   31 1   
    14    9   32 1   
    15    9   33 1   
    16   10   11 1   
    17   10   12 1   
    18   10   34 1   
    19   11   35 1   
    20   12   36 1   
    21   12   37 1   
    22   12   38 1   
    23   13   20 1   
    24   14   15 1   
    25   14   18 1   
    26   15   16 1   
    27   15   39 1   
    28   16   17 1   
    29   16   20 1   
    30   18   40 1   
    31   19   41 1   
    32   20   21 1   
    33   21   42 1   
    34   22   23 1   
    35   22   28 1   
    36   23   26 1   
    37   24   25 1   
    38   25   43 1   
    39   25   44 1   
    40   25   45 1   
    41   26   27 1   
    42   27   28 1   
@<TRIPOS>SUBSTRUCTURE
     1 FMD         1 TEMP              0 ****  ****    0 ROOT
