@<TRIPOS>MOLECULE
FMD
   48    50     1     0     0
SMALL
bcc


@<TRIPOS>ATOM
      1 F17        -3.8040   -1.1480    1.6760 f         1 FMD     -0.134900
      2 C1         -3.6030   -0.7500    0.3960 ca        1 FMD      0.117900
      3 C2         -2.2760   -0.4750   -0.0590 ca        1 FMD      0.041000
      4 C18        -1.2100   -0.5960    0.8480 cg        1 FMD     -0.094000
      5 C19        -0.3340   -0.6970    1.6610 c1        1 FMD     -0.123100
      6 C20         0.7050   -0.8270    2.6550 c3        1 FMD      0.225200
      7 O27         1.9800   -1.0540    2.0740 oh        1 FMD     -0.596800
      8 C23         0.7910    0.4220    3.5850 c3        1 FMD      0.115500
      9 N28        -0.5090    0.9310    3.9560 n3        1 FMD     -0.898800
     10 C24         1.7240    0.0400    4.7680 c3        1 FMD      0.091100
     11 O26         1.0750   -0.8510    5.6610 oh        1 FMD     -0.593800
     12 C25         2.2450    1.2700    5.4820 c3        1 FMD     -0.130100
     13 C3         -2.1130   -0.0810   -1.3840 ca        1 FMD     -0.039800
     14 C4         -3.2720    0.0590   -2.2340 ca        1 FMD      0.035600
     15 N9         -2.8690    0.4830   -3.5090 n         1 FMD     -0.472100
     16 C8         -1.4690    0.6440   -3.5380 c         1 FMD      0.724700
     17 O10        -0.8890    1.0410   -4.5630 o         1 FMD     -0.658500
     18 C5         -4.5560   -0.2080   -1.7750 ca        1 FMD     -0.136000
     19 C6         -4.7120   -0.6180   -0.4500 ca        1 FMD     -0.144000
     20 C7         -0.9310    0.2610   -2.1920 cc        1 FMD     -0.193400
     21 C11         0.3490    0.1890   -1.7700 cf        1 FMD      0.082800
     22 C12         1.5810    0.4580   -2.4270 cd        1 FMD     -0.181100
     23 C13         2.8750    0.2380   -1.8550 cc        1 FMD      0.110100
     24 O21         3.0230   -0.2390   -0.5850 os        1 FMD     -0.321900
     25 C22         4.3520   -0.6500   -0.2540 c3        1 FMD      0.113700
     26 C14         3.8630    0.6090   -2.8100 cc        1 FMD     -0.277000
     27 C15         3.1550    1.0570   -3.9480 cd        1 FMD     -0.091300
     28 N16         1.8040    0.9690   -3.7150 na        1 FMD     -0.134100
     29 H20         0.5220   -1.7470    3.2900 h1        1 FMD      0.107700
     30 H27         2.1180   -0.3820    1.3920 ho        1 FMD      0.419000
     31 H23         1.3110    1.2440    3.0080 h1        1 FMD      0.067700
     32 H281       -1.1190    0.1890    4.2370 hn        1 FMD      0.353300
     33 H282       -0.4230    1.5900    4.7050 hn        1 FMD      0.353300
     34 H24         2.5820   -0.5680    4.3570 h1        1 FMD      0.099700
     35 H26         0.4630   -0.3350    6.1990 ho        1 FMD      0.392000
     36 H251        2.9210    0.9630    6.3170 hc        1 FMD      0.045033
     37 H252        2.8190    1.9110    4.7720 hc        1 FMD      0.045033
     38 H253        1.4100    1.8730    5.9130 hc        1 FMD      0.045033
     39 HN9        -3.4810    0.6810   -4.2550 hn        1 FMD      0.343500
     40 HC5        -5.4340   -0.1020   -2.4280 ha        1 FMD      0.145000
     41 HC6        -5.7160   -0.8400   -0.0580 ha        1 FMD      0.152000
     42 H11         0.5160   -0.1540   -0.7220 ha        1 FMD      0.164000
     43 H221        4.2350   -1.0930    0.7680 h1        1 FMD      0.051700
     44 H222        4.7200   -1.4110   -0.9830 h1        1 FMD      0.051700
     45 H223        5.0320    0.2350   -0.2380 h1        1 FMD      0.051700
     46 H14         4.9400    0.5580   -2.6950 ha        1 FMD      0.162000
     47 H15         3.5510    1.4310   -4.8950 h4        1 FMD      0.174000
     48 H16         1.0830    1.2150   -4.3530 hn        1 FMD      0.340700
@<TRIPOS>BOND
     1    1    2 1   
     2    2    3 ar  
     3    2   19 ar  
     4    3    4 1   
     5    3   13 ar  
     6    4    5 3   
     7    5    6 1   
     8    6    7 1   
     9    6    8 1   
    10    6   29 1   
    11    7   30 1   
    12    8    9 1   
    13    8   10 1   
    14    8   31 1   
    15    9   32 1   
    16    9   33 1   
    17   10   11 1   
    18   10   12 1   
    19   10   34 1   
    20   11   35 1   
    21   12   36 1   
    22   12   37 1   
    23   12   38 1   
    24   13   14 ar  
    25   13   20 1   
    26   14   15 1   
    27   14   18 ar  
    28   15   16 1   
    29   15   39 1   
    30   16   17 2   
    31   16   20 1   
    32   18   19 ar  
    33   18   40 1   
    34   19   41 1   
    35   20   21 2   
    36   21   22 1   
    37   21   42 1   
    38   22   23 2   
    39   22   28 1   
    40   23   24 1   
    41   23   26 1   
    42   24   25 1   
    43   25   43 1   
    44   25   44 1   
    45   25   45 1   
    46   26   27 2   
    47   26   46 1   
    48   27   28 1   
    49   27   47 1   
    50   28   48 1   
@<TRIPOS>SUBSTRUCTURE
     1 FMD         1 TEMP              0 ****  ****    0 ROOT
