@<TRIPOS>MOLECULE
FMD
   49    51     1     0     0
SMALL
bcc


@<TRIPOS>ATOM
      1 F17        -0.0570    0.5420    0.6320 f         1 FMD     -0.175900
      2 C1          1.2720    0.4140    0.3630 ca        1 FMD      0.095900
      3 C2          2.1750    0.2200    1.4550 ca        1 FMD     -0.035000
      4 C18         1.6380    0.1370    2.7490 cg        1 FMD      0.027000
      5 C19         1.0890    0.0750    3.8140 c1        1 FMD     -0.291100
      6 C20         0.3850    0.0030    5.0650 c3        1 FMD      0.249200
      7 O27         1.0770    0.5860    6.1570 oh        1 FMD     -0.597800
      8 C23        -0.9460    0.8210    4.9650 c3        1 FMD      0.108500
      9 N28        -1.6160    0.6060    3.6420 n4        1 FMD     -0.831600
     10 C24        -1.8710    0.4320    6.1430 c3        1 FMD      0.125100
     11 O26        -2.3820   -0.8600    5.8380 oh        1 FMD     -0.635800
     12 C25        -2.9920    1.4310    6.3360 c3        1 FMD     -0.149100
     13 C3          3.5310    0.1170    1.1790 ca        1 FMD     -0.002800
     14 C4          3.9840    0.1760   -0.1960 ca        1 FMD      0.055600
     15 N9          5.3750    0.0380   -0.2280 n         1 FMD     -0.467100
     16 C8          5.8740   -0.1110    1.0890 c         1 FMD      0.731700
     17 O10         7.0830   -0.2610    1.3150 o         1 FMD     -0.627500
     18 C5          3.0890    0.3510   -1.2470 ca        1 FMD     -0.119000
     19 C6          1.7260    0.4740   -0.9560 ca        1 FMD     -0.120000
     20 C7          4.7120   -0.0470    2.0290 cc        1 FMD     -0.228400
     21 C11         4.6900   -0.0910    3.3820 cf        1 FMD      0.108800
     22 C12         5.7130   -0.2210    4.3480 cd        1 FMD     -0.200100
     23 C13         5.4990   -0.2000    5.7680 cc        1 FMD      0.127100
     24 O21         4.2500   -0.0460    6.2980 os        1 FMD     -0.339900
     25 C22         4.2190   -0.0220    7.7300 c3        1 FMD      0.112700
     26 C14         6.7520   -0.3550    6.4150 cc        1 FMD     -0.276000
     27 C15         7.7150   -0.4710    5.3810 cd        1 FMD     -0.056300
     28 N16         7.0970   -0.3910    4.1610 na        1 FMD     -0.127100
     29 H20         0.1390   -1.0710    5.3270 h1        1 FMD      0.098700
     30 H27         2.0290    0.4500    6.0170 ho        1 FMD      0.460000
     31 H23        -0.6930    1.9200    5.0540 hx        1 FMD      0.127700
     32 H281       -1.9410   -0.3690    3.5910 hn        1 FMD      0.468467
     33 H282       -0.9570    0.7830    2.8690 hn        1 FMD      0.468467
     34 H24        -1.2160    0.3890    7.0630 h1        1 FMD      0.107700
     35 H26        -2.8430   -1.1830    6.6240 ho        1 FMD      0.451000
     36 H251       -3.5690    1.1730    7.2590 hc        1 FMD      0.063700
     37 H252       -3.7030    1.4180    5.4760 hc        1 FMD      0.063700
     38 H253       -2.5800    2.4620    6.4600 hc        1 FMD      0.063700
     39 HN9         5.9240    0.0290   -1.0490 hn        1 FMD      0.355500
     40 HC5         3.4330    0.3950   -2.2910 ha        1 FMD      0.164000
     41 HC6         1.0030    0.6200   -1.7740 ha        1 FMD      0.164000
     42 H11         3.6920   -0.0040    3.8690 ha        1 FMD      0.141000
     43 H221        4.5920   -0.9920    8.1390 h1        1 FMD      0.055367
     44 H222        3.1340    0.1240    7.9640 h1        1 FMD      0.055367
     45 H223        4.8320    0.8280    8.1160 h1        1 FMD      0.055367
     46 H14         6.9490   -0.3820    7.4820 ha        1 FMD      0.172000
     47 H15         8.7970   -0.6050    5.4730 h4        1 FMD      0.188000
     48 H16         7.5390   -0.4400    3.2700 hn        1 FMD      0.345700
     49 H283       -2.4240    1.2280    3.5640 hn        1 FMD      0.468467
@<TRIPOS>BOND
     1    1    2 1   
     2    2    3 ar  
     3    2   19 ar  
     4    3    4 1   
     5    3   13 ar  
     6    4    5 3   
     7    5    6 1   
     8    6    7 1   
     9    6    8 1   
    10    6   29 1   
    11    7   30 1   
    12    8    9 1   
    13    8   10 1   
    14    8   31 1   
    15    9   32 1   
    16    9   33 1   
    17    9   49 1   
    18   10   11 1   
    19   10   12 1   
    20   10   34 1   
    21   11   35 1   
    22   12   36 1   
    23   12   37 1   
    24   12   38 1   
    25   13   14 ar  
    26   13   20 1   
    27   14   15 1   
    28   14   18 ar  
    29   15   16 1   
    30   15   39 1   
    31   16   17 2   
    32   16   20 1   
    33   18   19 ar  
    34   18   40 1   
    35   19   41 1   
    36   20   21 2   
    37   21   22 1   
    38   21   42 1   
    39   22   23 2   
    40   22   28 1   
    41   23   24 1   
    42   23   26 1   
    43   24   25 1   
    44   25   43 1   
    45   25   44 1   
    46   25   45 1   
    47   26   27 2   
    48   26   46 1   
    49   27   28 1   
    50   27   47 1   
    51   28   48 1   
@<TRIPOS>SUBSTRUCTURE
     1 FMD         1 TEMP              0 ****  ****    0 ROOT
