@<TRIPOS>MOLECULE
FMD
   49    51     1     0     0
SMALL
bcc


@<TRIPOS>ATOM
      1 F17        -0.0570    0.8100    0.9720 f         1 FMD     -0.175900
      2 C1          1.2440    0.6020    0.6260 ca        1 FMD      0.095900
      3 C2          2.1980    0.3620    1.6640 ca        1 FMD     -0.035000
      4 C18         1.7350    0.3170    2.9870 cg        1 FMD      0.027000
      5 C19         1.2490    0.2930    4.0830 c1        1 FMD     -0.291100
      6 C20         0.6180    0.2690    5.3750 c3        1 FMD      0.249200
      7 O27         1.4070    0.8150    6.4190 oh        1 FMD     -0.597800
      8 C23        -0.6670    1.1640    5.3480 c3        1 FMD      0.108500
      9 N28        -1.4270    0.9810    4.0680 nz        1 FMD     -0.831600
     10 C24        -1.5410    0.8360    6.5810 c3        1 FMD      0.125100
     11 O26        -2.1440   -0.4250    6.3190 oh        1 FMD     -0.635800
     12 C25        -2.5880    1.9000    6.8320 c3        1 FMD     -0.149100
     13 C3          3.5260    0.1780    1.3080 ca        1 FMD     -0.002800
     14 C4          3.8990    0.2030   -0.0920 ca        1 FMD      0.055600
     15 N9          5.2750   -0.0170   -0.2050 ns        1 FMD     -0.467100
     16 C8          5.8430   -0.1880    1.0810 c         1 FMD      0.731700
     17 O10         7.0530   -0.4070    1.2370 o         1 FMD     -0.627500
     18 C5          2.9550    0.4250   -1.0890 ca        1 FMD     -0.119000
     19 C6          1.6210    0.6290   -0.7190 ca        1 FMD     -0.120000
     20 C7          4.7450   -0.0510    2.0880 cc        1 FMD     -0.228400
     21 C11         4.8010   -0.0870    3.4410 cf        1 FMD      0.108800
     22 C12         5.8710   -0.2710    4.3450 cd        1 FMD     -0.200100
     23 C13         5.7440   -0.2300    5.7750 cc        1 FMD      0.127100
     24 O21         4.5390   -0.0010    6.3770 os        1 FMD     -0.339900
     25 C22         4.5950    0.0310    7.8080 c3        1 FMD      0.112700
     26 C14         7.0220   -0.4560    6.3480 cc        1 FMD     -0.276000
     27 C15         7.9130   -0.6320    5.2600 cd        1 FMD     -0.056300
     28 N16         7.2290   -0.5220    4.0780 na        1 FMD     -0.127100
     29 H20         0.3250   -0.7880    5.6610 h1        1 FMD      0.098700
     30 H27         2.3390    0.6240    6.2240 ho        1 FMD      0.460000
     31 H23        -0.3460    2.2460    5.4120 hx        1 FMD      0.127700
     32 H281       -1.8100    0.0270    4.0450 hn        1 FMD      0.468467
     33 H282       -0.8060    1.1150    3.2560 hn        1 FMD      0.468467
     34 H24        -0.8360    0.7590    7.4610 h1        1 FMD      0.107700
     35 H26        -2.5750   -0.7170    7.1330 ho        1 FMD      0.451000
     36 H251       -3.1230    1.6810    7.7900 hc        1 FMD      0.063700
     37 H252       -3.3490    1.9240    6.0160 hc        1 FMD      0.063700
     38 H253       -2.1100    2.9050    6.9230 hc        1 FMD      0.063700
     39 HN9         5.7730   -0.0620   -1.0560 hn        1 FMD      0.355500
     40 HC5         3.2380    0.4430   -2.1520 ha        1 FMD      0.164000
     41 HC6         0.8600    0.8130   -1.4940 ha        1 FMD      0.164000
     42 H11         3.8410    0.0610    3.9850 ha        1 FMD      0.141000
     43 H221        4.9350   -0.9570    8.2020 h1        1 FMD      0.055367
     44 H222        3.5370    0.2420    8.1050 h1        1 FMD      0.055367
     45 H223        5.2780    0.8460    8.1500 h1        1 FMD      0.055367
     46 H14         7.2800   -0.4890    7.4010 ha        1 FMD      0.172000
     47 H15         8.9890   -0.8290    5.2880 h4        1 FMD      0.188000
     48 H16         7.6130   -0.6020    3.1630 hn        1 FMD      0.345700
     49 H283       -2.2000    1.6490    4.0330 hn        1 FMD      0.468467
@<TRIPOS>BOND
     1    1    2 1   
     2    2    3 ar  
     3    2   19 ar  
     4    3    4 1   
     5    3   13 ar  
     6    4    5 3   
     7    5    6 1   
     8    6    7 1   
     9    6    8 1   
    10    6   29 1   
    11    7   30 1   
    12    8    9 1   
    13    8   10 1   
    14    8   31 1   
    15    9   32 1   
    16    9   33 1   
    17    9   49 1   
    18   10   11 1   
    19   10   12 1   
    20   10   34 1   
    21   11   35 1   
    22   12   36 1   
    23   12   37 1   
    24   12   38 1   
    25   13   14 ar  
    26   13   20 1   
    27   14   15 1   
    28   14   18 ar  
    29   15   16 1   
    30   15   39 1   
    31   16   17 2   
    32   16   20 1   
    33   18   19 ar  
    34   18   40 1   
    35   19   41 1   
    36   20   21 2   
    37   21   22 1   
    38   21   42 1   
    39   22   23 2   
    40   22   28 1   
    41   23   24 1   
    42   23   26 1   
    43   24   25 1   
    44   25   43 1   
    45   25   44 1   
    46   25   45 1   
    47   26   27 2   
    48   26   46 1   
    49   27   28 1   
    50   27   47 1   
    51   28   48 1   
@<TRIPOS>SUBSTRUCTURE
     1 FMD         1 TEMP              0 ****  ****    0 ROOT
