@<TRIPOS>MOLECULE
FMD
   49    51     1     0     0
SMALL
bcc


@<TRIPOS>ATOM
      1 F17         0.0370    0.6190    0.1530 f         1 FMD     -0.175900
      2 C1          1.3830    0.4780   -0.0020 ca        1 FMD      0.095900
      3 C2          2.1900    0.3040    1.1650 ca        1 FMD     -0.035000
      4 C18         1.5480    0.2510    2.4110 cg        1 FMD      0.027000
      5 C19         0.9120    0.2150    3.4270 c1        1 FMD     -0.291100
      6 C20         0.1060    0.1720    4.6170 c3        1 FMD      0.249200
      7 O27         0.7090    0.7750    5.7500 oh        1 FMD     -0.597800
      8 C23        -1.2070    0.9960    4.3900 c3        1 FMD      0.108500
      9 N28        -1.7660    0.7550    3.0200 n4        1 FMD     -0.831600
     10 C24        -2.2280    0.6360    5.4940 c3        1 FMD      0.125100
     11 O26        -2.7220   -0.6600    5.1760 oh        1 FMD     -0.635800
     12 C25        -3.3560    1.6450    5.5730 c3        1 FMD     -0.149100
     13 C3          3.5640    0.1890    1.0040 ca        1 FMD     -0.002800
     14 C4          4.1300    0.2160   -0.3290 ca        1 FMD      0.055600
     15 N9          5.5180    0.0700   -0.2420 n         1 FMD     -0.467100
     16 C8          5.9050   -0.0520    1.1150 c         1 FMD      0.731700
     17 O10         7.0900   -0.2030    1.4440 o         1 FMD     -0.627500
     18 C5          3.3270    0.3720   -1.4540 ca        1 FMD     -0.119000
     19 C6          1.9450    0.5080   -1.2800 ca        1 FMD     -0.120000
     20 C7          4.6700    0.0370    1.9540 cc        1 FMD     -0.228400
     21 C11         4.5350    0.0220    3.3000 cf        1 FMD      0.108800
     22 C12         5.4730   -0.0910    4.3500 cd        1 FMD     -0.200100
     23 C13         5.1420   -0.0390    5.7470 cc        1 FMD      0.127100
     24 O21         3.8540    0.1320    6.1690 os        1 FMD     -0.339900
     25 C22         3.7050    0.1860    7.5920 c3        1 FMD      0.112700
     26 C14         6.3360   -0.1860    6.4990 cc        1 FMD     -0.276000
     27 C15         7.3810   -0.3270    5.5520 cd        1 FMD     -0.056300
     28 N16         6.8670   -0.2710    4.2830 na        1 FMD     -0.127100
     29 H20        -0.1680   -0.8940    4.8810 h1        1 FMD      0.098700
     30 H27         1.6680    0.6330    5.6930 ho        1 FMD      0.460000
     31 H23        -0.9550    2.0950    4.4760 hx        1 FMD      0.127700
     32 H281       -2.0920   -0.2190    2.9630 hn        1 FMD      0.468467
     33 H282       -2.5600    1.3790    2.8630 hn        1 FMD      0.468467
     34 H24        -1.6530    0.6090    6.4660 h1        1 FMD      0.107700
     35 H26        -3.2480   -0.9630    5.9270 ho        1 FMD      0.451000
     36 H251       -4.0090    1.4090    6.4500 hc        1 FMD      0.063700
     37 H252       -2.9490    2.6760    5.7090 hc        1 FMD      0.063700
     38 H253       -3.9930    1.6160    4.6570 hc        1 FMD      0.063700
     39 HN9         6.1330    0.0410   -1.0140 hn        1 FMD      0.355500
     40 HC5         3.7560    0.3920   -2.4670 ha        1 FMD      0.164000
     41 HC6         1.2940    0.6390   -2.1580 ha        1 FMD      0.164000
     42 H11         3.5000    0.1240    3.7010 ha        1 FMD      0.141000
     43 H221        2.6050    0.3420    7.7320 h1        1 FMD      0.055367
     44 H222        4.0360   -0.7770    8.0500 h1        1 FMD      0.055367
     45 H223        4.2880    1.0410    8.0100 h1        1 FMD      0.055367
     46 H14         6.4430   -0.1910    7.5790 ha        1 FMD      0.172000
     47 H15         8.4510   -0.4640    5.7360 h4        1 FMD      0.188000
     48 H16         7.3810   -0.3410    3.4330 hn        1 FMD      0.345700
     49 H283       -1.0440    0.9120    2.3010 hn        1 FMD      0.468467
@<TRIPOS>BOND
     1    1    2 1   
     2    2    3 ar  
     3    2   19 ar  
     4    3    4 1   
     5    3   13 ar  
     6    4    5 3   
     7    5    6 1   
     8    6    7 1   
     9    6    8 1   
    10    6   29 1   
    11    7   30 1   
    12    8    9 1   
    13    8   10 1   
    14    8   31 1   
    15    9   32 1   
    16    9   33 1   
    17    9   49 1   
    18   10   11 1   
    19   10   12 1   
    20   10   34 1   
    21   11   35 1   
    22   12   36 1   
    23   12   37 1   
    24   12   38 1   
    25   13   14 ar  
    26   13   20 1   
    27   14   15 1   
    28   14   18 ar  
    29   15   16 1   
    30   15   39 1   
    31   16   17 2   
    32   16   20 1   
    33   18   19 ar  
    34   18   40 1   
    35   19   41 1   
    36   20   21 2   
    37   21   22 1   
    38   21   42 1   
    39   22   23 2   
    40   22   28 1   
    41   23   24 1   
    42   23   26 1   
    43   24   25 1   
    44   25   43 1   
    45   25   44 1   
    46   25   45 1   
    47   26   27 2   
    48   26   46 1   
    49   27   28 1   
    50   27   47 1   
    51   28   48 1   
@<TRIPOS>SUBSTRUCTURE
     1 FMD         1 TEMP              0 ****  ****    0 ROOT
