@<TRIPOS>MOLECULE
FME
   21    20     1     0     0
SMALL
bcc


@<TRIPOS>ATOM
      1 N           0.8880    0.8140   -1.3820 n         1 FME     -0.528900
      2 CN          2.2220    0.6290   -1.2120 c         1 FME      0.643900
      3 O1          2.7510   -0.2660   -0.5160 o         1 FME     -0.674100
      4 CA         -0.1420   -0.1220   -0.9870 c3        1 FME     -0.049300
      5 CB         -0.7080    0.1400    0.4170 c3        1 FME     -0.068400
      6 CG          0.2330   -0.3410    1.4890 c3        1 FME      0.007700
      7 SD         -0.3420    0.2730    3.0570 ss        1 FME     -0.346200
      8 CE          0.8950   -0.3250    4.1460 c3        1 FME     -0.034000
      9 C          -1.3520   -0.1070   -2.0000 c         1 FME      0.914600
     10 O          -2.1870   -1.0390   -1.8760 o         1 FME     -0.827300
     11 OXT        -1.4050    0.8160   -2.8600 o         1 FME     -0.827300
     12 H           0.5730    1.4810   -2.0590 hn        1 FME      0.331500
     13 HCN         2.8500    1.3990   -1.7270 h5        1 FME     -0.011800
     14 HA          0.2940   -1.1630   -1.0000 h1        1 FME      0.057700
     15 HB2        -1.6830   -0.4170    0.4820 hc        1 FME      0.063700
     16 HB3        -0.9270    1.2300    0.5520 hc        1 FME      0.063700
     17 HG2         1.2740    0.0220    1.3010 h1        1 FME      0.066700
     18 HG3         0.2640   -1.4570    1.5110 h1        1 FME      0.066700
     19 HE1         0.6420    0.0530    5.1610 h1        1 FME      0.050033
     20 HE2         0.9220   -1.4370    4.1660 h1        1 FME      0.050033
     21 HE3         1.9060    0.0430    3.8590 h1        1 FME      0.050033
@<TRIPOS>BOND
     1    1    2 1   
     2    1    4 1   
     3    1   12 1   
     4    2    3 2   
     5    2   13 1   
     6    4    5 1   
     7    4    9 1   
     8    4   14 1   
     9    5    6 1   
    10    5   15 1   
    11    5   16 1   
    12    6    7 1   
    13    6   17 1   
    14    6   18 1   
    15    7    8 1   
    16    8   19 1   
    17    8   20 1   
    18    8   21 1   
    19    9   10 1   
    20    9   11 1   
@<TRIPOS>SUBSTRUCTURE
     1 FME         1 TEMP              0 ****  ****    0 ROOT
