@<TRIPOS>MOLECULE
FMF
   22    22     1     0     0
SMALL
bcc


@<TRIPOS>ATOM
      1 C5         -1.1410   -1.8120   -0.2060 c3        1 FMF      0.070100
      2 C2          1.7320   -2.3040   -0.0870 c3        1 FMF      0.083600
      3 F2          2.3260   -1.3850   -0.9330 f         1 FMF     -0.220300
      4 C3          1.0210   -1.5950    1.0910 c3        1 FMF      0.122100
      5 O3          1.9180   -0.7250    1.7400 oh        1 FMF     -0.564800
      6 C4         -0.2320   -0.8580    0.5860 c3        1 FMF      0.082100
      7 O4         -0.9080   -0.3940    1.7420 oh        1 FMF     -0.573800
      8 C6         -2.2900   -1.0580   -0.8860 c3        1 FMF      0.138400
      9 O6         -3.1650   -1.9470   -1.5400 oh        1 FMF     -0.589800
     10 O          -0.4250   -2.4330   -1.2750 os        1 FMF     -0.435600
     11 C1          0.6930   -3.1930   -0.8310 c3        1 FMF      0.356400
     12 F1          1.1610   -3.6840   -2.0190 f         1 FMF     -0.202300
     13 H5         -1.5520   -2.6050    0.4790 h1        1 FMF      0.071700
     14 H2          2.5420   -2.9730    0.3240 h1        1 FMF      0.085700
     15 H3          0.7340   -2.3480    1.8770 h1        1 FMF      0.104700
     16 HO3         2.1670   -0.0380    1.1070 ho        1 FMF      0.411000
     17 H4          0.0810    0.0030   -0.0690 h1        1 FMF      0.059700
     18 HO4        -1.5660    0.2460    1.4440 ho        1 FMF      0.407000
     19 H61        -1.8770   -0.3060   -1.6100 h1        1 FMF      0.056200
     20 H62        -2.9170   -0.5480   -0.1080 h1        1 FMF      0.056200
     21 HO6        -2.6470   -2.4180   -2.2070 ho        1 FMF      0.420000
     22 H1          0.3630   -4.0310   -0.1510 h2        1 FMF      0.063700
@<TRIPOS>BOND
     1    1    6 1   
     2    1    8 1   
     3    1   10 1   
     4    1   13 1   
     5    2    3 1   
     6    2    4 1   
     7    2   11 1   
     8    2   14 1   
     9    4    5 1   
    10    4    6 1   
    11    4   15 1   
    12    5   16 1   
    13    6    7 1   
    14    6   17 1   
    15    7   18 1   
    16    8    9 1   
    17    8   19 1   
    18    8   20 1   
    19    9   21 1   
    20   10   11 1   
    21   11   12 1   
    22   11   22 1   
@<TRIPOS>SUBSTRUCTURE
     1 FMF         1 TEMP              0 ****  ****    0 ROOT
