@<TRIPOS>MOLECULE
FMF
   22    22     1     0     0
SMALL
bcc


@<TRIPOS>ATOM
      1 C5          0.0110    0.0620   -0.0920 c3        1 FMF      0.108100
      2 C2          1.4010   -0.9740    2.2700 c3        1 FMF      0.088600
      3 F2          1.9170   -2.2150    1.9460 f         1 FMF     -0.219300
      4 C3          2.0390    0.1340    1.4050 c3        1 FMF      0.074100
      5 O3          3.4490    0.0720    1.4430 oh        1 FMF     -0.586800
      6 C4          1.5450    0.0380   -0.0500 c3        1 FMF      0.086100
      7 O4          2.0010    1.1470   -0.8030 oh        1 FMF     -0.588800
      8 C6         -0.5070   -0.1930   -1.5110 c3        1 FMF      0.142400
      9 O6         -1.9060   -0.0390   -1.5750 oh        1 FMF     -0.592800
     10 O          -0.5160   -1.0000    0.7070 os        1 FMF     -0.435600
     11 C1         -0.1450   -0.9130    2.0770 c3        1 FMF      0.358400
     12 F1         -0.7870   -2.0060    2.5920 f         1 FMF     -0.201300
     13 H5         -0.3740    1.0480    0.2900 h1        1 FMF      0.070700
     14 H2          1.6300   -0.7760    3.3570 h1        1 FMF      0.083700
     15 H3          1.7870    1.1440    1.8330 h1        1 FMF      0.100700
     16 HO3         3.7080   -0.8320    1.2120 ho        1 FMF      0.418000
     17 H4          1.9270   -0.9170   -0.5090 h1        1 FMF      0.061700
     18 HO4         2.9450    1.2410   -0.6120 ho        1 FMF      0.423000
     19 H61        -0.0830    0.5890   -2.1980 h1        1 FMF      0.067200
     20 H62        -0.2040   -1.2190   -1.8490 h1        1 FMF      0.067200
     21 HO6        -2.2920   -0.7080   -0.9950 ho        1 FMF      0.413000
     22 H1         -0.5370    0.0390    2.5390 h2        1 FMF      0.062700
@<TRIPOS>BOND
     1    1    6 1   
     2    1    8 1   
     3    1   10 1   
     4    1   13 1   
     5    2    3 1   
     6    2    4 1   
     7    2   11 1   
     8    2   14 1   
     9    4    5 1   
    10    4    6 1   
    11    4   15 1   
    12    5   16 1   
    13    6    7 1   
    14    6   17 1   
    15    7   18 1   
    16    8    9 1   
    17    8   19 1   
    18    8   20 1   
    19    9   21 1   
    20   10   11 1   
    21   11   12 1   
    22   11   22 1   
@<TRIPOS>SUBSTRUCTURE
     1 FMF         1 TEMP              0 ****  ****    0 ROOT
