@<TRIPOS>MOLECULE
FMF
   22    22     1     0     0
SMALL
bcc


@<TRIPOS>ATOM
      1 C5          0.0130    0.0540   -0.0980 c3        1 FMF      0.108100
      2 C2          1.3920   -0.9760    2.2730 c3        1 FMF      0.088600
      3 F2          1.9310   -2.2060    1.9480 f         1 FMF     -0.219300
      4 C3          2.0220    0.1480    1.4220 c3        1 FMF      0.074100
      5 O3          3.4320    0.1080    1.4760 oh        1 FMF     -0.586800
      6 C4          1.5460    0.0540   -0.0390 c3        1 FMF      0.086100
      7 O4          1.9930    1.1750   -0.7790 oh        1 FMF     -0.588800
      8 C6         -0.4840   -0.2010   -1.5250 c3        1 FMF      0.142400
      9 O6         -1.8850   -0.0680   -1.6050 oh        1 FMF     -0.592800
     10 O          -0.5070   -1.0210    0.6880 os        1 FMF     -0.435600
     11 C1         -0.1530   -0.9380    2.0620 c3        1 FMF      0.358400
     12 F1         -0.7830   -2.0440    2.5630 f         1 FMF     -0.201300
     13 H5         -0.3920    1.0310    0.2850 h1        1 FMF      0.070700
     14 H2          1.6050   -0.7800    3.3630 h1        1 FMF      0.083700
     15 H3          1.7490    1.1510    1.8540 h1        1 FMF      0.100700
     16 HO3         3.7080   -0.7900    1.2430 ho        1 FMF      0.418000
     17 H4          1.9490   -0.8920   -0.5000 h1        1 FMF      0.061700
     18 HO4         2.9340    1.2820   -0.5770 ho        1 FMF      0.423000
     19 H61        -0.1620   -1.2200   -1.8660 h1        1 FMF      0.067200
     20 H62        -0.0650    0.5920   -2.2020 h1        1 FMF      0.067200
     21 HO6        -2.2670   -0.7470   -1.0330 ho        1 FMF      0.413000
     22 H1         -0.5650    0.0050    2.5250 h2        1 FMF      0.062700
@<TRIPOS>BOND
     1    1    6 1   
     2    1    8 1   
     3    1   10 1   
     4    1   13 1   
     5    2    3 1   
     6    2    4 1   
     7    2   11 1   
     8    2   14 1   
     9    4    5 1   
    10    4    6 1   
    11    4   15 1   
    12    5   16 1   
    13    6    7 1   
    14    6   17 1   
    15    7   18 1   
    16    8    9 1   
    17    8   19 1   
    18    8   20 1   
    19    9   21 1   
    20   10   11 1   
    21   11   12 1   
    22   11   22 1   
@<TRIPOS>SUBSTRUCTURE
     1 FMF         1 TEMP              0 ****  ****    0 ROOT
