@<TRIPOS>MOLECULE
FMJ
   32    35     1     0     0
SMALL
bcc


@<TRIPOS>ATOM
      1 C1          0.0360   -0.2440    0.2880 c2        1 FMJ     -0.120000
      2 C2          1.4410   -0.2550   -0.1940 c2        1 FMJ     -0.219000
      3 C3         -0.8510   -0.1010   -0.8480 c2        1 FMJ     -0.066000
      4 C5          1.4850   -0.0870   -1.6930 c3        1 FMJ      0.118000
      5 C6          2.1860   -0.4260    0.9440 c2        1 FMJ      0.069000
      6 C14        -2.8680    0.0650   -2.2370 c3        1 FMJ     -0.216000
      7 C16         3.4820    1.2580   -2.5590 c1        1 FMJ     -0.017000
      8 C15         3.2580   -1.1250   -2.9500 c2        1 FMJ      0.178000
      9 N10         2.0700   -1.2320   -2.3680 n2        1 FMJ     -0.297000
     10 N18         4.0130    0.1240   -2.9630 n3        1 FMJ     -0.211000
     11 C11         2.0920    1.3020   -2.0350 c3        1 FMJ     -0.237000
     12 C12         3.5950   -0.5380    1.3110 c3        1 FMJ     -0.179000
     13 O9          1.2550   -0.4950    2.0310 os        1 FMJ     -0.049000
     14 N4          0.0070   -0.3900    1.6170 n2        1 FMJ      0.071000
     15 C8         -2.2100   -0.0580   -0.9260 c2        1 FMJ      0.033000
     16 C17        -1.9790    0.1290   -3.4060 c2        1 FMJ      0.043000
     17 C13        -0.6110    0.0860   -3.2990 c2        1 FMJ     -0.198000
     18 C7         -0.0230   -0.0300   -2.0300 c2        1 FMJ      0.216000
     19 H14        -3.5850   -0.8110   -2.3700 hc        1 FMJ      0.211000
     20 H16         1.4750    1.8340   -2.8110 hc        1 FMJ      0.148500
     21 HN19        4.9400    0.1220   -3.3360 hn        1 FMJ      0.276000
     22 HN1A        4.7660   -2.2450   -3.7870 hn        1 FMJ      0.240500
     23 H11         2.1040    1.9490   -1.1150 hc        1 FMJ      0.148500
     24 H12         4.1640    0.3470    0.9270 hc        1 FMJ      0.123667
     25 H12A        4.0300   -1.4700    0.8670 hc        1 FMJ      0.123667
     26 H12B        3.7120   -0.5850    2.4250 hc        1 FMJ      0.123667
     27 H8         -2.8500   -0.1200   -0.0270 ha        1 FMJ      0.196000
     28 H17        -3.5420    0.9830   -2.2310 hc        1 FMJ      0.211000
     29 H13        -2.4640    0.2090   -4.3980 ha        1 FMJ      0.183000
     30 H7          0.0320    0.1220   -4.1980 ha        1 FMJ      0.194000
     31 N19         3.7810   -2.2050   -3.6590 n3        1 FMJ     -0.338000
     32 H193        3.3120   -3.0790   -3.5690 hn        1 FMJ      0.240500
@<TRIPOS>BOND
     1    1    2 1   
     2    1    3 1   
     3    1   14 1   
     4    2    4 1   
     5    2    5 1   
     6    3   15 1   
     7    3   18 1   
     8    4    9 1   
     9    4   11 1   
    10    4   18 1   
    11    5   12 1   
    12    5   13 1   
    13    6   15 1   
    14    6   16 1   
    15    6   19 1   
    16    6   28 1   
    17    7   10 1   
    18    7   11 1   
    19    8    9 1   
    20    8   10 1   
    21    8   31 1   
    22   10   21 1   
    23   11   20 1   
    24   11   23 1   
    25   12   24 1   
    26   12   25 1   
    27   12   26 1   
    28   13   14 1   
    29   15   27 1   
    30   16   17 1   
    31   16   29 1   
    32   17   18 1   
    33   17   30 1   
    34   22   31 1   
    35   31   32 1   
@<TRIPOS>SUBSTRUCTURE
     1 FMJ         1 TEMP              0 ****  ****    0 ROOT
