@<TRIPOS>MOLECULE
FMJ
   31    33     1     0     0
SMALL
bcc


@<TRIPOS>ATOM
      1 C1          0.9300   -1.3090   -0.0690 cc        1 FMJ      0.412800
      2 C2         -0.5390   -1.2410   -0.0470 cc        1 FMJ     -0.383100
      3 C3          1.8600   -0.1900   -0.1420 ca        1 FMJ     -0.122500
      4 C5         -1.3820   -0.0590   -0.0380 ca        1 FMJ      0.565800
      5 C6         -0.9450   -2.5680    0.0050 cd        1 FMJ      0.297000
      6 C14         3.8330    0.9500    0.6690 ca        1 FMJ     -0.138000
      7 C16        -3.4020    1.0740   -0.6830 ca        1 FMJ      0.467200
      8 C15        -1.8060    2.1410    0.6140 ca        1 FMJ      0.871900
      9 N10        -0.9530    1.0430    0.6210 nb        1 FMJ     -0.738000
     10 N18        -3.0330    2.1940   -0.0500 nb        1 FMJ     -0.750000
     11 C11        -2.6260   -0.0970   -0.7120 ca        1 FMJ     -0.426600
     12 C12        -2.2240   -3.2730    0.0520 c3        1 FMJ     -0.146400
     13 O9          0.2190   -3.3670    0.0190 os        1 FMJ     -0.115100
     14 N4          1.2970   -2.6090   -0.0290 nd        1 FMJ     -0.357300
     15 C8          2.9390   -0.1170    0.7480 ca        1 FMJ     -0.092000
     16 C17         3.6610    1.9400   -0.2970 ca        1 FMJ     -0.119000
     17 C13         2.5900    1.8650   -1.1880 ca        1 FMJ     -0.138000
     18 C7          1.6890    0.8050   -1.1130 ca        1 FMJ     -0.092000
     19 H14         4.6780    1.0070    1.3710 ha        1 FMJ      0.133000
     20 H16        -4.3780    1.1210   -1.2020 h4        1 FMJ      0.026100
     21 HN19       -0.4830    3.3040    1.6600 hn        1 FMJ      0.432300
     22 HN1A       -1.9000    4.1040    1.1890 hn        1 FMJ      0.432300
     23 H11        -2.9580   -0.9940   -1.2430 ha        1 FMJ      0.152000
     24 H12        -2.5680   -3.5050   -0.9890 hc        1 FMJ      0.071033
     25 H12A       -2.1230   -4.2350    0.6140 hc        1 FMJ      0.071033
     26 H12B       -2.9930   -2.6310    0.5510 hc        1 FMJ      0.071033
     27 H8          3.0800   -0.9000    1.5080 ha        1 FMJ      0.140000
     28 H17         4.3710    2.7780   -0.3600 ha        1 FMJ      0.131000
     29 H13         2.4560    2.6430   -1.9550 ha        1 FMJ      0.133000
     30 H7          0.8440    0.7470   -1.8140 ha        1 FMJ      0.140000
     31 N19        -1.4340    3.2480    1.3770 nh        1 FMJ     -0.929500
@<TRIPOS>BOND
     1    1    2 1   
     2    1    3 1   
     3    1   14 2   
     4    2    4 1   
     5    2    5 2   
     6    3   15 ar  
     7    3   18 ar  
     8    4    9 ar  
     9    4   11 ar  
    10    5   12 1   
    11    5   13 1   
    12    6   15 ar  
    13    6   16 ar  
    14    6   19 1   
    15    7   10 ar  
    16    7   11 ar  
    17    7   20 1   
    18    8    9 ar  
    19    8   10 ar  
    20    8   31 1   
    21   11   23 1   
    22   12   24 1   
    23   12   25 1   
    24   12   26 1   
    25   13   14 1   
    26   15   27 1   
    27   16   17 ar  
    28   16   28 1   
    29   17   18 ar  
    30   17   29 1   
    31   18   30 1   
    32   21   31 1   
    33   22   31 1   
@<TRIPOS>SUBSTRUCTURE
     1 FMJ         1 TEMP              0 ****  ****    0 ROOT
