@<TRIPOS>MOLECULE
FMJ
   31    32     1     0     0
SMALL
bcc


@<TRIPOS>ATOM
      1 C1          0.3040    0.2250   -0.1470 c2        1 FMJ     -0.026000
      2 C2          1.7710    0.0740    0.0760 c2        1 FMJ     -0.145000
      3 C3         -0.4480   -0.0590   -1.3670 c2        1 FMJ     -0.086000
      4 C5          2.7380   -0.3700   -0.7690 c2        1 FMJ      0.107000
      5 C6          1.9260    0.4950    1.4770 c2        1 FMJ      0.024000
      6 C14        -2.4530   -1.0190   -2.4800 c3        1 FMJ     -0.165000
      7 C16         2.9310    2.3910   -3.2240 c1        1 FMJ      0.176000
      8 C15         2.4200   -0.1500   -3.1350 c2        1 FMJ      0.364000
      9 N10         2.4790   -0.8870   -2.0420 n2        1 FMJ     -0.287000
     10 N18         2.7430    1.2220   -3.2070 n2        1 FMJ     -0.340000
     11 C11         4.1580   -0.4580   -0.2900 c3        1 FMJ     -0.201000
     12 C12         2.9290    0.6250    2.3460 c2        1 FMJ     -0.245000
     13 O9          0.5980    0.8400    1.9330 os        1 FMJ     -0.124000
     14 N4         -0.2830    0.6630    0.9670 n2        1 FMJ     -0.007000
     15 C8         -1.6080   -0.7700   -1.2930 c2        1 FMJ     -0.050000
     16 C17        -1.9820   -0.3570   -3.7170 c2        1 FMJ     -0.086000
     17 C13        -0.8230    0.3390   -3.7490 c2        1 FMJ     -0.190000
     18 C7          0.0480    0.4350   -2.6190 c1        1 FMJ     -0.064000
     19 H14        -2.5170   -2.1320   -2.6570 hc        1 FMJ      0.141500
     20 H16         4.5070    0.5590    0.0220 hc        1 FMJ      0.096667
     21 HN19        2.4940   -0.3560   -5.1800 hn        1 FMJ      0.209500
     22 HN1A        2.1030   -1.7610   -4.3580 hn        1 FMJ      0.209500
     23 H11         4.8520   -0.8430   -1.0770 hc        1 FMJ      0.096667
     24 H12         4.2130   -1.1470    0.5900 hc        1 FMJ      0.096667
     25 H12A        2.7480    0.9820    3.3680 ha        1 FMJ      0.133500
     26 H12B        3.9680    0.3900    2.0950 ha        1 FMJ      0.133500
     27 H8         -1.9710   -1.2010   -0.3440 ha        1 FMJ      0.148000
     28 H17        -3.5020   -0.6670   -2.2530 hc        1 FMJ      0.141500
     29 H13        -2.6240   -0.4790   -4.6040 ha        1 FMJ      0.132000
     30 H7         -0.4840    0.8340   -4.6750 ha        1 FMJ      0.148000
     31 N19         2.0880   -0.7650   -4.3700 n8        1 FMJ     -0.343000
@<TRIPOS>BOND
     1    1    2 1   
     2    1    3 1   
     3    1   14 1   
     4    2    4 1   
     5    2    5 1   
     6    3   15 1   
     7    3   18 1   
     8    4    9 1   
     9    4   11 1   
    10    5   12 1   
    11    5   13 1   
    12    6   15 1   
    13    6   16 1   
    14    6   19 1   
    15    6   28 1   
    16    7   10 1   
    17    8    9 1   
    18    8   10 1   
    19    8   31 1   
    20   11   20 1   
    21   11   23 1   
    22   11   24 1   
    23   12   25 1   
    24   12   26 1   
    25   13   14 1   
    26   15   27 1   
    27   16   17 1   
    28   16   29 1   
    29   17   18 1   
    30   17   30 1   
    31   21   31 1   
    32   22   31 1   
@<TRIPOS>SUBSTRUCTURE
     1 FMJ         1 TEMP              0 ****  ****    0 ROOT
