@<TRIPOS>MOLECULE
FMK
   47    46     1     0     0
SMALL
bcc


@<TRIPOS>ATOM
      1 C21        -1.9280    2.7640    6.3540 ca        1 FMK      0.122900
      2 C20        -1.6710    4.1160    6.0830 ca        1 FMK     -0.183000
      3 C24        -5.3000   -1.8970    3.3970 c3        1 FMK      0.057300
      4 C18        -0.7410    3.4820    3.9120 ca        1 FMK     -0.140000
      5 C6         -1.7400   -5.9880    3.3160 c1        1 FMK      0.568800
      6 C2         -7.3160    2.3270    6.4550 c2        1 FMK     -0.076300
      7 C3         -6.6610    1.8380    7.4810 c1        1 FMK      0.183500
      8 C4         -3.0420   -4.4230    1.7480 ce        1 FMK      0.838500
      9 C11        -3.5290   -0.6920    4.6200 c         1 FMK      0.696700
     10 C12        -2.0990   -0.4330    4.7880 cc        1 FMK     -0.092100
     11 C13        -1.1510   -1.1130    4.0730 cd        1 FMK     -0.007000
     12 C16        -1.5690    1.7760    5.4080 ca        1 FMK      0.063100
     13 C17        -0.9840    2.1430    4.1930 ca        1 FMK     -0.122000
     14 C8         -1.5630   -2.0810    3.1300 cd        1 FMK     -0.262000
     15 C9         -2.9200   -2.3250    2.9080 cd        1 FMK      0.298200
     16 C19        -1.0800    4.4690    4.8580 ca        1 FMK      0.145900
     17 F23        -0.8400    5.7720    4.5880 f         1 FMK     -0.118900
     18 F22        -2.5070    2.4090    7.5280 f         1 FMK     -0.158900
     19 O15        -1.7610    0.4530    5.8070 os        1 FMK     -0.237200
     20 N10        -3.8970   -1.6540    3.6530 n         1 FMK     -0.319000
     21 N5         -3.3440   -3.1740    1.8510 nf        1 FMK     -0.617300
     22 N7         -2.3370   -5.2470    2.6020 n1        1 FMK     -0.961400
     23 C30        -7.1600    1.8310    5.0740 c3        1 FMK     -0.090900
     24 N25        -6.1730    1.2540    8.4870 n2        1 FMK     -0.341100
     25 N29        -4.9660    1.6430    9.0260 nh        1 FMK     -0.273100
     26 C28        -4.3100    0.9770    9.9570 cg        1 FMK      0.342800
     27 N27        -4.7370   -0.2820   10.5530 n1        1 FMK      0.022200
     28 N26        -4.6840   -1.2190   11.1490 n1        1 FMK      0.271000
     29 H20        -1.9260    4.8900    6.8210 ha        1 FMK      0.170000
     30 H24        -5.9240   -1.2480    4.0680 h1        1 FMK      0.070033
     31 H24A       -5.5450   -1.6590    2.3270 h1        1 FMK      0.070033
     32 H24B       -5.5430   -2.9730    3.6040 h1        1 FMK      0.070033
     33 H18        -0.2780    3.7800    2.9580 ha        1 FMK      0.170000
     34 H6         -0.8000   -2.6240    2.5540 ha        1 FMK      0.171000
     35 H2         -3.6090   -0.3590    7.3290 hn        1 FMK      0.360133
     36 H3         -2.8280   -1.4450    8.2540 hn        1 FMK      0.360133
     37 H3A        -8.0470    3.1440    6.6190 ha        1 FMK      0.180000
     38 H13        -0.0750   -0.9220    4.2240 ha        1 FMK      0.167000
     39 H17        -0.7180    1.3670    3.4590 ha        1 FMK      0.159000
     40 HN1        -3.4110   -4.9380    0.8220 h5        1 FMK      0.075800
     41 H30        -6.8850    2.6850    4.4030 hc        1 FMK      0.082033
     42 H30A       -6.3720    1.0400    4.9910 hc        1 FMK      0.082033
     43 H30B       -8.1360    1.4080    4.7210 hc        1 FMK      0.082033
     44 H28        -4.4670    2.4570    8.6640 hn        1 FMK      0.500800
     45 N1         -3.1220   -0.4910    8.1970 n3        1 FMK     -1.056400
     46 H12        -2.3040    0.0890    8.1760 hn        1 FMK      0.360133
     47 O14        -4.4190   -0.1310    5.3000 o         1 FMK     -0.682500
@<TRIPOS>BOND
     1    1    2 ar  
     2    1   12 ar  
     3    1   18 1   
     4    2   16 ar  
     5    2   29 1   
     6    3   20 1   
     7    3   30 1   
     8    3   31 1   
     9    3   32 1   
    10    4   13 ar  
    11    4   16 ar  
    12    4   33 1   
    13    5   22 3   
    14    6    7 2   
    15    6   23 1   
    16    6   37 1   
    17    7   24 2   
    18    8   21 2   
    19    8   22 1   
    20    8   40 1   
    21    9   10 1   
    22    9   20 1   
    23    9   47 2   
    24   10   11 2   
    25   10   19 1   
    26   11   14 1   
    27   11   38 1   
    28   12   13 ar  
    29   12   19 1   
    30   13   39 1   
    31   14   15 2   
    32   14   34 1   
    33   15   20 1   
    34   15   21 1   
    35   16   17 1   
    36   23   41 1   
    37   23   42 1   
    38   23   43 1   
    39   24   25 1   
    40   25   26 3   
    41   25   44 1   
    42   26   27 1   
    43   27   28 3   
    44   35   45 1   
    45   36   45 1   
    46   45   46 1   
@<TRIPOS>SUBSTRUCTURE
     1 FMK         1 TEMP              0 ****  ****    0 ROOT
