@<TRIPOS>MOLECULE
FMK
   46    41     1     0     0
SMALL
bcc


@<TRIPOS>ATOM
      1 C21         4.1830   -0.2110   -4.4470 c1        1 FMK      0.105500
      2 C20         5.4990   -0.6010   -4.7530 c1        1 FMK     -0.169500
      3 C24        -0.1260   -2.5880   -2.1680 c3        1 FMK     -0.086000
      4 C18         6.3550    1.2390   -3.4230 c1        1 FMK     -0.169500
      5 C6          0.1240    1.3610    0.8050 c1        1 FMK      0.055000
      6 C2         -3.3020   -0.0790    2.7850 c3        1 FMK     -0.004000
      7 C3         -4.0020   -0.9180    3.8550 c3        1 FMK     -0.003000
      8 C4         -1.4130   -0.4020    1.2320 c1        1 FMK      0.199000
      9 C11         1.3570   -0.6390   -2.7950 c1        1 FMK      0.335000
     10 C12         1.9260    0.6970   -2.4810 c1        1 FMK     -0.023000
     11 C13         1.6090    1.3320   -1.2080 c1        1 FMK     -0.073000
     12 C16         3.9550    0.9070   -3.6270 c1        1 FMK     -0.023000
     13 C17         5.0420    1.6310   -3.1160 c1        1 FMK     -0.073000
     14 C8          0.6390    0.6490   -0.2370 c1        1 FMK     -0.272000
     15 C9          0.1110   -0.6180   -0.5460 c2        1 FMK      0.213000
     16 N1         -2.5480   -0.9240    1.9430 n2        1 FMK     -0.268000
     17 C19         6.5810    0.1230   -4.2420 c1        1 FMK      0.105500
     18 F23         7.8550   -0.2700   -4.5180 f         1 FMK     -0.091000
     19 F22         3.1610   -0.8090   -5.0440 f         1 FMK     -0.091000
     20 O15         2.6160    1.4280   -3.4850 os        1 FMK     -0.123000
     21 O14         1.6170   -1.1770   -3.8530 o         1 FMK     -0.317000
     22 N10         0.4600   -1.2930   -1.8440 n3        1 FMK     -0.240000
     23 N5         -0.8980   -1.1210    0.1860 n2        1 FMK     -0.279000
     24 N7         -0.8960    0.8460    1.5390 n1        1 FMK     -0.226000
     25 C30        -4.3240    0.6490    1.9760 c3        1 FMK     -0.246000
     26 N25        -4.1780   -0.1350    5.0340 n3        1 FMK     -0.166000
     27 N29        -5.1970    0.6960    5.2780 n2        1 FMK     -0.055000
     28 C28        -5.0640    1.1630    6.5510 c1        1 FMK     -0.191000
     29 N27        -3.9560    0.6120    7.0840 n2        1 FMK     -0.105000
     30 N26        -3.4020   -0.1900    6.1550 n2        1 FMK      0.028000
     31 H20         5.6600   -1.3900   -5.3310 ha        1 FMK      0.161500
     32 H24         0.4420   -3.0480   -2.8040 h1        1 FMK      0.105000
     33 H24A       -0.9940   -2.4610   -2.5510 h1        1 FMK      0.105000
     34 H24B       -0.2060   -3.1350   -1.3320 h1        1 FMK      0.105000
     35 H18         7.1270    1.7550   -3.0600 ha        1 FMK      0.161500
     36 H6          0.4960    2.2650    1.0290 ha        1 FMK      0.173000
     37 H2         -2.7250    0.5490    3.2030 h1        1 FMK      0.150000
     38 H3         -3.4540   -1.7040    4.0640 h1        1 FMK      0.125500
     39 H3A        -4.8830   -1.2100    3.5210 h1        1 FMK      0.125500
     40 H13         1.9710    2.1910   -0.9980 ha        1 FMK      0.155500
     41 H17         4.8820    2.4220   -2.5360 ha        1 FMK      0.155500
     42 HN1        -2.8290   -1.7930    1.7900 hn        1 FMK      0.227000
     43 H30        -4.8970    0.0080    1.5260 hc        1 FMK      0.092000
     44 H30A       -4.8520    1.2000    2.5530 hc        1 FMK      0.092000
     45 H30B       -3.8680    1.2190    1.3010 hc        1 FMK      0.092000
     46 H28        -5.6540    1.7740    6.9890 DU        1 FMK      0.225000
@<TRIPOS>BOND
     1    1    2 1   
     2    1   19 1   
     3    2   31 1   
     4    3   22 1   
     5    3   32 1   
     6    3   33 1   
     7    3   34 1   
     8    4   17 1   
     9    4   35 1   
    10    5   14 1   
    11    5   36 1   
    12    6    7 1   
    13    6   16 1   
    14    6   25 1   
    15    6   37 1   
    16    7   26 1   
    17    7   38 1   
    18    7   39 1   
    19    8   23 1   
    20    8   24 1   
    21    9   21 1   
    22    9   22 1   
    23   10   11 1   
    24   10   20 1   
    25   11   40 1   
    26   12   13 1   
    27   12   20 1   
    28   13   41 1   
    29   14   15 1   
    30   15   22 1   
    31   15   23 1   
    32   16   42 1   
    33   17   18 1   
    34   25   43 1   
    35   25   44 1   
    36   25   45 1   
    37   26   27 1   
    38   26   30 1   
    39   27   28 1   
    40   28   29 1   
    41   29   30 1   
@<TRIPOS>SUBSTRUCTURE
     1 FMK         1 TEMP              0 ****  ****    0 ROOT
