@<TRIPOS>MOLECULE
FMK
   46    49     1     0     0
SMALL
bcc


@<TRIPOS>ATOM
      1 C21        -5.8370   -0.4820    0.2020 ca        1 FMK      0.147900
      2 C20        -6.7730    0.5590    0.2740 ca        1 FMK     -0.185000
      3 C24        -0.1080   -0.4400   -2.9930 c3        1 FMK      0.068300
      4 C18        -4.9580    2.1570    0.6360 ca        1 FMK     -0.151000
      5 C6          1.0690   -1.2480    1.6830 ca        1 FMK      0.521200
      6 C2          5.1070   -1.0880    0.6020 c3        1 FMK      0.207500
      7 C3          6.4470   -0.4430    0.1480 c3        1 FMK      0.053300
      8 C4          2.6890   -0.9030    0.0600 ca        1 FMK      0.928900
      9 C11        -1.9040   -0.7740   -1.3300 c         1 FMK      0.697700
     10 C12        -2.2730   -1.0340    0.0750 cc        1 FMK     -0.051100
     11 C13        -1.3480   -1.1800    1.0580 cd        1 FMK      0.001800
     12 C16        -4.4580   -0.1890    0.3580 ca        1 FMK      0.072100
     13 C17        -4.0310    1.1230    0.5710 ca        1 FMK     -0.133000
     14 C8          0.0360   -1.0890    0.7270 ca        1 FMK     -0.422400
     15 C9          0.4450   -0.8400   -0.6300 ca        1 FMK      0.624200
     16 C19        -6.3280    1.8750    0.4890 ca        1 FMK      0.127900
     17 F23        -7.2330    2.8810    0.5550 f         1 FMK     -0.135900
     18 F22        -6.2500   -1.7510   -0.0030 f         1 FMK     -0.117900
     19 O15        -3.6130   -1.2940    0.3380 os        1 FMK     -0.212200
     20 O14        -2.7330   -0.6300   -2.2430 o         1 FMK     -0.593500
     21 N10        -0.5200   -0.6790   -1.6270 n         1 FMK     -0.424300
     22 N5          1.7740   -0.7610   -0.9640 nb        1 FMK     -0.806000
     23 N7          2.3630   -1.1710    1.4020 nb        1 FMK     -0.763000
     24 C30         5.3540   -2.5950    0.6930 c3        1 FMK     -0.127100
     25 N25         6.3850    1.0100   -0.0040 na        1 FMK      0.194900
     26 N29         6.5780    1.8790    1.0140 nc        1 FMK     -0.484800
     27 C28         6.2940    3.0790    0.4520 cd        1 FMK      0.473900
     28 N27         5.9140    2.8830   -0.9110 nd        1 FMK     -0.365000
     29 N26         5.9680    1.6400   -1.1410 nc        1 FMK     -0.147800
     30 H20        -7.8450    0.3460    0.1560 ha        1 FMK      0.168000
     31 H24        -1.0140   -0.3260   -3.6470 h1        1 FMK      0.066033
     32 H24A        0.5060    0.4980   -3.0460 h1        1 FMK      0.066033
     33 H24B        0.5070   -1.3030   -3.3640 h1        1 FMK      0.066033
     34 H18        -4.6290    3.1940    0.7990 ha        1 FMK      0.155000
     35 H6          0.8150   -1.4560    2.7410 h4        1 FMK      0.033100
     36 H2          4.8680   -0.7020    1.6400 h1        1 FMK      0.101700
     37 H3          7.2230   -0.6860    0.9270 h1        1 FMK      0.086700
     38 H3A         6.7700   -0.8780   -0.8400 h1        1 FMK      0.086700
     39 H13        -1.6430   -1.3840    2.1000 ha        1 FMK      0.159000
     40 H17        -2.9570    1.3370    0.6790 ha        1 FMK      0.151000
     41 HN1         4.2390   -0.6690   -1.2560 hn        1 FMK      0.451800
     42 H30         4.4400   -3.1160    1.0670 hc        1 FMK      0.052700
     43 H30A        5.6290   -3.0230   -0.3010 hc        1 FMK      0.052700
     44 H30B        6.1880   -2.7890    1.4110 hc        1 FMK      0.052700
     45 H28         6.3460    4.0580    0.9350 h5        1 FMK      0.088100
     46 N1          4.0260   -0.7110   -0.2810 nh        1 FMK     -0.836900
@<TRIPOS>BOND
     1    1    2 ar  
     2    1   12 ar  
     3    1   18 1   
     4    2   16 ar  
     5    2   30 1   
     6    3   21 1   
     7    3   31 1   
     8    3   32 1   
     9    3   33 1   
    10    4   13 ar  
    11    4   16 ar  
    12    4   34 1   
    13    5   14 ar  
    14    5   23 ar  
    15    5   35 1   
    16    6    7 1   
    17    6   24 1   
    18    6   36 1   
    19    6   46 1   
    20    7   25 1   
    21    7   37 1   
    22    7   38 1   
    23    8   22 ar  
    24    8   23 ar  
    25    8   46 1   
    26    9   10 1   
    27    9   20 2   
    28    9   21 1   
    29   10   11 2   
    30   10   19 1   
    31   11   14 1   
    32   11   39 1   
    33   12   13 ar  
    34   12   19 1   
    35   13   40 1   
    36   14   15 ar  
    37   15   21 1   
    38   15   22 ar  
    39   16   17 1   
    40   24   42 1   
    41   24   43 1   
    42   24   44 1   
    43   25   26 1   
    44   25   29 1   
    45   26   27 2   
    46   27   28 1   
    47   27   45 1   
    48   28   29 2   
    49   41   46 1   
@<TRIPOS>SUBSTRUCTURE
     1 FMK         1 TEMP              0 ****  ****    0 ROOT
