@<TRIPOS>MOLECULE
FMK
   46    45     1     0     0
SMALL
bcc


@<TRIPOS>ATOM
      1 C21         0.7690   -0.7700    0.7020 ca        1 FMK      0.098000
      2 C20         1.8780    0.0900    0.6410 ca        1 FMK     -0.202000
      3 C24        -3.2690   -3.1840    4.9620 c3        1 FMK     -0.112000
      4 C18         0.4230    1.9840    1.1600 ca        1 FMK     -0.171000
      5 C6         -4.7210    1.3310    3.6990 c2        1 FMK      0.071000
      6 C2         -6.2820    1.8370    7.5170 c3        1 FMK     -0.036000
      7 C3         -6.1910    2.5250   12.4540 c1        1 FMK     -0.134000
      8 C4         -5.1730    0.4220    5.7980 c2        1 FMK      0.258000
      9 C11        -2.6200   -2.2350    2.7410 c2        1 FMK      0.334000
     10 C12        -2.5190   -0.9930    1.9460 c2        1 FMK     -0.148000
     11 C13        -3.3130    0.0690    2.1230 c1        1 FMK     -0.304000
     12 C16        -0.5130   -0.2380    0.9860 ca        1 FMK      0.025000
     13 C17        -0.6740    1.1330    1.2080 ca        1 FMK     -0.115000
     14 C8         -4.3810   -0.0080    3.1230 c3        1 FMK     -0.114000
     15 C9         -4.1470   -1.0250    4.2490 c2        1 FMK      0.195000
     16 C19         1.6990    1.4620    0.8760 ca        1 FMK      0.086000
     17 F23         2.7700    2.2920    0.8270 f         1 FMK     -0.111000
     18 F22         0.9360   -2.0920    0.4770 f         1 FMK     -0.088000
     19 O15        -1.5820   -1.1220    0.9190 os        1 FMK     -0.112000
     20 O14        -2.1230   -3.3340    2.4950 o         1 FMK     -0.283000
     21 N10        -3.4250   -2.1420    3.9690 n         1 FMK     -0.213000
     22 N5         -4.6540   -0.8210    5.5060 n2        1 FMK     -0.357000
     23 N7         -5.1140    1.5600    4.9120 n2        1 FMK     -0.226000
     24 C30        -7.7030    2.1150    7.0540 c3        1 FMK     -0.235000
     25 N25        -6.0830    1.9350   11.4600 n1        1 FMK     -0.127000
     26 N29        -4.1060    0.3360   14.1210 n2        1 FMK     -0.355000
     27 C28        -4.7580    1.3040   14.2660 c1        1 FMK      0.072000
     28 N27        -4.5070   -0.6460   11.2110 n1        1 FMK      0.000500
     29 N26        -4.9310   -0.5770   10.1920 n1        1 FMK      0.000500
     30 H20         2.8760   -0.3120    0.4150 ha        1 FMK      0.159000
     31 H24        -2.6830   -2.8020    5.8400 h1        1 FMK      0.108667
     32 H24A       -2.7270   -4.0570    4.5060 h1        1 FMK      0.108667
     33 H24B       -4.2770   -3.5270    5.3170 h1        1 FMK      0.108667
     34 H18         0.3030    3.0620    1.3330 ha        1 FMK      0.146000
     35 H6         -4.6450    2.1910    2.9990 h4        1 FMK      0.208000
     36 H2         -5.6190    2.6960    7.2100 h1        1 FMK      0.120500
     37 H3         -6.2660    1.7740    8.6460 h1        1 FMK      0.120500
     38 H3A        -6.2760    3.0540   13.3840 ha        1 FMK      0.261000
     39 H13        -5.3010   -0.3620    2.5480 hc        1 FMK      0.184000
     40 H17        -1.6900    1.5170    1.4190 ha        1 FMK      0.192000
     41 HN1        -5.7880   -0.2000    7.6370 hn        1 FMK      0.268000
     42 H30        -8.3990    1.2980    7.3610 hc        1 FMK      0.090333
     43 H30A       -8.0450    3.0680    7.5260 hc        1 FMK      0.090333
     44 H30B       -7.7520    2.2300    5.9450 hc        1 FMK      0.090333
     45 H28        -3.5740   -0.4620   13.9810 hn        1 FMK      0.284000
     46 N1         -5.7230    0.5950    7.0340 n7        1 FMK     -0.234000
@<TRIPOS>BOND
     1    1    2 1   
     2    1   12 1   
     3    1   18 1   
     4    2   16 1   
     5    2   30 1   
     6    3   21 1   
     7    3   31 1   
     8    3   32 1   
     9    3   33 1   
    10    4   13 1   
    11    4   16 1   
    12    4   34 1   
    13    5   14 1   
    14    5   23 1   
    15    5   35 1   
    16    6   24 1   
    17    6   36 1   
    18    6   37 1   
    19    6   46 1   
    20    7   25 1   
    21    7   38 1   
    22    8   22 1   
    23    8   23 1   
    24    8   46 1   
    25    9   10 1   
    26    9   20 1   
    27    9   21 1   
    28   10   11 1   
    29   10   19 1   
    30   11   14 1   
    31   12   13 1   
    32   12   19 1   
    33   13   40 1   
    34   14   15 1   
    35   14   39 1   
    36   15   21 1   
    37   15   22 1   
    38   16   17 1   
    39   24   42 1   
    40   24   43 1   
    41   24   44 1   
    42   26   27 1   
    43   26   45 1   
    44   28   29 1   
    45   41   46 1   
@<TRIPOS>SUBSTRUCTURE
     1 FMK         1 TEMP              0 ****  ****    0 ROOT
