@<TRIPOS>MOLECULE
FML
   42    41     1     0     0
SMALL
bcc


@<TRIPOS>ATOM
      1 C1          0.5660   -0.5410   -1.1400 c1        1 FML     -0.074000
      2 N2          1.8880   -0.3650   -0.9580 n3        1 FML     -0.186000
      3 C3          2.4140   -0.2620    0.3300 c2        1 FML      0.239000
      4 C5         -0.2610   -0.6160    0.0340 c2        1 FML     -0.383000
      5 C6          0.3360   -0.5030    1.3110 c2        1 FML      0.093000
      6 C9         -1.6680   -0.8030   -0.1360 c2        1 FML      0.231000
      7 C11         4.6720    0.0050   -0.4470 c2        1 FML     -0.132000
      8 C13        -7.3700    0.5200    1.9490 c2        1 FML      0.098000
      9 C14        -6.7570   -0.2570    1.0410 c2        1 FML     -1.009000
     10 C15        -8.4620    1.4570    1.6450 c3        1 FML     -0.236000
     11 C22         6.7420    0.2120   -2.3330 c2        1 FML      0.193000
     12 C21         5.3390    0.0210   -2.8170 c3        1 FML     -0.187000
     13 C20         4.3350   -0.0760   -1.7820 c1        1 FML     -0.210000
     14 C23         7.0440    0.2890   -0.9920 c2        1 FML     -0.294000
     15 C24         6.0040    0.1850   -0.0100 c2        1 FML      0.319000
     16 F25         6.3240    0.2620    1.2800 f         1 FML     -0.024000
     17 O10         3.7470   -0.0810    0.6080 os        1 FML     -0.086000
     18 N4          1.6580   -0.3270    1.4810 n2        1 FML     -0.183000
     19 N7         -3.1000   -0.6290    4.8860 n1        1 FML      0.000500
     20 N8         -2.4180   -0.6410    4.0160 n1        1 FML      0.000500
     21 N12        -2.2430   -0.9090   -1.3120 n3        1 FML     -0.197000
     22 S16        -5.5240   -1.2940    1.3100 s6        1 FML      2.900000
     23 O17        -4.5720   -1.2260    0.2560 o         1 FML     -0.992500
     24 O18        -4.9410   -1.1060    2.5750 o         1 FML     -0.992500
     25 C19        -6.3130   -2.7780    1.2370 c3        1 FML     -0.952000
     26 H1          2.5800   -0.2990   -1.7500 hn        1 FML      0.352000
     27 H13        -3.2380   -1.0440   -1.3810 hn        1 FML      0.285500
     28 H14        -7.0560    0.4840    3.0140 ha        1 FML      0.149000
     29 H14A       -7.1040   -0.1770   -0.0090 h4        1 FML      0.188000
     30 H15        -8.7290    1.4650    0.5600 hc        1 FML      0.115667
     31 H15A       -9.3730    1.1770    2.2350 hc        1 FML      0.115667
     32 H15B       -8.1640    2.4950    1.9480 hc        1 FML      0.115667
     33 H21         5.0600    0.8740   -3.5110 hc        1 FML      0.202000
     34 H20         5.2850   -0.9130   -3.4600 hc        1 FML      0.202000
     35 H23         8.0820    0.4300   -0.6440 ha        1 FML      0.198000
     36 HN7        -0.2520   -0.5530    2.2520 h4        1 FML      0.198000
     37 HN12       -2.3270   -0.8650    0.7670 h4        1 FML      0.203000
     38 H19        -7.2240   -2.7890    0.5880 h1        1 FML      0.168667
     39 H19A       -6.6520   -3.1320    2.2460 h1        1 FML      0.168667
     40 H19B       -5.6470   -3.5860    0.8370 h1        1 FML      0.168667
     41 F26         7.7020    0.3070   -3.2610 f         1 FML     -0.051000
     42 H122       -1.6980   -0.8610   -2.1540 hn        1 FML      0.285500
@<TRIPOS>BOND
     1    1    2 1   
     2    1    4 1   
     3    2    3 1   
     4    2   26 1   
     5    3   17 1   
     6    3   18 1   
     7    4    5 1   
     8    4    6 1   
     9    5   18 1   
    10    5   36 1   
    11    6   21 1   
    12    6   37 1   
    13    7   13 1   
    14    7   15 1   
    15    7   17 1   
    16    8    9 1   
    17    8   10 1   
    18    8   28 1   
    19    9   22 1   
    20    9   29 1   
    21   10   30 1   
    22   10   31 1   
    23   10   32 1   
    24   11   12 1   
    25   11   14 1   
    26   11   41 1   
    27   12   13 1   
    28   12   33 1   
    29   12   34 1   
    30   14   15 1   
    31   14   35 1   
    32   15   16 1   
    33   19   20 1   
    34   21   27 1   
    35   21   42 1   
    36   22   23 1   
    37   22   24 1   
    38   22   25 1   
    39   25   38 1   
    40   25   39 1   
    41   25   40 1   
@<TRIPOS>SUBSTRUCTURE
     1 FML         1 TEMP              0 ****  ****    0 ROOT
