@<TRIPOS>MOLECULE
FML
   41    43     1     0     0
SMALL
bcc


@<TRIPOS>ATOM
      1 C1         -0.3010   -0.0850    0.4050 ca        1 FML      0.543200
      2 N2         -1.6070    0.0090    0.1350 nb        1 FML     -0.754000
      3 C3         -2.0280    1.1630   -0.5140 ca        1 FML      0.870300
      4 C5          0.5910    0.9380    0.0520 ca        1 FML     -0.489500
      5 C6          0.0320    2.0970   -0.6320 ca        1 FML      0.477800
      6 C9          2.0250    1.2300    0.1360 cc        1 FML      0.588800
      7 C11        -4.2220    0.2530   -0.5160 ca        1 FML      0.046100
      8 C13         4.3460    0.7320    0.7780 c3        1 FML      0.231500
      9 C14         5.2190   -0.5180    0.9790 c3        1 FML     -0.323600
     10 C15         4.6350    1.7230    1.9010 c3        1 FML     -0.123100
     11 C22        -6.1250   -1.7180   -0.0250 ca        1 FML      0.156900
     12 C21        -5.6840   -1.4810   -1.3420 ca        1 FML     -0.176000
     13 C20        -4.7280   -0.5010   -1.5800 ca        1 FML     -0.071000
     14 C23        -5.6170   -0.9750    1.0530 ca        1 FML     -0.205000
     15 C24        -4.6550    0.0190    0.8080 ca        1 FML      0.171900
     16 F25        -4.1570    0.7400    1.8350 f         1 FML     -0.117900
     17 O10        -3.3810    1.3260   -0.8130 os        1 FML     -0.325400
     18 N4         -1.2950    2.2370   -0.9340 nb        1 FML     -0.696000
     19 N7          1.1010    2.9800   -0.8390 na        1 FML     -0.100800
     20 N8          2.2720    2.4520   -0.4320 nd        1 FML     -0.573100
     21 N12         2.9540    0.3220    0.6470 nh        1 FML     -0.784200
     22 S16         4.7520   -1.8550    0.0050 s6        1 FML      1.355000
     23 O17         3.6710   -2.5130    0.6080 o         1 FML     -0.647800
     24 O18         4.6710   -1.4960   -1.3410 o         1 FML     -0.647800
     25 C19         6.1460   -2.7930    0.2320 c3        1 FML     -0.372300
     26 H1          0.0350   -1.0080    0.9140 h4        1 FML      0.046100
     27 H13         4.6460    1.2080   -0.2060 h1        1 FML      0.097700
     28 H14         6.2740   -0.2010    0.7770 h1        1 FML      0.111700
     29 H14A        5.1880   -0.8030    2.0640 h1        1 FML      0.111700
     30 H15         5.7270    1.9510    1.9180 hc        1 FML      0.049033
     31 H15A        4.0760    2.6750    1.7370 hc        1 FML      0.049033
     32 H15B        4.3440    1.3030    2.8940 hc        1 FML      0.049033
     33 H21        -6.0950   -2.0770   -2.1690 ha        1 FML      0.159000
     34 H20        -4.3690   -0.3020   -2.6020 ha        1 FML      0.162000
     35 H23        -5.9630   -1.1690    2.0780 ha        1 FML      0.169000
     36 HN7         1.1100    3.7430   -1.4780 hn        1 FML      0.334700
     37 HN12        2.5990   -0.1590    1.4520 hn        1 FML      0.414800
     38 H19         6.4500   -2.8960    1.3020 h1        1 FML      0.114700
     39 H19A        5.9900   -3.8380   -0.1420 h1        1 FML      0.114700
     40 H19B        7.0320   -2.3970   -0.3200 h1        1 FML      0.114700
     41 F26        -7.0530   -2.6750    0.2070 f         1 FML     -0.131900
@<TRIPOS>BOND
     1    1    2 ar  
     2    1    4 ar  
     3    1   26 1   
     4    2    3 ar  
     5    3   17 1   
     6    3   18 ar  
     7    4    5 ar  
     8    4    6 1   
     9    5   18 ar  
    10    5   19 1   
    11    6   20 2   
    12    6   21 1   
    13    7   13 ar  
    14    7   15 ar  
    15    7   17 1   
    16    8    9 1   
    17    8   10 1   
    18    8   21 1   
    19    8   27 1   
    20    9   22 1   
    21    9   28 1   
    22    9   29 1   
    23   10   30 1   
    24   10   31 1   
    25   10   32 1   
    26   11   12 ar  
    27   11   14 ar  
    28   11   41 1   
    29   12   13 ar  
    30   12   33 1   
    31   13   34 1   
    32   14   15 ar  
    33   14   35 1   
    34   15   16 1   
    35   19   20 1   
    36   19   36 1   
    37   21   37 1   
    38   22   23 2   
    39   22   24 2   
    40   22   25 1   
    41   25   38 1   
    42   25   39 1   
    43   25   40 1   
@<TRIPOS>SUBSTRUCTURE
     1 FML         1 TEMP              0 ****  ****    0 ROOT
