@<TRIPOS>MOLECULE
FMM
   67    71     1     0     0
SMALL
bcc


@<TRIPOS>ATOM
      1 C1          2.4400   -1.3200   -2.8650 c3        1 FMM     -0.405300
      2 S2          3.7590   -0.6840   -2.0790 s6        1 FMM      1.353000
      3 O3          3.6330   -0.7480   -0.6940 o         1 FMM     -0.629300
      4 O4          4.9620   -1.0630   -2.6650 o         1 FMM     -0.629300
      5 C5          3.5400    1.0170   -2.4940 c3        1 FMM     -0.327600
      6 C6          4.6070    1.8410   -1.8140 c3        1 FMM      0.130800
      7 N7          4.4920    3.2990   -2.0960 ny        1 FMM     -0.767000
      8 C8          5.5630    4.0930   -1.3900 c3        1 FMM      0.118500
      9 C9          5.4380    5.5170   -1.7040 cc        1 FMM      0.072000
     10 C10         5.0920    6.6410   -0.9720 cd        1 FMM     -0.123300
     11 C11         5.2520    7.7700   -1.8440 cd        1 FMM     -0.276300
     12 C12         5.6890    7.2790   -3.0740 cc        1 FMM      0.409200
     13 O13         5.8100    5.8850   -3.0130 os        1 FMM     -0.381800
     14 C14         6.0160    7.9240   -4.3190 ca        1 FMM     -0.201500
     15 C15         5.5690    9.2570   -4.5310 ca        1 FMM     -0.081000
     16 C16         5.8810    9.9220   -5.6860 ca        1 FMM     -0.171300
     17 C17         6.6660    9.2900   -6.7050 ca        1 FMM      0.469600
     18 N18         6.9830    9.9860   -7.8510 nb        1 FMM     -0.715000
     19 C19         7.7280    9.3340   -8.7480 ca        1 FMM      0.697900
     20 N20         8.2080    8.0520   -8.6810 nb        1 FMM     -0.757000
     21 C21         7.9080    7.3420   -7.5670 ca        1 FMM      0.707200
     22 N22         8.4050    6.0520   -7.3930 nu        1 FMM     -0.713300
     23 C23         9.0810    5.3420   -8.4180 ca        1 FMM      0.084600
     24 C24        10.2540    5.8500   -9.0080 ca        1 FMM     -0.060000
     25 C25        10.9390    5.1030   -9.9600 ca        1 FMM     -0.188000
     26 C26        10.4810    3.8350  -10.3410 ca        1 FMM      0.147100
     27 O27        11.1020    3.0350  -11.2720 os        1 FMM     -0.308900
     28 C28        12.3240    3.5490  -11.8310 c3        1 FMM      0.174700
     29 C29        12.8480    2.5180  -12.7750 ca        1 FMM     -0.076300
     30 C30        11.9810    1.7210  -13.5280 ca        1 FMM     -0.115000
     31 C31        12.4950    0.7900  -14.4310 ca        1 FMM     -0.106000
     32 C32        13.8690    0.6470  -14.5960 ca        1 FMM     -0.154000
     33 C33        14.7410    1.4490  -13.8360 ca        1 FMM      0.127900
     34 F34        16.0810    1.3190  -13.9840 f         1 FMM     -0.135900
     35 C35        14.2310    2.3850  -12.9190 ca        1 FMM     -0.160000
     36 C36         9.3050    3.3160   -9.7530 ca        1 FMM     -0.001600
     37 Cl3         8.6940    1.7870  -10.1660 cl        1 FMM     -0.064400
     38 C38         8.6120    4.0700   -8.8090 ca        1 FMM     -0.132000
     39 C39         7.1050    7.9410   -6.4930 ca        1 FMM     -0.313600
     40 C40         6.7720    7.2860   -5.2910 ca        1 FMM     -0.033000
     41 H11A        1.4540   -1.0130   -2.4290 h1        1 FMM      0.144367
     42 H12         2.4350   -2.4460   -2.8210 h1        1 FMM      0.144367
     43 H13         2.3860   -1.0790   -3.9580 h1        1 FMM      0.144367
     44 H51         2.5180    1.3520   -2.1800 h1        1 FMM      0.117200
     45 H52         3.5930    1.1410   -3.6070 h1        1 FMM      0.117200
     46 H61         4.5410    1.6990   -0.6920 hx        1 FMM      0.123700
     47 H62         5.6300    1.5010   -2.1620 hx        1 FMM      0.123700
     48 HN7         4.5720    3.4650   -3.1070 hn        1 FMM      0.452300
     49 H81         5.4530    3.9250   -0.2800 hx        1 FMM      0.119700
     50 H82         6.5610    3.6890   -1.7360 hx        1 FMM      0.119700
     51 H10         4.7720    6.6830    0.0690 ha        1 FMM      0.180000
     52 H11         5.0780    8.8110   -1.5790 ha        1 FMM      0.191000
     53 H15         4.9670    9.7500   -3.7510 ha        1 FMM      0.147000
     54 H16         5.5370   10.9580   -5.8500 ha        1 FMM      0.173000
     55 H19         7.9970    9.8840   -9.6780 h5        1 FMM      0.069100
     56 H22         7.8710    5.4730   -6.7830 hn        1 FMM      0.422800
     57 H24        10.6400    6.8430   -8.7270 ha        1 FMM      0.160000
     58 H25        11.8480    5.5300  -10.4100 ha        1 FMM      0.153000
     59 H281       13.0550    3.7480  -11.0020 h1        1 FMM      0.055200
     60 H282       12.1010    4.5030  -12.3830 h1        1 FMM      0.055200
     61 H30        10.8930    1.8270  -13.3960 ha        1 FMM      0.152000
     62 H31        11.8090    0.1630  -15.0200 ha        1 FMM      0.143000
     63 H32        14.2820   -0.0830  -15.3080 ha        1 FMM      0.154000
     64 H35        14.9250    3.0000  -12.3280 ha        1 FMM      0.148000
     65 H38         7.6910    3.6550   -8.3700 ha        1 FMM      0.137000
     66 H40         7.1220    6.2620   -5.0870 ha        1 FMM      0.133000
     67 H72         3.5690    3.6360   -1.8010 hn        1 FMM      0.452300
@<TRIPOS>BOND
     1    1    2 1   
     2    1   41 1   
     3    1   42 1   
     4    1   43 1   
     5    2    3 2   
     6    2    4 2   
     7    2    5 1   
     8    5    6 1   
     9    5   44 1   
    10    5   45 1   
    11    6    7 1   
    12    6   46 1   
    13    6   47 1   
    14    7    8 1   
    15    7   48 1   
    16    7   67 1   
    17    8    9 1   
    18    8   49 1   
    19    8   50 1   
    20    9   10 2   
    21    9   13 1   
    22   10   11 1   
    23   10   51 1   
    24   11   12 2   
    25   11   52 1   
    26   12   13 1   
    27   12   14 1   
    28   14   15 ar  
    29   14   40 ar  
    30   15   16 ar  
    31   15   53 1   
    32   16   17 ar  
    33   16   54 1   
    34   17   18 ar  
    35   17   39 ar  
    36   18   19 ar  
    37   19   20 ar  
    38   19   55 1   
    39   20   21 ar  
    40   21   22 1   
    41   21   39 ar  
    42   22   23 1   
    43   22   56 1   
    44   23   24 ar  
    45   23   38 ar  
    46   24   25 ar  
    47   24   57 1   
    48   25   26 ar  
    49   25   58 1   
    50   26   27 1   
    51   26   36 ar  
    52   27   28 1   
    53   28   29 1   
    54   28   59 1   
    55   28   60 1   
    56   29   30 ar  
    57   29   35 ar  
    58   30   31 ar  
    59   30   61 1   
    60   31   32 ar  
    61   31   62 1   
    62   32   33 ar  
    63   32   63 1   
    64   33   34 1   
    65   33   35 ar  
    66   35   64 1   
    67   36   37 1   
    68   36   38 ar  
    69   38   65 1   
    70   39   40 ar  
    71   40   66 1   
@<TRIPOS>SUBSTRUCTURE
     1 FMM         1 TEMP              0 ****  ****    0 ROOT
