@<TRIPOS>MOLECULE
FMM
   68    72     1     0     0
SMALL
bcc


@<TRIPOS>ATOM
      1 C1          3.7100   -2.0690   -3.5910 c3        1 FMM     -0.413300
      2 S2          5.0230   -1.1340   -3.2140 s6        1 FMM      1.354000
      3 O3          5.4040   -1.2420   -1.8810 o         1 FMM     -0.628800
      4 O4          6.0070   -1.1510   -4.1970 o         1 FMM     -0.628800
      5 C5          4.2860    0.4760   -3.3480 c3        1 FMM     -0.324600
      6 C6          5.2660    1.5010   -2.8350 c3        1 FMM      0.134800
      7 N7          4.8040    2.9090   -3.0270 n4        1 FMM     -0.766000
      8 C8          5.7660    3.8900   -2.4170 c3        1 FMM      0.103500
      9 C9          5.3930    5.2770   -2.7250 cc        1 FMM      0.118000
     10 C10         4.6410    6.2330   -2.0650 cd        1 FMM     -0.143300
     11 C11         4.7010    7.4310   -2.8630 cd        1 FMM     -0.224300
     12 C12         5.4960    7.1420   -3.9650 cc        1 FMM      0.334200
     13 O13         5.9400    5.8140   -3.9060 os        1 FMM     -0.366800
     14 C14         5.9080    7.9550   -5.0890 ca        1 FMM     -0.102500
     15 C15         4.9720    8.9010   -5.5960 ca        1 FMM     -0.083000
     16 C16         5.2980    9.7190   -6.6450 ca        1 FMM     -0.133300
     17 C17         6.6010    9.6510   -7.2370 ca        1 FMM      0.442600
     18 N18         6.9130   10.4830   -8.2920 nb        1 FMM     -0.612000
     19 C19         8.1450   10.3980   -8.7910 ca        1 FMM      0.675900
     20 N20         9.1570    9.5630   -8.3480 nb        1 FMM     -0.667000
     21 C21         8.8550    8.7550   -7.3300 ca        1 FMM      0.539200
     22 N22         9.9550    7.8810   -6.8340 n4        1 FMM     -0.611100
     23 C23        10.1420    6.6900   -7.6680 ca        1 FMM     -0.116400
     24 C24        10.8510    6.7870   -8.8780 ca        1 FMM     -0.029000
     25 C25        11.0500    5.6490   -9.6450 ca        1 FMM     -0.198000
     26 C26        10.5430    4.4020   -9.2310 ca        1 FMM      0.223100
     27 O27        10.6900    3.2460   -9.9240 os        1 FMM     -0.286900
     28 C28        11.4560    3.3020  -11.1560 c3        1 FMM      0.179700
     29 C29        11.4830    1.9120  -11.6940 ca        1 FMM     -0.099300
     30 C30        11.2100    1.6920  -13.0480 ca        1 FMM     -0.123000
     31 C31        11.2840    0.4010  -13.5710 ca        1 FMM     -0.097000
     32 C32        11.6120   -0.6780  -12.7550 ca        1 FMM     -0.138000
     33 C33        11.8740   -0.4560  -11.3890 ca        1 FMM      0.132900
     34 F34        12.1860   -1.4950  -10.5820 f         1 FMM     -0.127900
     35 C35        11.8150    0.8450  -10.8570 ca        1 FMM     -0.141000
     36 C36         9.8180    4.3150   -8.0070 ca        1 FMM     -0.016600
     37 CL3         9.1870    2.8470   -7.4520 cl        1 FMM     -0.021400
     38 C38         9.6210    5.4550   -7.2380 ca        1 FMM     -0.077000
     39 C39         7.5540    8.7120   -6.7040 ca        1 FMM     -0.248600
     40 C40         7.1700    7.8570   -5.6430 ca        1 FMM     -0.101000
     41 H11A        2.9430   -2.1350   -2.7740 h1        1 FMM      0.150700
     42 H12         4.0020   -3.1400   -3.7910 h1        1 FMM      0.150700
     43 H13         3.1510   -1.7570   -4.5120 h1        1 FMM      0.150700
     44 H51         3.3310    0.5080   -2.7640 h1        1 FMM      0.118200
     45 H52         4.0210    0.6670   -4.4190 h1        1 FMM      0.118200
     46 H61         6.2530    1.3910   -3.3780 hx        1 FMM      0.125200
     47 H62         5.4420    1.3390   -1.7270 hx        1 FMM      0.125200
     48 HN7         4.7100    3.1040   -4.0320 hn        1 FMM      0.453800
     49 H81         5.7620    3.7290   -1.2980 hx        1 FMM      0.126700
     50 H82         6.7960    3.6570   -2.8200 hx        1 FMM      0.126700
     51 H10         4.1090    6.1310   -1.1180 ha        1 FMM      0.194000
     52 H11         4.2180    8.3790   -2.6250 ha        1 FMM      0.200000
     53 H15         3.9710    8.9630   -5.1330 ha        1 FMM      0.172000
     54 H16         4.5680   10.4450   -7.0480 ha        1 FMM      0.197000
     55 H19         8.4170   11.0610   -9.6460 h5        1 FMM      0.107100
     56 H22         9.7400    7.6010   -5.8700 hn        1 FMM      0.470800
     57 H24        11.2520    7.7540   -9.2320 ha        1 FMM      0.175000
     58 H25        11.6140    5.7340  -10.5890 ha        1 FMM      0.182000
     59 H281       10.9490    4.0110  -11.8630 h1        1 FMM      0.064700
     60 H282       12.4930    3.6580  -10.9140 h1        1 FMM      0.064700
     61 H30        10.9440    2.5340  -13.7050 ha        1 FMM      0.140000
     62 H31        11.0800    0.2320  -14.6400 ha        1 FMM      0.155000
     63 H32        11.6710   -1.6990  -13.1630 ha        1 FMM      0.166000
     64 H35        12.0210    1.0110   -9.7900 ha        1 FMM      0.152000
     65 H38         9.0590    5.3750   -6.2920 ha        1 FMM      0.147000
     66 H40         7.8610    7.0990   -5.2440 ha        1 FMM      0.132000
     67 H72         3.8770    3.0250   -2.6010 hn        1 FMM      0.453800
     68 H222       10.8390    8.4160   -6.8360 hn        1 FMM      0.470800
@<TRIPOS>BOND
     1    1    2 1   
     2    1   41 1   
     3    1   42 1   
     4    1   43 1   
     5    2    3 2   
     6    2    4 2   
     7    2    5 1   
     8    5    6 1   
     9    5   44 1   
    10    5   45 1   
    11    6    7 1   
    12    6   46 1   
    13    6   47 1   
    14    7    8 1   
    15    7   48 1   
    16    7   67 1   
    17    8    9 1   
    18    8   49 1   
    19    8   50 1   
    20    9   10 2   
    21    9   13 1   
    22   10   11 1   
    23   10   51 1   
    24   11   12 2   
    25   11   52 1   
    26   12   13 1   
    27   12   14 1   
    28   14   15 ar  
    29   14   40 ar  
    30   15   16 ar  
    31   15   53 1   
    32   16   17 ar  
    33   16   54 1   
    34   17   18 ar  
    35   17   39 ar  
    36   18   19 ar  
    37   19   20 ar  
    38   19   55 1   
    39   20   21 ar  
    40   21   22 1   
    41   21   39 ar  
    42   22   23 1   
    43   22   56 1   
    44   22   68 1   
    45   23   24 ar  
    46   23   38 ar  
    47   24   25 ar  
    48   24   57 1   
    49   25   26 ar  
    50   25   58 1   
    51   26   27 1   
    52   26   36 ar  
    53   27   28 1   
    54   28   29 1   
    55   28   59 1   
    56   28   60 1   
    57   29   30 ar  
    58   29   35 ar  
    59   30   31 ar  
    60   30   61 1   
    61   31   32 ar  
    62   31   62 1   
    63   32   33 ar  
    64   32   63 1   
    65   33   34 1   
    66   33   35 ar  
    67   35   64 1   
    68   36   37 1   
    69   36   38 ar  
    70   38   65 1   
    71   39   40 ar  
    72   40   66 1   
@<TRIPOS>SUBSTRUCTURE
     1 FMM         1 TEMP              0 ****  ****    0 ROOT
