@<TRIPOS>MOLECULE
FMM
   66    70     1     0     0
SMALL
bcc


@<TRIPOS>ATOM
      1 C1          4.6920    1.7810   -6.1070 c3        1 FMM     -0.371300
      2 S2          4.0520    0.2240   -5.9750 s6        1 FMM      1.343000
      3 O3          4.2840   -0.4830   -7.1600 o         1 FMM     -0.651800
      4 O4          4.4770   -0.3610   -4.7770 o         1 FMM     -0.651800
      5 C5          2.3970    0.6330   -5.8470 c3        1 FMM     -0.329600
      6 C6          1.5110   -0.5940   -6.0470 c3        1 FMM      0.191800
      7 N7          0.0980   -0.2760   -6.0510 n3        1 FMM     -0.816200
      8 C8         -0.7390   -1.4520   -6.2140 c3        1 FMM      0.134500
      9 C9         -2.1610   -1.2100   -5.8770 cc        1 FMM      0.247000
     10 C10        -3.3330   -1.2690   -6.6060 cd        1 FMM     -0.238300
     11 C11        -4.4070   -0.9620   -5.6930 cd        1 FMM     -0.238300
     12 C12        -3.8290   -0.7250   -4.4540 cc        1 FMM      0.303200
     13 O13        -2.4340   -0.8740   -4.5460 os        1 FMM     -0.373800
     14 C14        -4.3720   -0.3790   -3.1640 ca        1 FMM     -0.135500
     15 C15        -5.7520   -0.0570   -3.0650 ca        1 FMM     -0.088000
     16 C16        -6.3130    0.2650   -1.8570 ca        1 FMM     -0.178300
     17 C17        -5.5180    0.2880   -0.6680 ca        1 FMM      0.440600
     18 N18        -6.1050    0.6070    0.5430 nb        1 FMM     -0.715000
     19 C19        -5.2980    0.6040    1.6030 ca        1 FMM      0.673900
     20 N20        -3.9510    0.3370    1.6490 nb        1 FMM     -0.770000
     21 C21        -3.3530    0.0220    0.4770 ca        1 FMM      0.700200
     22 N22        -1.9980   -0.3180    0.4390 nh        1 FMM     -0.720300
     23 C23        -1.1380   -0.1800    1.5540 ca        1 FMM      0.107600
     24 C24        -1.4190   -0.8150    2.7800 ca        1 FMM     -0.071000
     25 C25        -0.5250   -0.7220    3.8390 ca        1 FMM     -0.184000
     26 C26         0.6710   -0.0050    3.7050 ca        1 FMM      0.127100
     27 O27         1.6220    0.0970    4.7000 os        1 FMM     -0.315900
     28 C28         1.1800   -0.2700    6.0170 c3        1 FMM      0.173700
     29 C29         2.2430    0.1370    6.9850 ca        1 FMM     -0.069300
     30 C30         3.5730    0.2970    6.5880 ca        1 FMM     -0.114000
     31 C31         4.5440    0.6500    7.5250 ca        1 FMM     -0.107000
     32 C32         4.2050    0.8420    8.8610 ca        1 FMM     -0.160000
     33 C33         2.8650    0.6800    9.2590 ca        1 FMM      0.123900
     34 F34         2.5210    0.8650   10.5570 f         1 FMM     -0.140900
     35 C35         1.8790    0.3310    8.3210 ca        1 FMM     -0.164000
     36 C36         0.9670    0.6300    2.4810 ca        1 FMM      0.006400
     37 CL3         2.4020    1.5090    2.2490 cl        1 FMM     -0.069400
     38 C38         0.0670    0.5430    1.4200 ca        1 FMM     -0.135000
     39 C39        -4.1250   -0.0240   -0.7710 ca        1 FMM     -0.290600
     40 C40        -3.5800   -0.3630   -2.0270 ca        1 FMM     -0.071000
     41 H11A        5.8030    1.7750   -5.9580 h1        1 FMM      0.119367
     42 H12         4.5190    2.2390   -7.1120 h1        1 FMM      0.119367
     43 H13         4.2890    2.5000   -5.3530 h1        1 FMM      0.119367
     44 H51         2.1730    1.0860   -4.8450 h1        1 FMM      0.116700
     45 H52         2.0990    1.4110   -6.6010 h1        1 FMM      0.116700
     46 H61         1.7550   -1.0560   -7.0490 h1        1 FMM      0.050700
     47 H62         1.7780   -1.3500   -5.2470 h1        1 FMM      0.050700
     48 HN7        -0.1570    0.2340   -5.2250 hn        1 FMM      0.368800
     49 H81        -0.6810   -1.7590   -7.2990 h1        1 FMM      0.056700
     50 H82        -0.3780   -2.3260   -5.5890 h1        1 FMM      0.056700
     51 H10        -3.4430   -1.5000   -7.6620 ha        1 FMM      0.167000
     52 H11        -5.4630   -0.9280   -5.9460 ha        1 FMM      0.164000
     53 H15        -6.3690   -0.0700   -3.9780 ha        1 FMM      0.143000
     54 H16        -7.3850    0.5100   -1.7820 ha        1 FMM      0.159000
     55 H19        -5.7520    0.8560    2.5860 h5        1 FMM      0.055100
     56 H22        -1.5530   -0.1670   -0.4430 hn        1 FMM      0.433800
     57 H24        -2.3490   -1.3900    2.9130 ha        1 FMM      0.159000
     58 H25        -0.7690   -1.2290    4.7850 ha        1 FMM      0.146000
     59 H281        0.2090    0.2430    6.2490 h1        1 FMM      0.054200
     60 H282        1.0400   -1.3860    6.0510 h1        1 FMM      0.054200
     61 H30         3.8460    0.1520    5.5310 ha        1 FMM      0.158000
     62 H31         5.5890    0.7780    7.2050 ha        1 FMM      0.141000
     63 H32         4.9650    1.1180    9.6050 ha        1 FMM      0.149000
     64 H35         0.8350    0.2150    8.6460 ha        1 FMM      0.147000
     65 H38         0.3110    1.0490    0.4720 ha        1 FMM      0.146000
     66 H40        -2.5180   -0.6350   -2.1350 ha        1 FMM      0.143000
@<TRIPOS>BOND
     1    1    2 1   
     2    1   41 1   
     3    1   42 1   
     4    1   43 1   
     5    2    3 2   
     6    2    4 2   
     7    2    5 1   
     8    5    6 1   
     9    5   44 1   
    10    5   45 1   
    11    6    7 1   
    12    6   46 1   
    13    6   47 1   
    14    7    8 1   
    15    7   48 1   
    16    8    9 1   
    17    8   49 1   
    18    8   50 1   
    19    9   10 2   
    20    9   13 1   
    21   10   11 1   
    22   10   51 1   
    23   11   12 2   
    24   11   52 1   
    25   12   13 1   
    26   12   14 1   
    27   14   15 ar  
    28   14   40 ar  
    29   15   16 ar  
    30   15   53 1   
    31   16   17 ar  
    32   16   54 1   
    33   17   18 ar  
    34   17   39 ar  
    35   18   19 ar  
    36   19   20 ar  
    37   19   55 1   
    38   20   21 ar  
    39   21   22 1   
    40   21   39 ar  
    41   22   23 1   
    42   22   56 1   
    43   23   24 ar  
    44   23   38 ar  
    45   24   25 ar  
    46   24   57 1   
    47   25   26 ar  
    48   25   58 1   
    49   26   27 1   
    50   26   36 ar  
    51   27   28 1   
    52   28   29 1   
    53   28   59 1   
    54   28   60 1   
    55   29   30 ar  
    56   29   35 ar  
    57   30   31 ar  
    58   30   61 1   
    59   31   32 ar  
    60   31   62 1   
    61   32   33 ar  
    62   32   63 1   
    63   33   34 1   
    64   33   35 ar  
    65   35   64 1   
    66   36   37 1   
    67   36   38 ar  
    68   38   65 1   
    69   39   40 ar  
    70   40   66 1   
@<TRIPOS>SUBSTRUCTURE
     1 FMM         1 TEMP              0 ****  ****    0 ROOT
