@<TRIPOS>MOLECULE
FMM
   66    59     1     0     0
SMALL
bcc


@<TRIPOS>ATOM
      1 C1         -3.4400   -0.1530   10.6210 c3        1 FMM     -0.950000
      2 S2         -4.3750   -0.1650    9.0980 s4        1 FMM      2.039800
      3 O3         -4.0620   -1.3530    8.2800 o         1 FMM     -0.539400
      4 O4         -5.7600   -0.3590    9.3560 o         1 FMM     -0.539400
      5 C5         -4.0840    1.3250    8.1980 c2        1 FMM     -0.870000
      6 C6         -4.8150    1.2750    6.8630 c3        1 FMM     -0.045000
      7 N7         -4.1270    2.1870    5.8740 n3        1 FMM     -0.294000
      8 C8         -4.3420    1.6820    4.5010 c3        1 FMM     -0.009000
      9 C9         -3.1720    2.0310    3.6640 c2        1 FMM     -0.038000
     10 C10        -1.8700    1.9650    4.0450 c1        1 FMM     -0.176000
     11 C11        -1.0660    2.4530    2.9600 c1        1 FMM     -0.176000
     12 C12        -1.9150    2.8070    1.9310 c2        1 FMM      0.000000
     13 O13        -3.2170    2.5550    2.3430 os        1 FMM     -0.108000
     14 C14        -1.5350    3.3260    0.6770 c1        1 FMM     -0.023000
     15 C15        -1.7710    4.6140    0.2240 c1        1 FMM     -0.098500
     16 C16        -1.4480    4.9600   -1.0840 c1        1 FMM     -0.098500
     17 C17        -0.8700    3.9800   -1.9600 c1        1 FMM      0.046000
     18 N18        -0.5930    4.2920   -3.2630 n2        1 FMM     -0.183000
     19 C19        -0.0840    3.3230   -4.1120 c1        1 FMM      0.010000
     20 N20         0.1500    2.0220   -3.6380 n1        1 FMM     -0.235000
     21 C21        -0.1200    1.7140   -2.3610 c1        1 FMM      0.173000
     22 N22         0.1860    0.3840   -2.1680 n2        1 FMM     -0.244000
     23 C23         1.1110   -0.2770   -3.0620 c2        1 FMM      0.057000
     24 C24         2.5040   -0.3370   -2.7370 c2        1 FMM     -0.161000
     25 C25         3.3650   -1.0530   -3.5290 c1        1 FMM     -0.112000
     26 C26         2.8650   -1.7530   -4.6990 c1        1 FMM      0.038000
     27 O27         3.7300   -2.4390   -5.5110 os        1 FMM     -0.216000
     28 C28         4.0980   -3.7420   -5.0060 c3        1 FMM      0.015000
     29 C29         5.0680   -4.4350   -6.0150 c2        1 FMM     -0.058000
     30 C30         6.4120   -4.5750   -5.7010 c2        1 FMM     -0.144000
     31 C31         7.2550   -5.1550   -6.5830 c1        1 FMM     -0.106000
     32 C32         6.7710   -5.6200   -7.8220 c1        1 FMM     -0.164000
     33 C33         5.4590   -5.4840   -8.1300 c1        1 FMM      0.089000
     34 F34         4.9740   -5.9410   -9.3850 f         1 FMM     -0.105000
     35 C35         4.5930   -4.8870   -7.2250 c2        1 FMM     -0.137000
     36 C36         1.5720   -1.7000   -5.0050 c1        1 FMM     -0.062000
     37 CL3         0.9780   -2.4710   -6.5300 cl        1 FMM      0.008000
     38 C38         0.6450   -0.9290   -4.1530 c2        1 FMM     -0.102000
     39 C39        -0.6380    2.6930   -1.4950 c2        1 FMM     -0.157000
     40 C40        -0.9610    2.3530   -0.1960 c2        1 FMM     -0.079000
     41 H11A       -3.6340    0.7110   11.1280 h1        1 FMM      0.158333
     42 H12        -2.4210   -0.2110   10.4110 h1        1 FMM      0.158333
     43 H13        -3.7150   -0.9610   11.1990 h1        1 FMM      0.158333
     44 H51        -4.4100    2.0850    8.7180 ha        1 FMM      0.157000
     45 H52        -3.1500    1.4230    8.0450 ha        1 FMM      0.157000
     46 H61        -4.8080    0.3550    6.5180 h1        1 FMM      0.090000
     47 H62        -5.7520    1.5740    6.9910 h1        1 FMM      0.090000
     48 HN7        -4.4530    2.9870    5.9430 hn        1 FMM      0.166000
     49 H81        -5.1510    2.0900    4.1230 h1        1 FMM      0.096500
     50 H82        -4.4400    0.7780    4.5220 h1        1 FMM      0.096500
     51 H10        -1.5350    1.6440    4.9150 DU        1 FMM      0.164000
     52 H11        -0.0560    2.5230    2.9510 DU        1 FMM      0.164000
     53 H15        -2.1580    5.2950    0.8380 ha        1 FMM      0.156500
     54 H16        -1.6270    5.9050   -1.4210 ha        1 FMM      0.156500
     55 H19         0.1180    3.5480   -5.0500 ha        1 FMM      0.195000
     56 H22        -0.0940   -0.0310   -1.4370 hn        1 FMM      0.226000
     57 H24         2.8300    0.1140   -1.9830 ha        1 FMM      0.137000
     58 H25         4.4090   -1.0940   -3.2810 ha        1 FMM      0.154000
     59 H281        3.2790   -4.3010   -4.8930 h1        1 FMM      0.091000
     60 H282        4.5470   -3.6410   -4.1360 h1        1 FMM      0.091000
     61 H30         6.7280   -4.2710   -4.9010 ha        1 FMM      0.135000
     62 H31         8.1700   -5.2500   -6.3680 ha        1 FMM      0.138000
     63 H32         7.3450   -6.0190   -8.4180 ha        1 FMM      0.149000
     64 H35         3.5940   -4.7850   -7.4550 ha        1 FMM      0.169000
     65 H38        -0.2300   -0.8910   -4.3590 ha        1 FMM      0.170000
     66 H40        -0.8610    1.3100    0.1370 ha        1 FMM      0.134000
@<TRIPOS>BOND
     1    1    2 1   
     2    1   41 1   
     3    1   42 1   
     4    1   43 1   
     5    2    3 1   
     6    2    4 1   
     7    5    6 1   
     8    5   44 1   
     9    5   45 1   
    10    6    7 1   
    11    6   46 1   
    12    6   47 1   
    13    7    8 1   
    14    7   48 1   
    15    8    9 1   
    16    8   49 1   
    17    8   50 1   
    18    9   10 1   
    19    9   13 1   
    20   10   11 1   
    21   11   12 1   
    22   12   13 1   
    23   12   14 1   
    24   14   40 1   
    25   15   16 1   
    26   15   53 1   
    27   16   54 1   
    28   17   18 1   
    29   17   39 1   
    30   18   19 1   
    31   19   55 1   
    32   20   21 1   
    33   21   39 1   
    34   22   23 1   
    35   22   56 1   
    36   23   24 1   
    37   23   38 1   
    38   24   25 1   
    39   24   57 1   
    40   25   58 1   
    41   26   27 1   
    42   26   36 1   
    43   27   28 1   
    44   28   29 1   
    45   28   59 1   
    46   28   60 1   
    47   29   30 1   
    48   29   35 1   
    49   30   31 1   
    50   30   61 1   
    51   31   62 1   
    52   32   33 1   
    53   32   63 1   
    54   33   35 1   
    55   35   64 1   
    56   36   38 1   
    57   38   65 1   
    58   39   40 1   
    59   40   66 1   
@<TRIPOS>SUBSTRUCTURE
     1 FMM         1 TEMP              0 ****  ****    0 ROOT
