@<TRIPOS>MOLECULE
FMN
   50    52     1     0     0
SMALL
bcc


@<TRIPOS>ATOM
      1 N1          0.0000    0.0000    0.0000 nc        1 FMN     -0.384400
      2 C2          1.3310    0.0000    0.0000 c         1 FMN      0.737900
      3 O2          1.9020    0.0010   -1.0750 o         1 FMN     -0.697500
      4 N3          2.0810    0.0000    1.1110 ns        1 FMN     -0.185500
      5 C4          1.5170   -0.0010    2.3410 c         1 FMN      0.535000
      6 O4          2.1950   -0.0020    3.3490 o         1 FMN     -0.684500
      7 C4A         0.0380   -0.0010    2.4050 cd        1 FMN      0.159800
      8 N5         -0.6110   -0.0010    3.5410 nc        1 FMN     -0.472000
      9 C5A        -1.9500   -0.0010    3.5620 ca        1 FMN      0.289600
     10 C6         -2.6310   -0.0020    4.7960 ca        1 FMN     -0.143300
     11 C7         -3.9920   -0.0010    4.8210 ca        1 FMN     -0.110300
     12 C7M        -4.7130   -0.0010    6.1450 c3        1 FMN      0.067200
     13 C8         -4.7250   -0.0080    3.6400 ca        1 FMN     -0.092300
     14 C8M        -6.2310   -0.0090    3.6950 c3        1 FMN      0.066200
     15 C9         -4.0870   -0.0030    2.4190 ca        1 FMN     -0.153000
     16 C9A        -2.6970   -0.0010    2.3620 ca        1 FMN     -0.206600
     17 N10        -2.0550   -0.0020    1.1440 na        1 FMN      0.379900
     18 C10        -0.6920   -0.0020    1.1270 cd        1 FMN     -0.098600
     19 C1'        -2.8180   -0.0030   -0.1070 c3        1 FMN     -0.088700
     20 C2'        -3.0830   -1.4440   -0.5410 c3        1 FMN      0.162100
     21 O2'        -1.8390   -2.1160   -0.7450 oh        1 FMN     -0.535800
     22 C3'        -3.8810   -1.4450   -1.8470 c3        1 FMN      0.164100
     23 O3'        -5.1260   -0.7730   -1.6440 oh        1 FMN     -0.598800
     24 C4'        -4.1470   -2.8870   -2.2820 c3        1 FMN      0.150100
     25 O4'        -2.9020   -3.5590   -2.4860 oh        1 FMN     -0.583800
     26 C5'        -4.9450   -2.8880   -3.5880 c3        1 FMN      0.208400
     27 O5'        -5.1930   -4.2340   -3.9950 os        1 FMN     -0.459200
     28 P          -6.0320   -4.1590   -5.3660 p5        1 FMN      0.743900
     29 O1P        -5.2430   -3.4390   -6.3890 o         1 FMN     -0.649500
     30 O2P        -6.3470   -5.6500   -5.8850 o         1 FMN     -0.649500
     31 O3P        -7.4150   -3.3780   -5.1070 o         1 FMN     -0.649500
     32 HN3         3.0780    0.0000    1.0290 hn        1 FMN      0.182500
     33 H6         -2.0720    0.0330    5.7230 ha        1 FMN      0.112000
     34 HM71       -5.3540   -0.8730    6.2070 hc        1 FMN      0.000033
     35 HM72       -3.9900   -0.0270    6.9500 hc        1 FMN      0.000033
     36 HM73       -5.3150    0.8960    6.2290 hc        1 FMN      0.000033
     37 HM81       -6.5750   -0.9210    4.1670 hc        1 FMN      0.004033
     38 HM82       -6.5720    0.8450    4.2680 hc        1 FMN      0.004033
     39 HM83       -6.6290    0.0490    2.6890 hc        1 FMN      0.004033
     40 H9         -4.6670   -0.0080    1.5040 ha        1 FMN      0.138000
     41 H1'1       -2.2510    0.5080   -0.8760 h1        1 FMN      0.059700
     42 H1'2       -3.7610    0.5080    0.0450 h1        1 FMN      0.059700
     43 H2'        -3.6490   -1.9550    0.2290 h1        1 FMN      0.003700
     44 HO2'       -1.8250   -2.9110   -0.2380 ho        1 FMN      0.378000
     45 H3'        -3.3160   -0.9340   -2.6160 h1        1 FMN      0.029700
     46 HO3'       -5.2500   -0.1300   -2.3220 ho        1 FMN      0.397000
     47 H4'        -4.7130   -3.3980   -1.5120 h1        1 FMN     -0.006300
     48 HO4'       -3.0180   -4.4840   -2.3460 ho        1 FMN      0.389000
     49 H5'1       -5.8880   -2.3770   -3.4350 h1        1 FMN      0.010700
     50 H5'2       -4.3790   -2.3760   -4.3570 h1        1 FMN      0.010700
@<TRIPOS>BOND
     1    1    2 1   
     2    1   18 2   
     3    2    3 2   
     4    2    4 1   
     5    4    5 1   
     6    4   32 1   
     7    5    6 2   
     8    5    7 1   
     9    7    8 2   
    10    7   18 1   
    11    8    9 1   
    12    9   10 ar  
    13    9   16 ar  
    14   10   11 ar  
    15   10   33 1   
    16   11   12 1   
    17   11   13 ar  
    18   12   34 1   
    19   12   35 1   
    20   12   36 1   
    21   13   14 1   
    22   13   15 ar  
    23   14   37 1   
    24   14   38 1   
    25   14   39 1   
    26   15   16 ar  
    27   15   40 1   
    28   16   17 1   
    29   17   18 1   
    30   17   19 1   
    31   19   20 1   
    32   19   41 1   
    33   19   42 1   
    34   20   21 1   
    35   20   22 1   
    36   20   43 1   
    37   21   44 1   
    38   22   23 1   
    39   22   24 1   
    40   22   45 1   
    41   23   46 1   
    42   24   25 1   
    43   24   26 1   
    44   24   47 1   
    45   25   48 1   
    46   26   27 1   
    47   26   49 1   
    48   26   50 1   
    49   27   28 1   
    50   28   29 1   
    51   28   30 1   
    52   28   31 1   
@<TRIPOS>SUBSTRUCTURE
     1 FMN         1 TEMP              0 ****  ****    0 ROOT
