@<TRIPOS>MOLECULE
FMP
   35    37     1     0     0
SMALL
bcc


@<TRIPOS>ATOM
      1 P           0.9160    0.4180   -0.9240 p5        1 FMP      1.333900
      2 O1P         2.1240    1.1830   -0.4610 o         1 FMP     -0.933167
      3 O2P         0.4680   -0.7480   -0.0990 o         1 FMP     -0.933167
      4 O3P         0.8110    0.2710   -2.4300 o         1 FMP     -0.933167
      5 O5'        -0.3540    1.5880   -0.7020 os        1 FMP     -0.561200
      6 C5'        -0.1050    2.7980   -1.2920 c3        1 FMP      0.226400
      7 C4'        -0.9270    2.9570   -2.5920 c3        1 FMP      0.058100
      8 O4'        -1.3060    4.3460   -2.7690 os        1 FMP     -0.430600
      9 C3'        -0.1690    2.5130   -3.8600 c3        1 FMP      0.131100
     10 O3'        -0.7440    1.3570   -4.4220 oh        1 FMP     -0.683800
     11 C2'        -0.3170    3.6900   -4.8550 c3        1 FMP      0.111100
     12 O2'        -1.3060    3.5020   -5.8500 oh        1 FMP     -0.627800
     13 C1'        -0.7230    4.8810   -3.9520 c3        1 FMP      0.103800
     14 C9          0.4480    5.7320   -3.5570 cc        1 FMP      0.260300
     15 N8          1.7050    5.2910   -3.3660 nd        1 FMP     -0.457100
     16 N7          2.4930    6.2950   -2.9280 na        1 FMP      0.017900
     17 C6          1.9920    8.7480   -2.1760 ca        1 FMP      0.640200
     18 N6          3.2930    9.0860   -1.7620 nv        1 FMP     -0.913500
     19 C5          1.7150    7.4420   -2.6750 ca        1 FMP     -0.347800
     20 C4          0.3690    7.1510   -3.1490 ca        1 FMP      0.351000
     21 N3         -0.6040    8.0860   -3.1710 nb        1 FMP     -0.648000
     22 C2         -0.2220    9.2870   -2.6760 ca        1 FMP      0.612900
     23 N1          0.9850    9.6720   -2.1700 nb        1 FMP     -0.761000
     24 H5'1        0.9920    2.9230   -1.5160 h1        1 FMP     -0.000800
     25 H5'2       -0.4320    3.6310   -0.6000 h1        1 FMP     -0.000800
     26 H4'        -1.8950    2.3960   -2.4960 h1        1 FMP      0.068700
     27 H3'         0.9180    2.3270   -3.6330 h1        1 FMP      0.115700
     28 HO3'       -0.3990    0.6100   -3.8740 ho        1 FMP      0.511000
     29 H2'         0.6320    3.8890   -5.4150 h1        1 FMP      0.061700
     30 HO2'       -1.8710    2.7730   -5.5610 ho        1 FMP      0.427000
     31 H1'        -1.5050    5.5270   -4.4320 h1        1 FMP      0.073700
     32 HN7         3.2470    6.0230   -2.3300 hn        1 FMP      0.308700
     33 HN61        3.7670    8.3220   -1.3300 hn        1 FMP      0.391300
     34 HN62        3.3540    9.9260   -1.2270 hn        1 FMP      0.391300
     35 H2         -1.0010   10.0760   -2.6650 h5        1 FMP      0.035100
@<TRIPOS>BOND
     1    1    2 1   
     2    1    3 1   
     3    1    4 1   
     4    1    5 1   
     5    5    6 1   
     6    6    7 1   
     7    6   24 1   
     8    6   25 1   
     9    7    8 1   
    10    7    9 1   
    11    7   26 1   
    12    8   13 1   
    13    9   10 1   
    14    9   11 1   
    15    9   27 1   
    16   10   28 1   
    17   11   12 1   
    18   11   13 1   
    19   11   29 1   
    20   12   30 1   
    21   13   14 1   
    22   13   31 1   
    23   14   15 2   
    24   14   20 1   
    25   15   16 1   
    26   16   19 1   
    27   16   32 1   
    28   17   18 1   
    29   17   19 ar  
    30   17   23 ar  
    31   18   33 1   
    32   18   34 1   
    33   19   20 ar  
    34   20   21 ar  
    35   21   22 ar  
    36   22   23 ar  
    37   22   35 1   
@<TRIPOS>SUBSTRUCTURE
     1 FMP         1 TEMP              0 ****  ****    0 ROOT
