@<TRIPOS>MOLECULE
FMP
   35    32     1     0     0
SMALL
bcc


@<TRIPOS>ATOM
      1 P          -0.1360   -5.2550    2.3590 p3        1 FMP      2.526000
      2 O1P         1.3490   -5.3690    2.5340 o         1 FMP     -1.263000
      3 O2P        -0.8240   -5.4460    3.7080 os        1 FMP     -1.232000
      4 O3P        -0.6140   -6.3210    1.3920 o         1 FMP     -1.263000
      5 O5'        -0.5010   -3.7930    1.7710 os        1 FMP     -0.723000
      6 C5'         0.0340   -3.4170    0.4770 c3        1 FMP      0.076000
      7 C4'        -0.7980   -2.2380   -0.1100 c3        1 FMP     -0.053000
      8 O4'        -0.4910   -1.1380    0.4780 os        1 FMP     -0.287000
      9 C3'        -0.4330   -2.0160   -1.5940 c3        1 FMP      0.020000
     10 O3'        -1.4610   -2.3910   -2.3960 oh        1 FMP     -0.411000
     11 C2'        -0.1700   -0.5030   -1.7330 c3        1 FMP      0.000000
     12 O2'        -0.9250    0.0520   -2.9060 oh        1 FMP     -0.355000
     13 C1'        -0.6050    0.0110   -0.6390 c3        1 FMP      0.068000
     14 C9          0.2490    1.2090   -0.2490 c2        1 FMP     -0.073000
     15 N8          1.5870    1.1020   -0.1350 n2        1 FMP      0.010000
     16 N7          2.0850    2.3330    0.2310 n2        1 FMP     -0.157000
     17 C6          0.9510    4.5630    0.6780 c1        1 FMP      0.119000
     18 N6          1.8490    5.6250    1.0320 n2        1 FMP     -0.311000
     19 C5          1.0200    3.2090    0.3410 c2        1 FMP     -0.172000
     20 C4         -0.1070    2.5320    0.0500 c1        1 FMP     -0.007000
     21 N3         -1.3100    3.1660    0.0850 n1        1 FMP     -0.122000
     22 C2         -1.3760    4.4930    0.4150 c1        1 FMP     -0.050000
     23 N1         -0.2330    5.1840    0.7110 n1        1 FMP     -0.235000
     24 H5'1        0.9620   -3.1390    0.5770 h1        1 FMP      0.038500
     25 H5'2       -0.0140   -4.1860   -0.1330 h1        1 FMP      0.038500
     26 H4'        -1.7550   -2.4180   -0.0190 h1        1 FMP      0.108000
     27 H3'         0.3790   -2.5230   -1.8230 h1        1 FMP      0.155000
     28 HO3'       -1.1840   -3.0110   -2.9620 ho        1 FMP      0.310000
     29 H2'         0.7790   -0.3320   -1.8290 h1        1 FMP      0.101000
     30 HO2'       -1.7580    0.3070   -2.6380 ho        1 FMP      0.226000
     31 H1'        -1.5430    0.2850   -0.7460 h1        1 FMP      0.113000
     32 HN7         2.9800    2.5520    0.3160 DU        1 FMP      0.259000
     33 HN61        2.7400    5.4540    1.1350 hn        1 FMP      0.186500
     34 HN62        1.5260    6.4630    1.1820 hn        1 FMP      0.186500
     35 H2         -2.2520    4.9530    0.4390 ha        1 FMP      0.172000
@<TRIPOS>BOND
     1    1    2 1   
     2    1    4 1   
     3    1    5 1   
     4    5    6 1   
     5    6    7 1   
     6    6   24 1   
     7    6   25 1   
     8    7    8 1   
     9    7    9 1   
    10    7   26 1   
    11    8   13 1   
    12    9   10 1   
    13    9   11 1   
    14    9   27 1   
    15   10   28 1   
    16   11   12 1   
    17   11   13 1   
    18   11   29 1   
    19   12   30 1   
    20   13   14 1   
    21   13   31 1   
    22   14   15 1   
    23   14   20 1   
    24   15   16 1   
    25   16   19 1   
    26   17   19 1   
    27   17   23 1   
    28   18   33 1   
    29   18   34 1   
    30   19   20 1   
    31   21   22 1   
    32   22   35 1   
@<TRIPOS>SUBSTRUCTURE
     1 FMP         1 TEMP              0 ****  ****    0 ROOT
