@<TRIPOS>MOLECULE
FMP
   35    37     1     0     0
SMALL
bcc


@<TRIPOS>ATOM
      1 P          -0.5840   -1.1530   -3.8150 p5        1 FMP      1.333900
      2 O1P        -1.5150   -2.0160   -3.0090 o         1 FMP     -0.933167
      3 O2P        -0.9800   -0.8180   -5.2200 o         1 FMP     -0.933167
      4 O3P         0.8880   -1.4210   -3.5650 o         1 FMP     -0.933167
      5 O5'        -0.7010    0.3720   -2.9820 os        1 FMP     -0.561200
      6 C5'        -0.4800    0.2870   -1.6340 c3        1 FMP      0.226400
      7 C4'         0.9280    0.8150   -1.2720 c3        1 FMP      0.058100
      8 O4'         0.8940    1.4580    0.0280 os        1 FMP     -0.430600
      9 C3'         2.0060   -0.2880   -1.2220 c3        1 FMP      0.131100
     10 O3'         2.9410   -0.1360   -2.2630 oh        1 FMP     -0.683800
     11 C2'         2.7220   -0.0930    0.1380 c3        1 FMP      0.111100
     12 O2'         3.9640    0.5790    0.0600 oh        1 FMP     -0.627800
     13 C1'         1.7260    0.7680    0.9540 c3        1 FMP      0.103800
     14 C9          0.8510   -0.0560    1.8520 cc        1 FMP      0.260300
     15 N8          0.4270   -1.3070    1.5960 nd        1 FMP     -0.457100
     16 N7         -0.4180   -1.7220    2.5620 na        1 FMP      0.017900
     17 C6         -1.5250   -0.5100    4.5970 ca        1 FMP      0.640200
     18 N6         -2.3410   -1.5730    5.0260 nh        1 FMP     -0.913500
     19 C5         -0.6950   -0.6630    3.4490 ca        1 FMP     -0.347800
     20 C4          0.1790    0.4400    3.0730 ca        1 FMP      0.351000
     21 N3          0.2600    1.5740    3.7990 nb        1 FMP     -0.648000
     22 C2         -0.5710    1.6010    4.8670 ca        1 FMP      0.612900
     23 N1         -1.4580    0.6600    5.3010 nb        1 FMP     -0.761000
     24 H5'1       -0.5970   -0.7720   -1.2690 h1        1 FMP     -0.000800
     25 H5'2       -1.2210    0.9440   -1.0880 h1        1 FMP     -0.000800
     26 H4'         1.2240    1.6220   -1.9940 h1        1 FMP      0.068700
     27 H3'         1.5370   -1.3100   -1.2740 h1        1 FMP      0.115700
     28 HO3'        2.4970   -0.5160   -3.0600 ho        1 FMP      0.511000
     29 H2'         2.9440   -1.0700    0.6380 h1        1 FMP      0.061700
     30 HO2'        4.0070    1.0090   -0.8050 ho        1 FMP      0.427000
     31 H1'         2.2480    1.5530    1.5640 h1        1 FMP      0.073700
     32 HN7        -1.1240   -2.3680    2.2700 hn        1 FMP      0.308700
     33 HN61       -3.0420   -1.3170    5.6870 hn        1 FMP      0.391300
     34 HN62       -2.7070   -2.1050    4.2660 hn        1 FMP      0.391300
     35 H2         -0.5420    2.5250    5.4790 h5        1 FMP      0.035100
@<TRIPOS>BOND
     1    1    2 1   
     2    1    3 1   
     3    1    4 1   
     4    1    5 1   
     5    5    6 1   
     6    6    7 1   
     7    6   24 1   
     8    6   25 1   
     9    7    8 1   
    10    7    9 1   
    11    7   26 1   
    12    8   13 1   
    13    9   10 1   
    14    9   11 1   
    15    9   27 1   
    16   10   28 1   
    17   11   12 1   
    18   11   13 1   
    19   11   29 1   
    20   12   30 1   
    21   13   14 1   
    22   13   31 1   
    23   14   15 2   
    24   14   20 1   
    25   15   16 1   
    26   16   19 1   
    27   16   32 1   
    28   17   18 1   
    29   17   19 ar  
    30   17   23 ar  
    31   18   33 1   
    32   18   34 1   
    33   19   20 ar  
    34   20   21 ar  
    35   21   22 ar  
    36   22   23 ar  
    37   22   35 1   
@<TRIPOS>SUBSTRUCTURE
     1 FMP         1 TEMP              0 ****  ****    0 ROOT
