@<TRIPOS>MOLECULE
FMP
   35    37     1     0     0
SMALL
bcc


@<TRIPOS>ATOM
      1 P           0.9630    0.3910   -0.9970 p5        1 FMP      1.333900
      2 O1P         2.1580    1.1640   -0.5140 o         1 FMP     -0.933167
      3 O2P         0.5260   -0.7960   -0.1950 o         1 FMP     -0.933167
      4 O3P         0.8670    0.2700   -2.5060 o         1 FMP     -0.933167
      5 O5'        -0.3240    1.5400   -0.7600 os        1 FMP     -0.561200
      6 C5'        -0.0880    2.7630   -1.3270 c3        1 FMP      0.226400
      7 C4'        -0.9060    2.9350   -2.6290 c3        1 FMP      0.058100
      8 O4'        -1.3030    4.3220   -2.7820 os        1 FMP     -0.430600
      9 C3'        -0.1360    2.5230   -3.9000 c3        1 FMP      0.131100
     10 O3'        -0.6940    1.3710   -4.4850 oh        1 FMP     -0.683800
     11 C2'        -0.2950    3.7160   -4.8750 c3        1 FMP      0.111100
     12 O2'        -1.2770    3.5330   -5.8770 oh        1 FMP     -0.627800
     13 C1'        -0.7200    4.8850   -3.9520 c3        1 FMP      0.103800
     14 C9          0.4380    5.7430   -3.5360 cc        1 FMP      0.260300
     15 N8          1.7000    5.3140   -3.3490 nd        1 FMP     -0.457100
     16 N7          2.4730    6.3200   -2.8880 na        1 FMP      0.017900
     17 C6          1.9380    8.7510   -2.0900 ca        1 FMP      0.640200
     18 N6          3.2340    9.0970   -1.6640 nh        1 FMP     -0.913500
     19 C5          1.6800    7.4520   -2.6160 ca        1 FMP     -0.347800
     20 C4          0.3400    7.1530   -3.1020 ca        1 FMP      0.351000
     21 N3         -0.6450    8.0760   -3.1100 nb        1 FMP     -0.648000
     22 C2         -0.2800    9.2710   -2.5900 ca        1 FMP      0.612900
     23 N1          0.9200    9.6620   -2.0710 nb        1 FMP     -0.761000
     24 H5'1       -0.4300    3.5790   -0.6220 h1        1 FMP     -0.000800
     25 H5'2        1.0080    2.9070   -1.5430 h1        1 FMP     -0.000800
     26 H4'        -1.8670    2.3600   -2.5470 h1        1 FMP      0.068700
     27 H3'         0.9520    2.3480   -3.6710 h1        1 FMP      0.115700
     28 HO3'       -0.3410    0.6180   -3.9500 ho        1 FMP      0.511000
     29 H2'         0.6540    3.9360   -5.4270 h1        1 FMP      0.061700
     30 HO2'       -1.8340    2.7920   -5.6040 ho        1 FMP      0.427000
     31 H1'        -1.5080    5.5310   -4.4250 h1        1 FMP      0.073700
     32 HN7         3.2280    6.0450   -2.2920 hn        1 FMP      0.308700
     33 HN61        3.7160    8.3300   -1.2450 hn        1 FMP      0.391300
     34 HN62        3.2810    9.9270   -1.1130 hn        1 FMP      0.391300
     35 H2         -1.0690   10.0500   -2.5670 h5        1 FMP      0.035100
@<TRIPOS>BOND
     1    1    2 1   
     2    1    3 1   
     3    1    4 1   
     4    1    5 1   
     5    5    6 1   
     6    6    7 1   
     7    6   24 1   
     8    6   25 1   
     9    7    8 1   
    10    7    9 1   
    11    7   26 1   
    12    8   13 1   
    13    9   10 1   
    14    9   11 1   
    15    9   27 1   
    16   10   28 1   
    17   11   12 1   
    18   11   13 1   
    19   11   29 1   
    20   12   30 1   
    21   13   14 1   
    22   13   31 1   
    23   14   15 2   
    24   14   20 1   
    25   15   16 1   
    26   16   19 1   
    27   16   32 1   
    28   17   18 1   
    29   17   19 ar  
    30   17   23 ar  
    31   18   33 1   
    32   18   34 1   
    33   19   20 ar  
    34   20   21 ar  
    35   21   22 ar  
    36   22   23 ar  
    37   22   35 1   
@<TRIPOS>SUBSTRUCTURE
     1 FMP         1 TEMP              0 ****  ****    0 ROOT
