@<TRIPOS>MOLECULE
FMP
   35    37     1     0     0
SMALL
bcc


@<TRIPOS>ATOM
      1 P           0.8890    0.4040   -0.9480 p5        1 FMP      1.333900
      2 O1P         2.0600    1.1810   -0.4150 o         1 FMP     -0.933167
      3 O2P         0.4170   -0.7780   -0.1600 o         1 FMP     -0.933167
      4 O3P         0.8640    0.2730   -2.4590 o         1 FMP     -0.933167
      5 O5'        -0.4080    1.5530   -0.7780 os        1 FMP     -0.561200
      6 C5'        -0.1480    2.7730   -1.3420 c3        1 FMP      0.226400
      7 C4'        -0.9050    2.9350   -2.6810 c3        1 FMP      0.058100
      8 O4'        -1.2960    4.3200   -2.8610 os        1 FMP     -0.430600
      9 C3'        -0.0760    2.5160   -3.9130 c3        1 FMP      0.131100
     10 O3'        -0.6050    1.3590   -4.5150 oh        1 FMP     -0.683800
     11 C2'        -0.1920    3.7030   -4.9020 c3        1 FMP      0.111100
     12 O2'        -1.1260    3.5110   -5.9470 oh        1 FMP     -0.627800
     13 C1'        -0.6620    4.8770   -4.0080 c3        1 FMP      0.103800
     14 C9          0.4740    5.7410   -3.5460 cc        1 FMP      0.260300
     15 N8          1.7260    5.3180   -3.2960 nd        1 FMP     -0.457100
     16 N7          2.4750    6.3290   -2.8090 na        1 FMP      0.017900
     17 C6          1.8980    8.7660   -2.0580 ca        1 FMP      0.640200
     18 N6          3.1720    9.1190   -1.5760 nh        1 FMP     -0.913500
     19 C5          1.6680    7.4620   -2.5840 ca        1 FMP     -0.347800
     20 C4          0.3520    7.1550   -3.1290 ca        1 FMP      0.351000
     21 N3         -0.6330    8.0750   -3.1900 nb        1 FMP     -0.648000
     22 C2         -0.2960    9.2760   -2.6650 ca        1 FMP      0.612900
     23 N1          0.8780    9.6750   -2.0950 nb        1 FMP     -0.761000
     24 H5'1       -0.5220    3.5930   -0.6590 h1        1 FMP     -0.000800
     25 H5'2        0.9580    2.9160   -1.5080 h1        1 FMP     -0.000800
     26 H4'        -1.8680    2.3580   -2.6400 h1        1 FMP      0.068700
     27 H3'         1.0000    2.3440   -3.6320 h1        1 FMP      0.115700
     28 HO3'       -0.2760    0.6110   -3.9590 ho        1 FMP      0.511000
     29 H2'         0.7810    3.9210   -5.4100 h1        1 FMP      0.061700
     30 HO2'       -1.6940    2.7700   -5.6960 ho        1 FMP      0.427000
     31 H1'        -1.4290    5.5170   -4.5210 h1        1 FMP      0.073700
     32 HN7         3.2020    6.0620   -2.1760 hn        1 FMP      0.308700
     33 HN61        3.6360    8.3580   -1.1290 hn        1 FMP      0.391300
     34 HN62        3.1920    9.9540   -1.0310 hn        1 FMP      0.391300
     35 H2         -1.0870   10.0530   -2.6850 h5        1 FMP      0.035100
@<TRIPOS>BOND
     1    1    2 1   
     2    1    3 1   
     3    1    4 1   
     4    1    5 1   
     5    5    6 1   
     6    6    7 1   
     7    6   24 1   
     8    6   25 1   
     9    7    8 1   
    10    7    9 1   
    11    7   26 1   
    12    8   13 1   
    13    9   10 1   
    14    9   11 1   
    15    9   27 1   
    16   10   28 1   
    17   11   12 1   
    18   11   13 1   
    19   11   29 1   
    20   12   30 1   
    21   13   14 1   
    22   13   31 1   
    23   14   15 2   
    24   14   20 1   
    25   15   16 1   
    26   16   19 1   
    27   16   32 1   
    28   17   18 1   
    29   17   19 ar  
    30   17   23 ar  
    31   18   33 1   
    32   18   34 1   
    33   19   20 ar  
    34   20   21 ar  
    35   21   22 ar  
    36   22   23 ar  
    37   22   35 1   
@<TRIPOS>SUBSTRUCTURE
     1 FMP         1 TEMP              0 ****  ****    0 ROOT
