@<TRIPOS>MOLECULE
FMQ
   26    27     1     0     0
SMALL
bcc


@<TRIPOS>ATOM
      1 F12        -0.0440   -0.0250    0.0780 f         1 FMQ     -0.136900
      2 C9          1.3090   -0.0070    0.0450 ca        1 FMQ      0.122900
      3 C8          2.0430   -0.0580    1.2440 ca        1 FMQ     -0.157000
      4 C7          3.4310   -0.0470    1.2100 ca        1 FMQ     -0.105500
      5 C10         1.9800    0.0660   -1.1880 ca        1 FMQ     -0.157000
      6 C11         3.3690    0.0860   -1.2210 ca        1 FMQ     -0.105500
      7 C6          4.1120    0.0170   -0.0250 ca        1 FMQ      0.011800
      8 N3          5.5340    0.0290   -0.0590 na        1 FMQ      0.148300
      9 C2          6.3430   -0.6810   -0.9780 cc        1 FMQ     -0.077600
     10 C13         5.8600   -1.5510   -2.0600 c3        1 FMQ     -0.036800
     11 N4          6.2790    0.7120    0.8360 nc        1 FMQ     -0.506800
     12 C5          7.5750    0.4860    0.5260 cd        1 FMQ      0.340200
     13 C1          7.6720   -0.3940   -0.6200 cd        1 FMQ     -0.264600
     14 C14         8.8980   -0.8790   -1.2710 c3        1 FMQ      0.217700
     15 O15        10.0110   -0.5420   -0.4520 oh        1 FMQ     -0.594800
     16 H1          1.5110   -0.1060    2.2060 ha        1 FMQ      0.154000
     17 H2          3.9930   -0.0810    2.1580 ha        1 FMQ      0.156000
     18 H3          1.4010    0.1160   -2.1220 ha        1 FMQ      0.154000
     19 H4          3.8810    0.1640   -2.1940 ha        1 FMQ      0.156000
     20 H5          4.8770   -2.0230   -1.8100 hc        1 FMQ      0.055700
     21 H6          5.7420   -0.9650   -3.0070 hc        1 FMQ      0.055700
     22 H7          6.6110   -2.3620   -2.2400 hc        1 FMQ      0.055700
     23 H8          8.4070    0.9170    1.0850 h4        1 FMQ      0.059100
     24 H9          9.0180   -0.4000   -2.2840 h1        1 FMQ      0.026200
     25 H10         8.8520   -1.9970   -1.4070 h1        1 FMQ      0.026200
     26 H11        10.7910   -0.8680   -0.9160 ho        1 FMQ      0.402000
@<TRIPOS>BOND
     1    1    2 1   
     2    2    3 ar  
     3    2    5 ar  
     4    3    4 ar  
     5    3   16 1   
     6    4    7 ar  
     7    4   17 1   
     8    5    6 ar  
     9    5   18 1   
    10    6    7 ar  
    11    6   19 1   
    12    7    8 1   
    13    8    9 1   
    14    8   11 1   
    15    9   10 1   
    16    9   13 2   
    17   10   20 1   
    18   10   21 1   
    19   10   22 1   
    20   11   12 2   
    21   12   13 1   
    22   12   23 1   
    23   13   14 1   
    24   14   15 1   
    25   14   24 1   
    26   14   25 1   
    27   15   26 1   
@<TRIPOS>SUBSTRUCTURE
     1 FMQ         1 TEMP              0 ****  ****    0 ROOT
