@<TRIPOS>MOLECULE
FMQ
   26    20     1     0     0
SMALL
bcc


@<TRIPOS>ATOM
      1 F12        -5.3740   -0.5470   -0.5970 f         1 FMQ     -0.102000
      2 C9         -4.0390   -0.4820   -0.5100 c1        1 FMQ      0.088000
      3 C8         -3.3380    0.4310   -1.2840 c1        1 FMQ     -0.138000
      4 C7         -1.9530    0.4550   -1.2430 c1        1 FMQ     -0.138000
      5 C10        -3.3530   -1.3700    0.3040 c1        1 FMQ     -0.157000
      6 C11        -1.9680   -1.3450    0.3450 c1        1 FMQ     -0.092000
      7 C6         -1.2670   -0.4330   -0.4290 c1        1 FMQ      0.057000
      8 N3          0.1520   -0.4590   -0.4460 n2        1 FMQ     -0.082500
      9 C2          0.9680    0.2840    0.3310 c1        1 FMQ     -0.085500
     10 C13         0.5320    1.3030    1.3610 c2        1 FMQ     -0.162000
     11 N4          0.9330   -1.2320   -1.2670 n2        1 FMQ     -0.082500
     12 C5          2.2260   -0.9590   -0.9910 c1        1 FMQ     -0.085500
     13 C1          2.2570   -0.0200   -0.0010 c1        1 FMQ     -0.192000
     14 C14         3.4990    0.6080    0.5910 c2        1 FMQ      0.060000
     15 O15         4.6410   -0.0600    0.1020 oh        1 FMQ     -0.322000
     16 H1         -3.8210    1.0570   -1.8580 ha        1 FMQ      0.150500
     17 H2         -1.4600    1.0980   -1.7880 ha        1 FMQ      0.150500
     18 H3         -3.8470   -2.0130    0.8490 ha        1 FMQ      0.155000
     19 H4         -1.4850   -1.9710    0.9190 ha        1 FMQ      0.164000
     20 H5          1.2050    2.0120    1.4250 ha        1 FMQ      0.095000
     21 H6         -0.3270    1.6910    1.0920 ha        1 FMQ      0.095000
     22 H7          0.4340    0.8650    2.2320 ha        1 FMQ      0.095000
     23 H8          3.0020   -1.3630   -1.4230 DU        1 FMQ      0.196000
     24 H9          3.5400    1.5530    0.3380 h4        1 FMQ      0.065500
     25 H10         3.4690    0.5320    1.5670 h4        1 FMQ      0.065500
     26 H11         5.3730    0.3650    0.3770 ho        1 FMQ      0.201000
@<TRIPOS>BOND
     1    1    2 1   
     2    2    5 1   
     3    3    4 1   
     4    3   16 1   
     5    4   17 1   
     6    5   18 1   
     7    6    7 1   
     8    6   19 1   
     9    8    9 1   
    10    8   11 1   
    11    9   13 1   
    12   10   20 1   
    13   10   21 1   
    14   10   22 1   
    15   11   12 1   
    16   12   13 1   
    17   14   15 1   
    18   14   24 1   
    19   14   25 1   
    20   15   26 1   
@<TRIPOS>SUBSTRUCTURE
     1 FMQ         1 TEMP              0 ****  ****    0 ROOT
