@<TRIPOS>MOLECULE
FMQ
   26    27     1     0     0
SMALL
bcc


@<TRIPOS>ATOM
      1 F12         5.0180   -0.1590   -0.0820 f         1 FMQ     -0.136900
      2 C9          3.6710   -0.0310   -0.0220 ca        1 FMQ      0.122900
      3 C8          3.0520    1.1310   -0.5170 ca        1 FMQ     -0.157000
      4 C7          1.6700    1.2580   -0.4630 ca        1 FMQ     -0.105500
      5 C10         2.8920   -1.0600    0.5370 ca        1 FMQ     -0.157000
      6 C11         1.5110   -0.9280    0.5980 ca        1 FMQ     -0.105500
      7 C6          0.8820    0.2260    0.0880 ca        1 FMQ      0.011800
      8 N3         -0.5340    0.3570    0.1440 na        1 FMQ      0.148300
      9 C2         -1.4690   -0.6660   -0.1370 cc        1 FMQ     -0.077600
     10 C13        -1.1470   -2.0450   -0.5320 c3        1 FMQ     -0.036800
     11 N4         -1.1470    1.5230    0.4440 nc        1 FMQ     -0.506800
     12 C5         -2.4770    1.2960    0.3850 cd        1 FMQ      0.340200
     13 C1         -2.7380   -0.0800    0.0190 cd        1 FMQ     -0.264600
     14 C14        -4.0480   -0.7250   -0.1500 c3        1 FMQ      0.217700
     15 O15        -5.0560    0.2790   -0.1320 oh        1 FMQ     -0.594800
     16 H1          3.6680    1.9350   -0.9450 ha        1 FMQ      0.154000
     17 H2          1.1990    2.1780   -0.8480 ha        1 FMQ      0.156000
     18 H3          3.3830   -1.9620    0.9310 ha        1 FMQ      0.154000
     19 H4          0.9150   -1.7330    1.0580 ha        1 FMQ      0.156000
     20 H5         -1.0810   -2.7030    0.3730 hc        1 FMQ      0.055700
     21 H6         -1.9610   -2.4360   -1.1930 hc        1 FMQ      0.055700
     22 H7         -0.1760   -2.1060   -1.0850 hc        1 FMQ      0.055700
     23 H8         -3.2240    2.0670    0.5850 h4        1 FMQ      0.059100
     24 H9         -4.0860   -1.2830   -1.1280 h1        1 FMQ      0.026200
     25 H10        -4.2320   -1.4580    0.6860 h1        1 FMQ      0.026200
     26 H11        -5.8950   -0.1850   -0.2360 ho        1 FMQ      0.402000
@<TRIPOS>BOND
     1    1    2 1   
     2    2    3 ar  
     3    2    5 ar  
     4    3    4 ar  
     5    3   16 1   
     6    4    7 ar  
     7    4   17 1   
     8    5    6 ar  
     9    5   18 1   
    10    6    7 ar  
    11    6   19 1   
    12    7    8 1   
    13    8    9 1   
    14    8   11 1   
    15    9   10 1   
    16    9   13 2   
    17   10   20 1   
    18   10   21 1   
    19   10   22 1   
    20   11   12 2   
    21   12   13 1   
    22   12   23 1   
    23   13   14 1   
    24   14   15 1   
    25   14   24 1   
    26   14   25 1   
    27   15   26 1   
@<TRIPOS>SUBSTRUCTURE
     1 FMQ         1 TEMP              0 ****  ****    0 ROOT
