@<TRIPOS>MOLECULE
FMQ
   26    27     1     0     0
SMALL
bcc


@<TRIPOS>ATOM
      1 F12        -0.0430   -0.0230    0.0850 f         1 FMQ     -0.136900
      2 C9          1.3100   -0.0050    0.0500 ca        1 FMQ      0.122900
      3 C8          2.0460   -0.0500    1.2480 ca        1 FMQ     -0.157000
      4 C7          3.4340   -0.0380    1.2110 ca        1 FMQ     -0.105500
      5 C10         1.9790    0.0620   -1.1850 ca        1 FMQ     -0.157000
      6 C11         3.3680    0.0810   -1.2200 ca        1 FMQ     -0.105500
      7 C6          4.1120    0.0190   -0.0250 ca        1 FMQ      0.011800
      8 N3          5.5350    0.0310   -0.0620 na        1 FMQ      0.148300
      9 C2          6.3420   -0.6830   -0.9780 cc        1 FMQ     -0.077600
     10 C13         5.8580   -1.5590   -2.0540 c3        1 FMQ     -0.036800
     11 N4          6.2810    0.7200    0.8290 nc        1 FMQ     -0.506800
     12 C5          7.5760    0.4920    0.5170 cd        1 FMQ      0.340200
     13 C1          7.6720   -0.3930   -0.6240 cd        1 FMQ     -0.264600
     14 C14         8.8970   -0.8820   -1.2740 c3        1 FMQ      0.217700
     15 O15        10.0120   -0.5380   -0.4600 oh        1 FMQ     -0.594800
     16 H1          1.5150   -0.0930    2.2110 ha        1 FMQ      0.154000
     17 H2          3.9980   -0.0670    2.1580 ha        1 FMQ      0.156000
     18 H3          1.3980    0.1060   -2.1180 ha        1 FMQ      0.154000
     19 H4          3.8780    0.1540   -2.1940 ha        1 FMQ      0.156000
     20 H5          4.8750   -2.0300   -1.8000 hc        1 FMQ      0.055700
     21 H6          5.7380   -0.9780   -3.0040 hc        1 FMQ      0.055700
     22 H7          6.6090   -2.3710   -2.2310 hc        1 FMQ      0.055700
     23 H8          8.4090    0.9270    1.0730 h4        1 FMQ      0.059100
     24 H9          9.0140   -0.4090   -2.2910 h1        1 FMQ      0.026200
     25 H10         8.8520   -2.0000   -1.4030 h1        1 FMQ      0.026200
     26 H11        10.7910   -0.8670   -0.9240 ho        1 FMQ      0.402000
@<TRIPOS>BOND
     1    1    2 1   
     2    2    3 ar  
     3    2    5 ar  
     4    3    4 ar  
     5    3   16 1   
     6    4    7 ar  
     7    4   17 1   
     8    5    6 ar  
     9    5   18 1   
    10    6    7 ar  
    11    6   19 1   
    12    7    8 1   
    13    8    9 1   
    14    8   11 1   
    15    9   10 1   
    16    9   13 2   
    17   10   20 1   
    18   10   21 1   
    19   10   22 1   
    20   11   12 2   
    21   12   13 1   
    22   12   23 1   
    23   13   14 1   
    24   14   15 1   
    25   14   24 1   
    26   14   25 1   
    27   15   26 1   
@<TRIPOS>SUBSTRUCTURE
     1 FMQ         1 TEMP              0 ****  ****    0 ROOT
