@<TRIPOS>MOLECULE
FMR
   10     7     1     0     0
SMALL
bcc


@<TRIPOS>ATOM
      1 C4         -1.1270   -0.0000   -1.0010 c1        1 FMR      0.834000
      2 C3          0.3860   -0.0000   -1.0010 c1        1 FMR     -0.130500
      3 C2          1.0600   -0.0000    0.1660 c1        1 FMR     -0.130500
      4 C1          0.3040   -0.0000    1.4760 c1        1 FMR      0.834000
      5 O4A        -1.7560   -1.0900   -1.0010 o         1 FMR     -0.844500
      6 O4B        -1.7560    1.0900   -1.0010 o         1 FMR     -0.844500
      7 O1A        -0.0110   -1.0900    2.0210 o         1 FMR     -0.844500
      8 O1B        -0.0110    1.0900    2.0210 o         1 FMR     -0.844500
      9 H3          0.8740    0.0000   -1.8460 ha        1 FMR     -0.012500
     10 H2          2.0360   -0.0000    0.1660 ha        1 FMR     -0.012500
@<TRIPOS>BOND
     1    1    5 2   
     2    1    6 2   
     3    2    3 3   
     4    2    9 1   
     5    3   10 1   
     6    4    7 2   
     7    4    8 2   
@<TRIPOS>SUBSTRUCTURE
     1 FMR         1 TEMP              0 ****  ****    0 ROOT
