@<TRIPOS>MOLECULE
FMR
   10     9     1     0     0
SMALL
bcc


@<TRIPOS>ATOM
      1 C4          1.9640   -0.0000   -0.0010 c         1 FMR      0.884800
      2 C3          0.5210   -0.4170   -0.0010 ce        1 FMR     -0.219200
      3 C2         -0.5210    0.4170   -0.0000 cf        1 FMR     -0.219200
      4 C1         -1.9640    0.0000   -0.0000 c         1 FMR      0.884800
      5 O4A         2.2930    1.2280   -0.0000 o         1 FMR     -0.885800
      6 O4B         2.8540   -0.9130   -0.0010 o         1 FMR     -0.885800
      7 O1A        -2.2930   -1.2280   -0.0000 o         1 FMR     -0.885800
      8 O1B        -2.8540    0.9130    0.0000 o         1 FMR     -0.885800
      9 H3          0.3620   -1.5080   -0.0010 ha        1 FMR      0.105000
     10 H2         -0.3620    1.5080    0.0000 ha        1 FMR      0.105000
@<TRIPOS>BOND
     1    1    2 1   
     2    1    5 1   
     3    1    6 1   
     4    2    3 2   
     5    2    9 1   
     6    3    4 1   
     7    3   10 1   
     8    4    7 1   
     9    4    8 1   
@<TRIPOS>SUBSTRUCTURE
     1 FMR         1 TEMP              0 ****  ****    0 ROOT
