@<TRIPOS>MOLECULE
FMR
   10     9     1     0     0
SMALL
bcc


@<TRIPOS>ATOM
      1 C4          0.1790   -0.2950    0.0660 c         1 FMR      0.916800
      2 C3          1.1620    0.7770    0.4430 ce        1 FMR     -0.207200
      3 C2          2.4390    0.7760    0.8100 cf        1 FMR     -0.207200
      4 C1          3.4680   -0.2970    1.0250 c         1 FMR      0.916800
      5 O4A        -0.4450   -0.9290    0.9710 o         1 FMR     -0.876800
      6 O4B        -0.1150   -0.4380   -1.1640 o         1 FMR     -0.876800
      7 O1A         4.1150   -0.7590    0.0360 o         1 FMR     -0.876800
      8 O1B         3.7720   -0.6120    2.2190 o         1 FMR     -0.876800
      9 H3          0.6580    1.7640    0.3760 ha        1 FMR      0.045000
     10 H2          2.9010    1.7630    1.0280 ha        1 FMR      0.045000
@<TRIPOS>BOND
     1    1    2 1   
     2    1    5 1   
     3    1    6 1   
     4    2    3 2   
     5    2    9 1   
     6    3    4 1   
     7    3   10 1   
     8    4    7 1   
     9    4    8 1   
@<TRIPOS>SUBSTRUCTURE
     1 FMR         1 TEMP              0 ****  ****    0 ROOT
