@<TRIPOS>MOLECULE
FMR
   10     9     1     0     0
SMALL
bcc


@<TRIPOS>ATOM
      1 C4          0.1540   -0.2950    0.1510 c         1 FMR      0.916800
      2 C3          1.1740    0.7790    0.4020 ce        1 FMR     -0.207200
      3 C2          2.4580    0.7780    0.7450 cf        1 FMR     -0.207200
      4 C1          3.4680   -0.2990    1.0220 c         1 FMR      0.916800
      5 O4A        -0.7290   -0.5080    1.0420 o         1 FMR     -0.876800
      6 O4B         0.0970   -0.8600   -0.9840 o         1 FMR     -0.876800
      7 O1A         4.3490   -0.5420    0.1370 o         1 FMR     -0.876800
      8 O1B         3.5200   -0.8380    2.1700 o         1 FMR     -0.876800
      9 H3          0.6910    1.7700    0.2640 ha        1 FMR      0.045000
     10 H2          2.9500    1.7670    0.8600 ha        1 FMR      0.045000
@<TRIPOS>BOND
     1    1    2 1   
     2    1    5 1   
     3    1    6 1   
     4    2    3 2   
     5    2    9 1   
     6    3    4 1   
     7    3   10 1   
     8    4    7 1   
     9    4    8 1   
@<TRIPOS>SUBSTRUCTURE
     1 FMR         1 TEMP              0 ****  ****    0 ROOT
