@<TRIPOS>MOLECULE
FMS
   11    10     1     0     0
SMALL
bcc


@<TRIPOS>ATOM
      1 C           0.0050    0.0100   -0.0060 c3        1 FMS      0.631700
      2 F1          1.3470   -0.1750    0.1010 f         1 FMS     -0.184300
      3 F2         -0.5140   -0.0010    1.2600 f         1 FMS     -0.184300
      4 F3         -0.5140   -1.0920   -0.6290 f         1 FMS     -0.184300
      5 S          -0.4800    1.6570   -0.9570 s6        1 FMS      1.186900
      6 N          -2.2670    1.2900   -0.7450 n4        1 FMS     -0.812500
      7 O1         -0.2530    1.5310   -2.3000 o         1 FMS     -0.458800
      8 O2         -0.2530    2.7570   -0.1760 o         1 FMS     -0.458800
      9 HN1        -2.8680    2.0090   -1.1610 hn        1 FMS      0.488467
     10 HN2        -2.5310    1.2240    0.2450 hn        1 FMS      0.488467
     11 HN3        -2.5310    0.3990   -1.1830 hn        1 FMS      0.488467
@<TRIPOS>BOND
     1    1    2 1   
     2    1    3 1   
     3    1    4 1   
     4    1    5 1   
     5    5    6 1   
     6    5    7 2   
     7    5    8 2   
     8    6    9 1   
     9    6   10 1   
    10    6   11 1   
@<TRIPOS>SUBSTRUCTURE
     1 FMS         1 TEMP              0 ****  ****    0 ROOT
