@<TRIPOS>MOLECULE
FMS
   10     9     1     0     0
SMALL
bcc


@<TRIPOS>ATOM
      1 C           0.1170   -0.0350   -0.9260 c3        1 FMS      0.558700
      2 F1          0.1740    1.1470   -1.6120 f         1 FMS     -0.239967
      3 F2          1.2600   -0.7100   -1.2710 f         1 FMS     -0.239967
      4 F3         -0.8960   -0.7480   -1.5160 f         1 FMS     -0.239967
      5 S          -0.1120    0.1640    1.0480 s6        1 FMS      1.416900
      6 N          -0.1250   -1.3610    1.4000 n3        1 FMS     -1.025700
      7 O1         -1.3510    0.7660    1.1950 o         1 FMS     -0.590800
      8 O2          1.0420    0.8080    1.4670 o         1 FMS     -0.590800
      9 HN1         0.6920   -1.8980    1.5820 hn        1 FMS      0.475800
     10 HN2        -0.9430   -1.9260    1.3960 hn        1 FMS      0.475800
@<TRIPOS>BOND
     1    1    2 1   
     2    1    3 1   
     3    1    4 1   
     4    1    5 1   
     5    5    6 1   
     6    5    7 2   
     7    5    8 2   
     8    6    9 1   
     9    6   10 1   
@<TRIPOS>SUBSTRUCTURE
     1 FMS         1 TEMP              0 ****  ****    0 ROOT
