@<TRIPOS>MOLECULE
FMS
   10     8     1     0     0
SMALL
bcc


@<TRIPOS>ATOM
      1 C           0.7870   -0.8970    0.5180 c3        1 FMS     -0.116000
      2 F1          2.1260   -0.8970    0.5180 f         1 FMS     -0.168667
      3 F2          0.3410   -0.8970    1.7810 f         1 FMS     -0.168667
      4 F3          0.3410   -1.9910   -0.1130 f         1 FMS     -0.168667
      5 S           0.1960    0.5500   -0.3180 s4        1 FMS      1.988800
      6 N          -1.4460    0.5700   -0.3290 n2        1 FMS     -0.952000
      7 O1          0.7280    0.6370   -1.6500 o         1 FMS     -0.478400
      8 O2          0.7280    1.7470    0.2730 o         1 FMS     -0.478400
      9 HN1        -1.9010    0.1950   -1.0240 hn        1 FMS      0.271000
     10 HN2        -1.9010    0.9850    0.3440 hn        1 FMS      0.271000
@<TRIPOS>BOND
     1    1    2 1   
     2    1    3 1   
     3    1    4 1   
     4    1    5 1   
     5    5    7 1   
     6    5    8 1   
     7    6    9 1   
     8    6   10 1   
@<TRIPOS>SUBSTRUCTURE
     1 FMS         1 TEMP              0 ****  ****    0 ROOT
