@<TRIPOS>MOLECULE
FMS
   11    10     1     0     0
SMALL
bcc


@<TRIPOS>ATOM
      1 C           0.0170   -0.0620   -0.1270 c3        1 FMS      0.631700
      2 F1          1.3600   -0.2560   -0.0660 f         1 FMS     -0.183300
      3 F2         -0.4830   -0.2340    1.1360 f         1 FMS     -0.183300
      4 F3         -0.5140   -1.0790   -0.8720 f         1 FMS     -0.183300
      5 S          -0.4800    1.6880   -0.8560 s6        1 FMS      1.184900
      6 N          -2.2760    1.3360   -0.6790 nz        1 FMS     -0.813500
      7 O1         -0.2740    1.7320   -2.2080 o         1 FMS     -0.460800
      8 O2         -0.2390    2.6830    0.0530 o         1 FMS     -0.460800
      9 HN1        -2.7600    1.3760   -1.5850 hn        1 FMS      0.489133
     10 HN2        -2.7360    2.0160   -0.0620 hn        1 FMS      0.489133
     11 HN3        -2.4730    0.4080   -0.2860 hn        1 FMS      0.489133
@<TRIPOS>BOND
     1    1    2 1   
     2    1    3 1   
     3    1    4 1   
     4    1    5 1   
     5    5    6 1   
     6    5    7 2   
     7    5    8 2   
     8    6    9 1   
     9    6   10 1   
    10    6   11 1   
@<TRIPOS>SUBSTRUCTURE
     1 FMS         1 TEMP              0 ****  ****    0 ROOT
