@<TRIPOS>MOLECULE
FMS
   11    10     1     0     0
SMALL
bcc


@<TRIPOS>ATOM
      1 C           0.0090   -0.0650   -0.1150 c3        1 FMS      0.631700
      2 F1          1.3510   -0.2790   -0.0740 f         1 FMS     -0.183300
      3 F2         -0.4680   -0.1890    1.1610 f         1 FMS     -0.183300
      4 F3         -0.5510   -1.0970   -0.8180 f         1 FMS     -0.183300
      5 S          -0.4750    1.6690   -0.8910 s6        1 FMS      1.185900
      6 N          -2.2720    1.3500   -0.6700 n4        1 FMS     -0.813500
      7 O1         -0.2940    1.6650   -2.2480 o         1 FMS     -0.460800
      8 O2         -0.2010    2.6880   -0.0200 o         1 FMS     -0.460800
      9 HN1        -2.4750    0.4380   -0.2450 hn        1 FMS      0.489133
     10 HN2        -2.7730    1.3710   -1.5670 hn        1 FMS      0.489133
     11 HN3        -2.7090    2.0560   -0.0650 hn        1 FMS      0.489133
@<TRIPOS>BOND
     1    1    2 1   
     2    1    3 1   
     3    1    4 1   
     4    1    5 1   
     5    5    6 1   
     6    5    7 2   
     7    5    8 2   
     8    6    9 1   
     9    6   10 1   
    10    6   11 1   
@<TRIPOS>SUBSTRUCTURE
     1 FMS         1 TEMP              0 ****  ****    0 ROOT
