@<TRIPOS>MOLECULE
FMT
    4     3     1     0     0
SMALL
bcc


@<TRIPOS>ATOM
      1 C          -0.0650   -0.3850    0.0010 c         1 FMT      0.904400
      2 O1         -1.1680    0.2340   -0.0010 o         1 FMT     -0.878300
      3 O2          1.0660    0.1810   -0.0010 o         1 FMT     -0.878300
      4 H          -0.0920   -1.5190    0.0030 h5        1 FMT     -0.148800
@<TRIPOS>BOND
     1    1    2 1   
     2    1    3 1   
     3    1    4 1   
@<TRIPOS>SUBSTRUCTURE
     1 FMT         1 TEMP              0 ****  ****    0 ROOT
