@<TRIPOS>MOLECULE
FMU
   37    38     1     0     0
SMALL
bcc


@<TRIPOS>ATOM
      1 N1          0.8580   -0.9680   -0.0880 n         1 FMU     -0.444800
      2 N3          1.9470   -0.5880    2.1030 n         1 FMU     -0.601500
      3 O2          1.8740    1.0100    0.4620 o         1 FMU     -0.599500
      4 C5          1.3350   -2.9810    1.3720 c3        1 FMU      0.098300
      5 C2          1.5470   -0.1040    0.8180 c         1 FMU      0.825500
      6 C5M         2.4270   -4.0190    1.2570 c3        1 FMU     -0.115100
      7 C6          1.0350   -2.3760    0.0020 c3        1 FMU      0.059000
      8 C1'         0.1500   -0.4180   -1.1890 c3        1 FMU      0.278500
      9 C4          1.6950   -1.9430    2.4640 c         1 FMU      0.683500
     10 O4          1.6800   -2.2670    3.6380 o         1 FMU     -0.642500
     11 C2'        -1.1420   -0.4780   -0.9760 c3        1 FMU      0.084100
     12 O2'        -1.6920   -1.6810   -1.5820 oh        1 FMU     -0.635800
     13 C3'        -1.7760    0.8370   -1.6760 c3        1 FMU      0.134100
     14 C4'        -0.8850    1.8390   -1.4760 c3        1 FMU      0.070100
     15 O3'        -1.9540    0.6110   -3.0720 oh        1 FMU     -0.694800
     16 O4'         0.4780    1.1460   -1.3420 os        1 FMU     -0.437600
     17 C5'        -1.2160    2.5910   -0.2090 c3        1 FMU      0.238400
     18 O5'        -0.4780    3.8320   -0.1790 os        1 FMU     -0.560200
     19 P          -1.2070    5.1430    0.3970 p5        1 FMU      1.336900
     20 O1P        -1.6480    4.8900    1.8170 o         1 FMU     -0.932167
     21 O2P        -2.4150    5.4650   -0.4580 o         1 FMU     -0.932167
     22 O3P        -0.2420    6.3130    0.3680 o         1 FMU     -0.932167
     23 F           0.2720   -3.7670    1.7920 f         1 FMU     -0.199300
     24 H3          2.3410   -0.0190    2.7050 hn        1 FMU      0.333500
     25 H5M1        2.1860   -4.6720    0.5580 hc        1 FMU      0.053367
     26 H5M2        3.2710   -3.5810    1.0180 hc        1 FMU      0.053367
     27 H5M3        2.5300   -4.4810    2.1150 hc        1 FMU      0.053367
     28 H6C1        1.8120   -2.5790   -0.5510 h1        1 FMU      0.075200
     29 H6C2        0.1780   -2.7710   -0.2810 h1        1 FMU      0.075200
     30 H1'         0.3810   -0.8960   -2.0160 h2        1 FMU      0.057700
     31 H2'        -1.3260   -0.4690   -0.0180 h1        1 FMU      0.062700
     32 HA         -2.5490   -1.7600   -1.3600 ho        1 FMU      0.436000
     33 H3'        -2.6360    1.0610   -1.2570 h1        1 FMU      0.121700
     34 H4'        -0.8830    2.4450   -2.2390 h1        1 FMU      0.066700
     35 HB         -2.7950    0.8070   -3.2990 ho        1 FMU      0.517000
     36 H5'1       -0.9710    2.0470    0.5670 h1        1 FMU      0.005200
     37 H5'2       -2.1810    2.7820   -0.1840 h1        1 FMU      0.005200
@<TRIPOS>BOND
     1    1    5 1   
     2    1    7 1   
     3    1    8 1   
     4    2    5 1   
     5    2    9 1   
     6    2   24 1   
     7    3    5 2   
     8    4    6 1   
     9    4    7 1   
    10    4    9 1   
    11    4   23 1   
    12    6   25 1   
    13    6   26 1   
    14    6   27 1   
    15    7   28 1   
    16    7   29 1   
    17    8   11 1   
    18    8   16 1   
    19    8   30 1   
    20    9   10 2   
    21   11   12 1   
    22   11   13 1   
    23   11   31 1   
    24   12   32 1   
    25   13   14 1   
    26   13   15 1   
    27   13   33 1   
    28   14   16 1   
    29   14   17 1   
    30   14   34 1   
    31   15   35 1   
    32   17   18 1   
    33   17   36 1   
    34   17   37 1   
    35   18   19 1   
    36   19   20 1   
    37   19   21 1   
    38   19   22 1   
@<TRIPOS>SUBSTRUCTURE
     1 FMU         1 TEMP              0 ****  ****    0 ROOT
