@<TRIPOS>MOLECULE
FMU
   37    38     1     0     0
SMALL
bcc


@<TRIPOS>ATOM
      1 N1          0.4230    2.4020   -0.0850 n         1 FMU     -0.454800
      2 N3         -1.6280    3.6620    0.0470 n         1 FMU     -0.598500
      3 O2         -0.8550    2.4950    1.8630 o         1 FMU     -0.751500
      4 C5         -0.0830    4.0480   -1.9080 c3        1 FMU      0.141300
      5 C2         -0.6670    2.8160    0.6540 c         1 FMU      0.806500
      6 C5M        -0.2990    4.0460   -3.4210 c3        1 FMU     -0.140100
      7 C6          0.4940    2.6650   -1.5060 c3        1 FMU      0.032000
      8 C1'         1.4620    1.6470    0.6070 c3        1 FMU      0.292500
      9 C4         -1.4450    4.2760   -1.1880 c         1 FMU      0.674500
     10 O4         -2.3560    4.9940   -1.6350 o         1 FMU     -0.646500
     11 C2'         0.9810    0.2690    1.1780 c3        1 FMU      0.072100
     12 O2'         0.9920    0.3030    2.5910 oh        1 FMU     -0.615800
     13 C3'         2.0300   -0.7470    0.6790 c3        1 FMU      0.115100
     14 C4'         2.7410   -0.0160   -0.4800 c3        1 FMU      0.065100
     15 O3'         2.9260   -1.1440    1.6990 oh        1 FMU     -0.599800
     16 O4'         2.5900    1.3980   -0.2190 os        1 FMU     -0.389600
     17 C5'         2.1690   -0.4400   -1.8520 c3        1 FMU      0.233400
     18 O5'         3.0200   -0.0970   -2.8610 os        1 FMU     -0.552200
     19 P           2.1820    0.3840   -4.3190 p5        1 FMU      1.334900
     20 O1P         1.3270   -0.8250   -4.5610 o         1 FMU     -0.932167
     21 O2P         3.2930    0.6810   -5.2750 o         1 FMU     -0.932167
     22 O3P         1.4110    1.5750   -3.7830 o         1 FMU     -0.932167
     23 F           0.7630    5.0840   -1.5200 f         1 FMU     -0.242300
     24 H3         -2.4600    3.8270    0.5660 hn        1 FMU      0.321500
     25 H5M1        0.5070    3.4090   -3.9040 hc        1 FMU      0.083700
     26 H5M2       -1.2880    3.5920   -3.6580 hc        1 FMU      0.083700
     27 H5M3       -0.2670    5.0890   -3.8110 hc        1 FMU      0.083700
     28 H6C1       -0.0610    1.8690   -2.0910 h1        1 FMU      0.165200
     29 H6C2        1.5690    2.5910   -1.8750 h1        1 FMU      0.165200
     30 H1'         1.8340    2.2990    1.4570 h2        1 FMU      0.054700
     31 H2'        -0.0410   -0.0030    0.8060 h1        1 FMU      0.062700
     32 HA          0.3380    0.9730    2.8430 ho        1 FMU      0.426000
     33 H3'         1.5500   -1.7010    0.3380 h1        1 FMU      0.092700
     34 H4'         3.8520   -0.1730   -0.4640 h1        1 FMU      0.084700
     35 HB          3.2470   -0.3360    2.1170 ho        1 FMU      0.399000
     36 H5'1        1.1540    0.0290   -1.9900 h1        1 FMU     -0.001300
     37 H5'2        2.0500   -1.5660   -1.7880 h1        1 FMU     -0.001300
@<TRIPOS>BOND
     1    1    5 1   
     2    1    7 1   
     3    1    8 1   
     4    2    5 1   
     5    2    9 1   
     6    2   24 1   
     7    3    5 2   
     8    4    6 1   
     9    4    7 1   
    10    4    9 1   
    11    4   23 1   
    12    6   25 1   
    13    6   26 1   
    14    6   27 1   
    15    7   28 1   
    16    7   29 1   
    17    8   11 1   
    18    8   16 1   
    19    8   30 1   
    20    9   10 2   
    21   11   12 1   
    22   11   13 1   
    23   11   31 1   
    24   12   32 1   
    25   13   14 1   
    26   13   15 1   
    27   13   33 1   
    28   14   16 1   
    29   14   17 1   
    30   14   34 1   
    31   15   35 1   
    32   17   18 1   
    33   17   36 1   
    34   17   37 1   
    35   18   19 1   
    36   19   20 1   
    37   19   21 1   
    38   19   22 1   
@<TRIPOS>SUBSTRUCTURE
     1 FMU         1 TEMP              0 ****  ****    0 ROOT
