@<TRIPOS>MOLECULE
FMV
   72    69     1     0     0
SMALL
bcc


@<TRIPOS>ATOM
      1 C1          6.0930   -0.6270   -3.9330 c3        1 FMV      0.073000
      2 O1          6.5170   -1.9370   -3.6860 oh        1 FMV     -0.327000
      3 C2          5.0970   -0.5630   -5.3150 c3        1 FMV     -0.187000
      4 C3          3.9650   -1.0110   -5.1680 c3        1 FMV      0.035000
      5 O3          3.2220   -0.8360   -6.4570 oh        1 FMV     -0.330000
      6 C4          3.0300   -0.2690   -3.8970 c3        1 FMV     -0.121000
      7 C5          3.7580   -0.2240   -2.6580 c2        1 FMV     -0.068000
      8 C6          3.1270   -0.3060   -1.4680 c1        1 FMV     -0.116000
      9 C7          1.6210   -0.4490   -1.4170 c1        1 FMV     -0.152000
     10 C8          1.0590   -1.3870   -0.6280 c1        1 FMV     -0.064000
     11 C9          2.0560   -2.4240    0.3240 c2        1 FMV     -0.129000
     12 C10         5.4370   -0.0640   -2.7560 c2        1 FMV     -0.114000
     13 C11         2.0920   -1.9260    1.5360 c3        1 FMV     -0.152000
     14 C12         0.9500   -1.6700    1.9630 c3        1 FMV     -0.146000
     15 C13         0.1730   -0.7810    0.9620 c3        1 FMV     -0.041000
     16 C14         0.1520   -1.2100   -0.1900 c3        1 FMV     -0.082000
     17 C15        -0.8510   -0.5890   -0.8840 c3        1 FMV     -0.152000
     18 C16        -1.9890   -0.4940    0.0860 c3        1 FMV     -0.159000
     19 C17        -1.3630   -0.4400    1.3100 c3        1 FMV     -0.095000
     20 C18         0.9060    0.5430    0.9160 c3        1 FMV     -0.202000
     21 C19         6.1410    0.5580   -1.7900 c1        1 FMV     -0.201000
     22 C20        -1.4790    0.9410    1.9060 c3        1 FMV     -0.030000
     23 C21        -0.9060    0.9350    3.3090 c3        1 FMV     -0.209000
     24 C22        -2.9350    1.3480    1.9570 c2        1 FMV     -0.032000
     25 O22        -3.9070    0.7610    2.7250 os        1 FMV     -0.081000
     26 C23        -3.4940    2.4390    1.3240 c1        1 FMV     -0.203000
     27 C24        -4.8040    2.5210    1.7020 c1        1 FMV     -0.179000
     28 C25        -5.0630    1.4820    2.5710 c1        1 FMV     -0.040000
     29 C26        -6.3680    1.2320    3.2930 c2        1 FMV      0.151000
     30 O26        -6.2600    0.0620    4.0670 oh        1 FMV     -0.312000
     31 C27        -6.6770    2.4060    4.1960 c3        1 FMV     -0.240500
     32 C28        -7.4810    1.0670    2.2820 c3        1 FMV     -0.240500
     33 H1          6.9480   -0.1830   -4.1000 h1        1 FMV      0.077000
     34 HO1         7.3640   -2.0280   -3.9410 ho        1 FMV      0.204000
     35 H2          5.5360   -1.0660   -6.0330 hc        1 FMV      0.098000
     36 H2A         5.0220    0.3740   -5.5960 hc        1 FMV      0.098000
     37 H3          4.0350   -1.9680   -4.9790 h1        1 FMV      0.093000
     38 HO3         3.0460   -1.6340   -6.8090 ho        1 FMV      0.200000
     39 H4          2.1440   -0.6760   -3.8110 hc        1 FMV      0.104500
     40 H4A         2.7850    0.6430   -4.1560 hc        1 FMV      0.104500
     41 H6          3.6420   -0.2730   -0.6400 ha        1 FMV      0.122000
     42 H7          1.0570    0.1370   -1.9560 ha        1 FMV      0.131000
     43 H9          1.8530   -3.3640    0.1460 ha        1 FMV      0.088000
     44 H9A         2.9880   -2.3880    0.0220 ha        1 FMV      0.088000
     45 H11         2.6230   -1.0990    1.5270 hc        1 FMV      0.079000
     46 H11A        2.5200   -2.5740    2.1350 hc        1 FMV      0.079000
     47 H12         0.4610   -2.5080    2.0970 hc        1 FMV      0.082500
     48 H12A        1.0250   -1.2000    2.8210 hc        1 FMV      0.082500
     49 H14        -0.2010   -2.1200   -0.0770 hc        1 FMV      0.098000
     50 H15        -0.5670    0.3050   -1.1650 hc        1 FMV      0.085000
     51 H15A       -1.1100   -1.1260   -1.6610 hc        1 FMV      0.085000
     52 H16        -2.5610   -1.2860    0.0260 hc        1 FMV      0.089500
     53 H16A       -2.5090    0.3220   -0.0710 hc        1 FMV      0.089500
     54 H17        -1.7350   -1.1110    1.9160 hc        1 FMV      0.103000
     55 H18         0.9760    0.9080    1.8220 hc        1 FMV      0.076667
     56 H18A        0.4130    1.1700    0.3490 hc        1 FMV      0.076667
     57 H18B        1.8040    0.4060    0.5490 hc        1 FMV      0.076667
     58 H19         7.1130    0.6390   -1.8680 DU        1 FMV      0.144333
     59 H19A        5.6810    0.9270   -1.0100 ha        1 FMV      0.122000
     60 H20        -0.9840    1.5750    1.3560 hc        1 FMV      0.106000
     61 H21        -0.6810    0.0160    3.5670 hc        1 FMV      0.080667
     62 H21A       -1.5690    1.2960    3.9340 hc        1 FMV      0.080667
     63 H21B       -0.0980    1.4880    3.3350 hc        1 FMV      0.080667
     64 H23        -3.0340    3.0460    0.7130 DU        1 FMV      0.144333
     65 H24        -5.4450    3.1970    1.4090 DU        1 FMV      0.144333
     66 HO26       -6.9660   -0.0060    4.6020 ho        1 FMV      0.199000
     67 H27        -7.5570    2.2790    4.6080 hc        1 FMV      0.088333
     68 H27A       -5.9940    2.4680    4.8970 hc        1 FMV      0.088333
     69 H27B       -6.6800    3.2320    3.6680 hc        1 FMV      0.088333
     70 H28        -7.5280    1.8650    1.7150 hc        1 FMV      0.088333
     71 H28A       -8.3330    0.9480    2.7500 hc        1 FMV      0.088333
     72 H28B       -7.3020    0.2800    1.7250 hc        1 FMV      0.088333
@<TRIPOS>BOND
     1    1    2 1   
     2    1    3 1   
     3    1   12 1   
     4    1   33 1   
     5    2   34 1   
     6    3    4 1   
     7    3   35 1   
     8    3   36 1   
     9    4    5 1   
    10    4    6 1   
    11    4   37 1   
    12    5   38 1   
    13    6    7 1   
    14    6   39 1   
    15    6   40 1   
    16    7    8 1   
    17    7   12 1   
    18    8   41 1   
    19    9   10 1   
    20    9   42 1   
    21   10   16 1   
    22   11   13 1   
    23   11   43 1   
    24   11   44 1   
    25   12   21 1   
    26   13   14 1   
    27   13   45 1   
    28   13   46 1   
    29   14   15 1   
    30   14   47 1   
    31   14   48 1   
    32   15   16 1   
    33   15   19 1   
    34   15   20 1   
    35   16   17 1   
    36   16   49 1   
    37   17   18 1   
    38   17   50 1   
    39   17   51 1   
    40   18   19 1   
    41   18   52 1   
    42   18   53 1   
    43   19   22 1   
    44   19   54 1   
    45   20   55 1   
    46   20   56 1   
    47   20   57 1   
    48   21   59 1   
    49   22   23 1   
    50   22   24 1   
    51   22   60 1   
    52   23   61 1   
    53   23   62 1   
    54   23   63 1   
    55   24   25 1   
    56   24   26 1   
    57   25   28 1   
    58   26   27 1   
    59   27   28 1   
    60   29   30 1   
    61   29   31 1   
    62   29   32 1   
    63   30   66 1   
    64   31   67 1   
    65   31   68 1   
    66   31   69 1   
    67   32   70 1   
    68   32   71 1   
    69   32   72 1   
@<TRIPOS>SUBSTRUCTURE
     1 FMV         1 TEMP              0 ****  ****    0 ROOT
