@<TRIPOS>MOLECULE
FMV
   72    75     1     0     0
SMALL
bcc


@<TRIPOS>ATOM
      1 C1          0.4160   -0.4420   -0.3370 c3        1 FMV      0.186300
      2 O1         -0.0620    0.8710   -0.0520 oh        1 FMV     -0.588800
      3 C2          1.9330   -0.5260   -0.2030 c3        1 FMV     -0.146400
      4 C3          2.3610   -0.3790    1.2530 c3        1 FMV      0.146100
      5 O3          3.7680   -0.5400    1.3880 oh        1 FMV     -0.599800
      6 C4          1.7190   -1.4630    2.1160 c3        1 FMV     -0.036200
      7 C5          0.2330   -1.4400    1.9800 ce        1 FMV     -0.072200
      8 C6         -0.5490   -1.4850    3.0790 cf        1 FMV     -0.110000
      9 C7         -1.9920   -1.4340    3.0710 cf        1 FMV     -0.147000
     10 C8         -2.7990   -1.8900    4.0440 c2        1 FMV     -0.084400
     11 C9         -2.3410   -2.6230    5.2640 c3        1 FMV     -0.044200
     12 C10        -0.2790   -1.3870    0.6110 ce        1 FMV     -0.070200
     13 C11        -3.0020   -2.1500    6.5480 c3        1 FMV     -0.073400
     14 C12        -4.5030   -1.9500    6.4400 c3        1 FMV     -0.067400
     15 C13        -4.8450   -1.0770    5.2410 c3        1 FMV     -0.040000
     16 C14        -4.2810   -1.8000    3.9840 c3        1 FMV     -0.034500
     17 C15        -4.9820   -1.1140    2.8210 c3        1 FMV     -0.074400
     18 C16        -6.3710   -0.7690    3.3620 c3        1 FMV     -0.078400
     19 C17        -6.3460   -0.9890    4.8880 c3        1 FMV     -0.054700
     20 C18        -4.2430    0.3080    5.3960 c3        1 FMV     -0.084100
     21 C19        -1.2960   -2.1440    0.1820 c2        1 FMV     -0.192000
     22 C20        -7.1560    0.0820    5.6160 c3        1 FMV     -0.085000
     23 C21        -7.2110   -0.1550    7.1150 c3        1 FMV     -0.090100
     24 C22        -8.5340    0.1430    5.0710 cc        1 FMV      0.254000
     25 O22        -9.3390   -0.9910    5.2460 os        1 FMV     -0.363800
     26 C23        -9.2420    1.1310    4.4110 cd        1 FMV     -0.267300
     27 C24       -10.5610    0.6000    4.1540 cd        1 FMV     -0.222300
     28 C25       -10.5810   -0.6790    4.6710 cc        1 FMV      0.239000
     29 C26       -11.6150   -1.7510    4.7390 c3        1 FMV      0.129500
     30 O26       -12.7770   -1.2160    4.0950 oh        1 FMV     -0.592800
     31 C27       -11.1380   -2.9980    3.9980 c3        1 FMV     -0.122100
     32 C28       -11.9360   -2.0880    6.1940 c3        1 FMV     -0.122100
     33 H1          0.1350   -0.6970   -1.4010 h1        1 FMV      0.034700
     34 HO1         0.4330    1.4720   -0.6210 ho        1 FMV      0.396000
     35 H2          2.4110    0.2780   -0.8200 hc        1 FMV      0.052700
     36 H2A         2.2850   -1.5150   -0.5960 hc        1 FMV      0.052700
     37 H3          2.0580    0.6390    1.6290 h1        1 FMV      0.048700
     38 HO3         4.1780    0.1510    0.8560 ho        1 FMV      0.398000
     39 H4          2.1090   -2.4660    1.7950 hc        1 FMV      0.062200
     40 H4A         2.0320   -1.3080    3.1820 hc        1 FMV      0.062200
     41 H6         -0.0660   -1.5310    4.0720 ha        1 FMV      0.124000
     42 H7         -2.4380   -0.9600    2.1750 ha        1 FMV      0.137000
     43 H9         -2.5750   -3.7130    5.1120 hc        1 FMV      0.047200
     44 H9A        -1.2290   -2.5420    5.3870 hc        1 FMV      0.047200
     45 H11        -2.7940   -2.9020    7.3540 hc        1 FMV      0.040200
     46 H11A       -2.5280   -1.1840    6.8690 hc        1 FMV      0.040200
     47 H12        -4.8810   -1.4800    7.3840 hc        1 FMV      0.042200
     48 H12A       -5.0110   -2.9440    6.3340 hc        1 FMV      0.042200
     49 H14        -4.6620   -2.8660    4.0120 hc        1 FMV      0.053700
     50 H15        -4.4400   -0.1840    2.5150 hc        1 FMV      0.046700
     51 H15A       -5.0440   -1.7840    1.9300 hc        1 FMV      0.046700
     52 H16        -6.6290    0.2920    3.1220 hc        1 FMV      0.046700
     53 H16A       -7.1520   -1.4190    2.8990 hc        1 FMV      0.046700
     54 H17        -6.8180   -1.9840    5.1200 hc        1 FMV      0.057700
     55 H18        -4.5910    0.9780    4.5720 hc        1 FMV      0.038367
     56 H18A       -3.1270    0.2580    5.3530 hc        1 FMV      0.038367
     57 H18B       -4.5410    0.7550    6.3750 hc        1 FMV      0.038367
     58 H19        -1.6730   -2.0920   -0.8480 ha        1 FMV      0.120500
     59 H19A       -1.8070   -2.8620    0.8370 ha        1 FMV      0.120500
     60 H20        -6.6870    1.0910    5.4250 hc        1 FMV      0.067700
     61 H21        -6.2200    0.0680    7.5790 hc        1 FMV      0.041700
     62 H21A       -7.4860   -1.2140    7.3340 hc        1 FMV      0.041700
     63 H21B       -7.9760    0.5120    7.5820 hc        1 FMV      0.041700
     64 H23        -8.8900    2.1190    4.1320 ha        1 FMV      0.160000
     65 H24       -11.3790    1.1100    3.6510 ha        1 FMV      0.171000
     66 HO26      -13.4480   -1.9070    4.1400 ho        1 FMV      0.405000
     67 H27       -11.8880   -3.8170    4.1060 hc        1 FMV      0.049367
     68 H27A      -11.0070   -2.7700    2.9140 hc        1 FMV      0.049367
     69 H27B      -10.1620   -3.3350    4.4210 hc        1 FMV      0.049367
     70 H28       -11.0000   -2.3800    6.7260 hc        1 FMV      0.049367
     71 H28A      -12.6640   -2.9330    6.2390 hc        1 FMV      0.049367
     72 H28B      -12.3830   -1.2000    6.7010 hc        1 FMV      0.049367
@<TRIPOS>BOND
     1    1    2 1   
     2    1    3 1   
     3    1   12 1   
     4    1   33 1   
     5    2   34 1   
     6    3    4 1   
     7    3   35 1   
     8    3   36 1   
     9    4    5 1   
    10    4    6 1   
    11    4   37 1   
    12    5   38 1   
    13    6    7 1   
    14    6   39 1   
    15    6   40 1   
    16    7    8 2   
    17    7   12 1   
    18    8    9 1   
    19    8   41 1   
    20    9   10 2   
    21    9   42 1   
    22   10   11 1   
    23   10   16 1   
    24   11   13 1   
    25   11   43 1   
    26   11   44 1   
    27   12   21 2   
    28   13   14 1   
    29   13   45 1   
    30   13   46 1   
    31   14   15 1   
    32   14   47 1   
    33   14   48 1   
    34   15   16 1   
    35   15   19 1   
    36   15   20 1   
    37   16   17 1   
    38   16   49 1   
    39   17   18 1   
    40   17   50 1   
    41   17   51 1   
    42   18   19 1   
    43   18   52 1   
    44   18   53 1   
    45   19   22 1   
    46   19   54 1   
    47   20   55 1   
    48   20   56 1   
    49   20   57 1   
    50   21   58 1   
    51   21   59 1   
    52   22   23 1   
    53   22   24 1   
    54   22   60 1   
    55   23   61 1   
    56   23   62 1   
    57   23   63 1   
    58   24   25 1   
    59   24   26 2   
    60   25   28 1   
    61   26   27 1   
    62   26   64 1   
    63   27   28 2   
    64   27   65 1   
    65   28   29 1   
    66   29   30 1   
    67   29   31 1   
    68   29   32 1   
    69   30   66 1   
    70   31   67 1   
    71   31   68 1   
    72   31   69 1   
    73   32   70 1   
    74   32   71 1   
    75   32   72 1   
@<TRIPOS>SUBSTRUCTURE
     1 FMV         1 TEMP              0 ****  ****    0 ROOT
