@<TRIPOS>MOLECULE
FMV
   72    75     1     0     0
SMALL
bcc


@<TRIPOS>ATOM
      1 C1         -5.9650    2.3620    0.4470 c3        1 FMV      0.183300
      2 O1         -5.5710    2.6990   -0.8810 oh        1 FMV     -0.596800
      3 C2         -7.3860    1.8170    0.3610 c3        1 FMV     -0.069400
      4 C3         -7.3970    0.4400   -0.2910 c3        1 FMV      0.145100
      5 O3         -8.7480   -0.0050   -0.2730 oh        1 FMV     -0.599800
      6 C4         -6.5050   -0.5370    0.4730 c3        1 FMV     -0.075200
      7 C5         -5.1160   -0.0100    0.6170 ce        1 FMV     -0.066200
      8 C6         -4.0550   -0.7970    0.3410 cf        1 FMV     -0.118000
      9 C7         -2.6740   -0.3820    0.4180 cf        1 FMV     -0.150000
     10 C8         -1.6120   -1.1990    0.5300 c2        1 FMV     -0.078400
     11 C9         -1.6850   -2.6830    0.6900 c3        1 FMV     -0.044200
     12 C10        -5.0200    1.3730    1.0820 ce        1 FMV     -0.121200
     13 C11        -0.7000   -3.4440   -0.1830 c3        1 FMV     -0.073400
     14 C12         0.7030   -2.8620   -0.1910 c3        1 FMV     -0.067400
     15 C13         0.6670   -1.3730   -0.4990 c3        1 FMV     -0.040000
     16 C14        -0.2110   -0.7090    0.6000 c3        1 FMV     -0.037500
     17 C15         0.1130    0.7740    0.4820 c3        1 FMV     -0.073400
     18 C16         1.5880    0.8110    0.0800 c3        1 FMV     -0.079400
     19 C17         2.0030   -0.6220   -0.3100 c3        1 FMV     -0.054700
     20 C18         0.0960   -1.1250   -1.8840 c3        1 FMV     -0.085100
     21 C19        -4.1700    1.7610    2.0400 c2        1 FMV     -0.193000
     22 C20         2.9570   -0.6180   -1.5030 c3        1 FMV     -0.085000
     23 C21         3.4430   -2.0110   -1.8590 c3        1 FMV     -0.090100
     24 C22         4.1200    0.2600   -1.2260 cc        1 FMV      0.254000
     25 O22         4.9650   -0.1140   -0.1720 os        1 FMV     -0.354800
     26 C23         4.5910    1.4160   -1.8220 cd        1 FMV     -0.264300
     27 C24         5.7890    1.7950   -1.1100 cd        1 FMV     -0.244300
     28 C25         5.9820    0.8480   -0.1230 cc        1 FMV      0.204000
     29 C26         7.0180    0.6690    0.9370 c3        1 FMV      0.129500
     30 O26         8.0610    1.6250    0.7520 oh        1 FMV     -0.588800
     31 C27         6.4260    0.9610    2.3140 c3        1 FMV     -0.101600
     32 C28         7.5870   -0.7470    0.8850 c3        1 FMV     -0.101600
     33 H1         -5.9760    3.3150    1.0550 h1        1 FMV      0.038700
     34 HO1        -4.6140    2.8160   -0.8720 ho        1 FMV      0.403000
     35 H2         -7.8200    1.7530    1.3910 hc        1 FMV      0.067200
     36 H2A        -8.0180    2.5150   -0.2460 hc        1 FMV      0.067200
     37 H3         -7.0400    0.5290   -1.3560 h1        1 FMV      0.053700
     38 HO3        -8.7640   -0.8550   -0.7280 ho        1 FMV      0.399000
     39 H4         -6.9410   -0.7060    1.4950 hc        1 FMV      0.054200
     40 H4A        -6.5030   -1.5260   -0.0570 hc        1 FMV      0.054200
     41 H6         -4.2370   -1.8320    0.0000 ha        1 FMV      0.124000
     42 H7         -2.5090    0.7110    0.3710 ha        1 FMV      0.128000
     43 H9         -1.4730   -2.9170    1.7700 hc        1 FMV      0.048200
     44 H9A        -2.7180   -3.0620    0.4700 hc        1 FMV      0.048200
     45 H11        -0.6500   -4.5050    0.1790 hc        1 FMV      0.041200
     46 H11A       -1.0890   -3.4720   -1.2350 hc        1 FMV      0.041200
     47 H12         1.1870   -3.0250    0.8070 hc        1 FMV      0.043200
     48 H12A        1.3210   -3.4030   -0.9540 hc        1 FMV      0.043200
     49 H14         0.1910   -1.0510    1.6020 hc        1 FMV      0.056700
     50 H15        -0.5180    1.2630   -0.3010 hc        1 FMV      0.044200
     51 H15A       -0.0630    1.3070    1.4470 hc        1 FMV      0.044200
     52 H16         1.7400    1.5120   -0.7780 hc        1 FMV      0.047700
     53 H16A        2.2230    1.1710    0.9270 hc        1 FMV      0.047700
     54 H17         2.5480   -1.0920    0.5560 hc        1 FMV      0.058700
     55 H18        -0.9830   -1.4100   -1.9210 hc        1 FMV      0.038367
     56 H18A        0.1780   -0.0430   -2.1500 hc        1 FMV      0.038367
     57 H18B        0.6490   -1.7260   -2.6460 hc        1 FMV      0.038367
     58 H19        -3.4860    1.0590    2.5370 ha        1 FMV      0.121000
     59 H19A       -4.1160    2.8000    2.3920 ha        1 FMV      0.121000
     60 H20         2.4260   -0.1780   -2.3970 hc        1 FMV      0.067700
     61 H21         3.7990   -2.5460   -0.9470 hc        1 FMV      0.042033
     62 H21A        2.6190   -2.6000   -2.3290 hc        1 FMV      0.042033
     63 H21B        4.2900   -1.9490   -2.5860 hc        1 FMV      0.042033
     64 H23         4.1550    1.9500   -2.6610 ha        1 FMV      0.160000
     65 H24         6.4070    2.6660   -1.3120 ha        1 FMV      0.164000
     66 HO26        8.4620    1.4440   -0.1060 ho        1 FMV      0.404000
     67 H27         5.5510    0.2910    2.4850 hc        1 FMV      0.050700
     68 H27A        7.1970    0.7830    3.1000 hc        1 FMV      0.050700
     69 H27B        6.0960    2.0260    2.3700 hc        1 FMV      0.050700
     70 H28         8.0450   -0.9450   -0.1130 hc        1 FMV      0.050700
     71 H28A        8.3700   -0.8650    1.6710 hc        1 FMV      0.050700
     72 H28B        6.7700   -1.4860    1.0590 hc        1 FMV      0.050700
@<TRIPOS>BOND
     1    1    2 1   
     2    1    3 1   
     3    1   12 1   
     4    1   33 1   
     5    2   34 1   
     6    3    4 1   
     7    3   35 1   
     8    3   36 1   
     9    4    5 1   
    10    4    6 1   
    11    4   37 1   
    12    5   38 1   
    13    6    7 1   
    14    6   39 1   
    15    6   40 1   
    16    7    8 2   
    17    7   12 1   
    18    8    9 1   
    19    8   41 1   
    20    9   10 2   
    21    9   42 1   
    22   10   11 1   
    23   10   16 1   
    24   11   13 1   
    25   11   43 1   
    26   11   44 1   
    27   12   21 2   
    28   13   14 1   
    29   13   45 1   
    30   13   46 1   
    31   14   15 1   
    32   14   47 1   
    33   14   48 1   
    34   15   16 1   
    35   15   19 1   
    36   15   20 1   
    37   16   17 1   
    38   16   49 1   
    39   17   18 1   
    40   17   50 1   
    41   17   51 1   
    42   18   19 1   
    43   18   52 1   
    44   18   53 1   
    45   19   22 1   
    46   19   54 1   
    47   20   55 1   
    48   20   56 1   
    49   20   57 1   
    50   21   58 1   
    51   21   59 1   
    52   22   23 1   
    53   22   24 1   
    54   22   60 1   
    55   23   61 1   
    56   23   62 1   
    57   23   63 1   
    58   24   25 1   
    59   24   26 2   
    60   25   28 1   
    61   26   27 1   
    62   26   64 1   
    63   27   28 2   
    64   27   65 1   
    65   28   29 1   
    66   29   30 1   
    67   29   31 1   
    68   29   32 1   
    69   30   66 1   
    70   31   67 1   
    71   31   68 1   
    72   31   69 1   
    73   32   70 1   
    74   32   71 1   
    75   32   72 1   
@<TRIPOS>SUBSTRUCTURE
     1 FMV         1 TEMP              0 ****  ****    0 ROOT
