@<TRIPOS>MOLECULE
FMV
   72    75     1     0     0
SMALL
bcc


@<TRIPOS>ATOM
      1 C1          0.4080   -0.4720   -0.3510 c3        1 FMV      0.186300
      2 O1         -0.0730    0.8420   -0.0800 oh        1 FMV     -0.588800
      3 C2          1.9250   -0.5520   -0.2180 c3        1 FMV     -0.146400
      4 C3          2.3540   -0.3890    1.2360 c3        1 FMV      0.146100
      5 O3          3.7610   -0.5450    1.3710 oh        1 FMV     -0.599800
      6 C4          1.7150   -1.4640    2.1110 c3        1 FMV     -0.036200
      7 C5          0.2290   -1.4460    1.9760 ce        1 FMV     -0.072200
      8 C6         -0.5510   -1.4820    3.0760 cf        1 FMV     -0.110000
      9 C7         -1.9950   -1.4340    3.0700 cf        1 FMV     -0.147000
     10 C8         -2.8000   -1.8820    4.0480 c2        1 FMV     -0.084400
     11 C9         -2.3390   -2.6020    5.2740 c3        1 FMV     -0.044200
     12 C10        -0.2840   -1.4090    0.6080 ce        1 FMV     -0.070200
     13 C11        -3.0000   -2.1180    6.5540 c3        1 FMV     -0.073400
     14 C12        -4.5020   -1.9220    6.4450 c3        1 FMV     -0.067400
     15 C13        -4.8470   -1.0630    5.2380 c3        1 FMV     -0.040000
     16 C14        -4.2820   -1.7960    3.9880 c3        1 FMV     -0.034500
     17 C15        -4.9860   -1.1230    2.8190 c3        1 FMV     -0.074400
     18 C16        -6.3750   -0.7760    3.3580 c3        1 FMV     -0.078400
     19 C17        -6.3490   -0.9820    4.8860 c3        1 FMV     -0.054700
     20 C18        -4.2480    0.3260    5.3800 c3        1 FMV     -0.084100
     21 C19        -1.3000   -2.1720    0.1870 c2        1 FMV     -0.192000
     22 C20        -7.1600    0.0940    5.6050 c3        1 FMV     -0.085000
     23 C21        -7.2130   -0.1280    7.1060 c3        1 FMV     -0.090100
     24 C22        -8.5390    0.1470    5.0600 cc        1 FMV      0.254000
     25 O22        -9.3410   -0.9880    5.2460 os        1 FMV     -0.363800
     26 C23        -9.2510    1.1260    4.3930 cd        1 FMV     -0.267300
     27 C24       -10.5690    0.5890    4.1410 cd        1 FMV     -0.222300
     28 C25       -10.5840   -0.6850    4.6700 cc        1 FMV      0.239000
     29 C26       -11.6140   -1.7590    4.7480 c3        1 FMV      0.129500
     30 O26       -12.7790   -1.2330    4.1010 oh        1 FMV     -0.592800
     31 C27       -11.1350   -3.0120    4.0170 c3        1 FMV     -0.122100
     32 C28       -11.9330   -2.0850    6.2060 c3        1 FMV     -0.122100
     33 H1          0.1260   -0.7400   -1.4130 h1        1 FMV      0.034700
     34 HO1         0.4210    1.4390   -0.6550 ho        1 FMV      0.396000
     35 H2          2.2790   -1.5440   -0.6010 hc        1 FMV      0.052700
     36 H2A         2.4010    0.2470   -0.8430 hc        1 FMV      0.052700
     37 H3          2.0500    0.6330    1.6010 h1        1 FMV      0.048700
     38 HO3         4.1690    0.1420    0.8320 ho        1 FMV      0.398000
     39 H4          2.1070   -2.4700    1.8000 hc        1 FMV      0.062200
     40 H4A         2.0290   -1.2980    3.1750 hc        1 FMV      0.062200
     41 H6         -0.0680   -1.5160    4.0700 ha        1 FMV      0.124000
     42 H7         -2.4430   -0.9690    2.1700 ha        1 FMV      0.138000
     43 H9         -2.5710   -3.6940    5.1330 hc        1 FMV      0.047200
     44 H9A        -1.2270   -2.5170    5.3950 hc        1 FMV      0.047200
     45 H11        -2.5280   -1.1480    6.8650 hc        1 FMV      0.040200
     46 H11A       -2.7890   -2.8620    7.3670 hc        1 FMV      0.040200
     47 H12        -5.0080   -2.9190    6.3490 hc        1 FMV      0.042200
     48 H12A       -4.8800   -1.4450    7.3860 hc        1 FMV      0.042200
     49 H14        -4.6610   -2.8630    4.0260 hc        1 FMV      0.053700
     50 H15        -5.0470   -1.8020    1.9350 hc        1 FMV      0.046700
     51 H15A       -4.4460   -0.1950    2.5030 hc        1 FMV      0.046700
     52 H16        -7.1550   -1.4330    2.9010 hc        1 FMV      0.046700
     53 H16A       -6.6360    0.2820    3.1080 hc        1 FMV      0.046700
     54 H17        -6.8170   -1.9760    5.1280 hc        1 FMV      0.057700
     55 H18        -3.1320    0.2780    5.3360 hc        1 FMV      0.038367
     56 H18A       -4.5980    0.9870    4.5500 hc        1 FMV      0.038367
     57 H18B       -4.5470    0.7820    6.3540 hc        1 FMV      0.038367
     58 H19        -1.6790   -2.1320   -0.8430 ha        1 FMV      0.120500
     59 H19A       -1.8090   -2.8850    0.8500 ha        1 FMV      0.120500
     60 H20        -6.6940    1.1020    5.4030 hc        1 FMV      0.067700
     61 H21        -7.4850   -1.1860    7.3350 hc        1 FMV      0.041700
     62 H21A       -7.9790    0.5410    7.5670 hc        1 FMV      0.041700
     63 H21B       -6.2230    0.1020    7.5660 hc        1 FMV      0.041700
     64 H23        -8.9020    2.1140    4.1040 ha        1 FMV      0.160000
     65 H24       -11.3880    1.0920    3.6340 ha        1 FMV      0.171000
     66 HO26      -13.4480   -1.9260    4.1530 ho        1 FMV      0.405000
     67 H27       -10.1580   -3.3420    4.4420 hc        1 FMV      0.049367
     68 H27A      -11.0050   -2.7920    2.9310 hc        1 FMV      0.049367
     69 H27B      -11.8820   -3.8320    4.1330 hc        1 FMV      0.049367
     70 H28       -10.9950   -2.3690    6.7390 hc        1 FMV      0.049367
     71 H28A      -12.3820   -1.1940    6.7060 hc        1 FMV      0.049367
     72 H28B      -12.6580   -2.9320    6.2600 hc        1 FMV      0.049367
@<TRIPOS>BOND
     1    1    2 1   
     2    1    3 1   
     3    1   12 1   
     4    1   33 1   
     5    2   34 1   
     6    3    4 1   
     7    3   35 1   
     8    3   36 1   
     9    4    5 1   
    10    4    6 1   
    11    4   37 1   
    12    5   38 1   
    13    6    7 1   
    14    6   39 1   
    15    6   40 1   
    16    7    8 2   
    17    7   12 1   
    18    8    9 1   
    19    8   41 1   
    20    9   10 2   
    21    9   42 1   
    22   10   11 1   
    23   10   16 1   
    24   11   13 1   
    25   11   43 1   
    26   11   44 1   
    27   12   21 2   
    28   13   14 1   
    29   13   45 1   
    30   13   46 1   
    31   14   15 1   
    32   14   47 1   
    33   14   48 1   
    34   15   16 1   
    35   15   19 1   
    36   15   20 1   
    37   16   17 1   
    38   16   49 1   
    39   17   18 1   
    40   17   50 1   
    41   17   51 1   
    42   18   19 1   
    43   18   52 1   
    44   18   53 1   
    45   19   22 1   
    46   19   54 1   
    47   20   55 1   
    48   20   56 1   
    49   20   57 1   
    50   21   58 1   
    51   21   59 1   
    52   22   23 1   
    53   22   24 1   
    54   22   60 1   
    55   23   61 1   
    56   23   62 1   
    57   23   63 1   
    58   24   25 1   
    59   24   26 2   
    60   25   28 1   
    61   26   27 1   
    62   26   64 1   
    63   27   28 2   
    64   27   65 1   
    65   28   29 1   
    66   29   30 1   
    67   29   31 1   
    68   29   32 1   
    69   30   66 1   
    70   31   67 1   
    71   31   68 1   
    72   31   69 1   
    73   32   70 1   
    74   32   71 1   
    75   32   72 1   
@<TRIPOS>SUBSTRUCTURE
     1 FMV         1 TEMP              0 ****  ****    0 ROOT
