@<TRIPOS>MOLECULE
FMX
   46    49     1     0     0
SMALL
bcc


@<TRIPOS>ATOM
      1 O6          1.6380   -0.0500    1.4630 o         1 FMX     -0.545500
      2 C6          0.4230   -0.1570    1.6100 c         1 FMX      0.710500
      3 N2         -0.3790    0.5270    2.5670 n         1 FMX     -0.407800
      4 N1          0.0860    1.4440    3.4700 nh        1 FMX     -0.369600
      5 C21         0.5290    0.9150    4.7460 ca        1 FMX      0.019600
      6 C22        -0.1410    1.2360    5.9420 ca        1 FMX     -0.118500
      7 C23         0.3830    0.8220    7.1650 ca        1 FMX     -0.126000
      8 C24         1.5590    0.0750    7.2120 ca        1 FMX     -0.122000
      9 C25         2.2190   -0.2560    6.0290 ca        1 FMX     -0.126000
     10 C26         1.7140    0.1570    4.7980 ca        1 FMX     -0.118500
     11 C3         -1.7150    0.0330    2.4950 c         1 FMX      0.807600
     12 O4         -1.8350   -0.9100    1.4910 os        1 FMX     -0.386900
     13 O3         -2.7110    0.3360    3.1450 o         1 FMX     -0.573500
     14 C5         -0.5390   -1.0820    0.8200 c3        1 FMX      0.143100
     15 C7         -0.1310   -2.5360    0.9750 c3        1 FMX     -0.096100
     16 C8         -0.6580   -0.6710   -0.6150 ca        1 FMX     -0.147300
     17 C9         -1.9150   -0.5640   -1.2220 ca        1 FMX     -0.075000
     18 C10        -2.0230   -0.2200   -2.5650 ca        1 FMX     -0.170000
     19 C11        -0.8520    0.0220   -3.3040 ca        1 FMX      0.132100
     20 C12         0.4100   -0.0810   -2.7080 ca        1 FMX     -0.170000
     21 C13         0.5000   -0.4280   -1.3630 ca        1 FMX     -0.075000
     22 O14        -1.0600    0.4290   -4.6140 os        1 FMX     -0.247200
     23 C15         0.0010    0.2630   -5.5040 ca        1 FMX      0.093100
     24 C16         0.6910   -0.9500   -5.6270 ca        1 FMX     -0.146500
     25 C17         1.6540   -1.0790   -6.6260 ca        1 FMX     -0.112000
     26 C18         1.9210   -0.0150   -7.4890 ca        1 FMX     -0.140000
     27 C19         1.2250    1.1880   -7.3570 ca        1 FMX     -0.112000
     28 C20         0.2630    1.3410   -6.3610 ca        1 FMX     -0.146500
     29 HN11       -0.6740    2.1020    3.6450 hn        1 FMX      0.387800
     30 H221       -1.0760    1.8170    5.9220 ha        1 FMX      0.149000
     31 H231       -0.1420    1.0830    8.0960 ha        1 FMX      0.137000
     32 H241        1.9650   -0.2520    8.1800 ha        1 FMX      0.136000
     33 H251        3.1480   -0.8440    6.0640 ha        1 FMX      0.137000
     34 H261        2.2480   -0.0970    3.8670 ha        1 FMX      0.149000
     35 H71        -0.1050   -2.8200    2.0530 hc        1 FMX      0.065367
     36 H72        -0.8690   -3.1890    0.4490 hc        1 FMX      0.065367
     37 H73         0.8810   -2.6800    0.5260 hc        1 FMX      0.065367
     38 H91        -2.8270   -0.7530   -0.6320 ha        1 FMX      0.157500
     39 H101       -3.0050   -0.1280   -3.0520 ha        1 FMX      0.156000
     40 H121        1.3200    0.1160   -3.2940 ha        1 FMX      0.156000
     41 H131        1.4900   -0.5000   -0.8810 ha        1 FMX      0.157500
     42 H161        0.4700   -1.7800   -4.9410 ha        1 FMX      0.149500
     43 H171        2.2010   -2.0260   -6.7340 ha        1 FMX      0.137500
     44 H181        2.6810   -0.1250   -8.2760 ha        1 FMX      0.136000
     45 H191        1.4380    2.0240   -8.0400 ha        1 FMX      0.137500
     46 H201       -0.2970    2.2800   -6.2470 ha        1 FMX      0.149500
@<TRIPOS>BOND
     1    1    2 2   
     2    2    3 1   
     3    2   14 1   
     4    3    4 1   
     5    3   11 1   
     6    4    5 1   
     7    4   29 1   
     8    5    6 ar  
     9    5   10 ar  
    10    6    7 ar  
    11    6   30 1   
    12    7    8 ar  
    13    7   31 1   
    14    8    9 ar  
    15    8   32 1   
    16    9   10 ar  
    17    9   33 1   
    18   10   34 1   
    19   11   12 1   
    20   11   13 2   
    21   12   14 1   
    22   14   15 1   
    23   14   16 1   
    24   15   35 1   
    25   15   36 1   
    26   15   37 1   
    27   16   17 ar  
    28   16   21 ar  
    29   17   18 ar  
    30   17   38 1   
    31   18   19 ar  
    32   18   39 1   
    33   19   20 ar  
    34   19   22 1   
    35   20   21 ar  
    36   20   40 1   
    37   21   41 1   
    38   22   23 1   
    39   23   24 ar  
    40   23   28 ar  
    41   24   25 ar  
    42   24   42 1   
    43   25   26 ar  
    44   25   43 1   
    45   26   27 ar  
    46   26   44 1   
    47   27   28 ar  
    48   27   45 1   
    49   28   46 1   
@<TRIPOS>SUBSTRUCTURE
     1 FMX         1 TEMP              0 ****  ****    0 ROOT
