@<TRIPOS>MOLECULE
FMX
   47    50     1     0     0
SMALL
bcc


@<TRIPOS>ATOM
      1 O6         -0.0480    0.0210   -0.0330 o         1 FMX     -0.508500
      2 C6          1.1680    0.1320   -0.0870 c         1 FMX      0.695500
      3 N2          2.0240   -0.1340    1.0520 n         1 FMX     -0.514800
      4 N1          1.5930   -0.3290    2.3560 n4        1 FMX     -0.355400
      5 C21         1.3620    0.8820    3.1780 ca        1 FMX     -0.090400
      6 C22         0.0560    1.3830    3.3110 ca        1 FMX     -0.090500
      7 C23        -0.1550    2.4860    4.1350 ca        1 FMX     -0.107000
      8 C24         0.9160    3.0900    4.7980 ca        1 FMX     -0.062000
      9 C25         2.2130    2.5950    4.6380 ca        1 FMX     -0.107000
     10 C26         2.4520    1.4930    3.8210 ca        1 FMX     -0.090500
     11 C3          3.3800    0.2530    0.7250 c         1 FMX      0.841600
     12 O4          3.4510    0.6130   -0.5870 os        1 FMX     -0.339900
     13 O3          4.3510    0.2530    1.4670 o         1 FMX     -0.530500
     14 C5          2.1230    0.5090   -1.2420 c3        1 FMX      0.202100
     15 C7          1.7930    1.8830   -1.7920 c3        1 FMX     -0.108100
     16 C8          2.1550   -0.5630   -2.2790 ca        1 FMX     -0.207300
     17 C9          3.3750   -1.0780   -2.7410 ca        1 FMX     -0.064000
     18 C10         3.3980   -2.0440   -3.7370 ca        1 FMX     -0.174000
     19 C11         2.1800   -2.4980   -4.2830 ca        1 FMX      0.171100
     20 C12         0.9560   -1.9830   -3.8320 ca        1 FMX     -0.174000
     21 C13         0.9510   -1.0170   -2.8330 ca        1 FMX     -0.064000
     22 O14         2.3090   -3.4740   -5.2490 os        1 FMX     -0.235200
     23 C15         1.1390   -3.8720   -5.9080 ca        1 FMX      0.060100
     24 C16         0.5180   -3.0220   -6.8310 ca        1 FMX     -0.130500
     25 C17        -0.5540   -3.5120   -7.5750 ca        1 FMX     -0.116000
     26 C18        -0.9930   -4.8260   -7.3970 ca        1 FMX     -0.119000
     27 C19        -0.3620   -5.6610   -6.4740 ca        1 FMX     -0.116000
     28 C20         0.7100   -5.1910   -5.7160 ca        1 FMX     -0.130500
     29 HN11        0.7020   -0.8620    2.2960 hn        1 FMX      0.486300
     30 H221       -0.7970    0.9230    2.7820 ha        1 FMX      0.171000
     31 H231       -1.1770    2.8840    4.2570 ha        1 FMX      0.175000
     32 H241        0.7380    3.9640    5.4480 ha        1 FMX      0.173000
     33 H251        3.0580    3.0790    5.1570 ha        1 FMX      0.175000
     34 H261        3.4840    1.1200    3.6850 ha        1 FMX      0.171000
     35 H71         1.7710    2.6460   -0.9790 hc        1 FMX      0.083033
     36 H72         2.5750    2.1740   -2.5370 hc        1 FMX      0.083033
     37 H73         0.7990    1.8440   -2.3010 hc        1 FMX      0.083033
     38 H91         4.3260   -0.7110   -2.3200 ha        1 FMX      0.150500
     39 H101        4.3480   -2.4560   -4.1090 ha        1 FMX      0.169500
     40 H121        0.0100   -2.3390   -4.2690 ha        1 FMX      0.169500
     41 H131       -0.0090   -0.6100   -2.4750 ha        1 FMX      0.150500
     42 H161        0.8820   -1.9950   -6.9700 ha        1 FMX      0.150000
     43 H171       -1.0500   -2.8610   -8.3110 ha        1 FMX      0.146000
     44 H181       -1.8370   -5.2060   -7.9930 ha        1 FMX      0.146000
     45 H191       -0.7070   -6.6980   -6.3440 ha        1 FMX      0.146000
     46 H201        1.2260   -5.8410   -4.9950 ha        1 FMX      0.150000
     47 H12         2.3200   -0.9050    2.8290 hn        1 FMX      0.486300
@<TRIPOS>BOND
     1    1    2 2   
     2    2    3 1   
     3    2   14 1   
     4    3    4 1   
     5    3   11 1   
     6    4    5 1   
     7    4   29 1   
     8    4   47 1   
     9    5    6 ar  
    10    5   10 ar  
    11    6    7 ar  
    12    6   30 1   
    13    7    8 ar  
    14    7   31 1   
    15    8    9 ar  
    16    8   32 1   
    17    9   10 ar  
    18    9   33 1   
    19   10   34 1   
    20   11   12 1   
    21   11   13 2   
    22   12   14 1   
    23   14   15 1   
    24   14   16 1   
    25   15   35 1   
    26   15   36 1   
    27   15   37 1   
    28   16   17 ar  
    29   16   21 ar  
    30   17   18 ar  
    31   17   38 1   
    32   18   19 ar  
    33   18   39 1   
    34   19   20 ar  
    35   19   22 1   
    36   20   21 ar  
    37   20   40 1   
    38   21   41 1   
    39   22   23 1   
    40   23   24 ar  
    41   23   28 ar  
    42   24   25 ar  
    43   24   42 1   
    44   25   26 ar  
    45   25   43 1   
    46   26   27 ar  
    47   26   44 1   
    48   27   28 ar  
    49   27   45 1   
    50   28   46 1   
@<TRIPOS>SUBSTRUCTURE
     1 FMX         1 TEMP              0 ****  ****    0 ROOT
