@<TRIPOS>MOLECULE
FMX
   46    49     1     0     0
SMALL
bcc


@<TRIPOS>ATOM
      1 O6          0.1390    0.5440   -0.3530 o         1 FMX     -0.545500
      2 C6          1.2950    0.2240   -0.0900 c         1 FMX      0.710500
      3 N2          1.8110   -0.1110    1.1950 n         1 FMX     -0.407800
      4 N1          1.0780   -0.1510    2.3490 nu        1 FMX     -0.369600
      5 C21         0.9980    1.0900    3.0970 ca        1 FMX      0.019600
      6 C22         1.5650    1.2080    4.3800 ca        1 FMX     -0.118500
      7 C23         1.3600    2.3650    5.1280 ca        1 FMX     -0.126000
      8 C24         0.6100    3.4190    4.6050 ca        1 FMX     -0.122000
      9 C25         0.0580    3.3120    3.3290 ca        1 FMX     -0.126000
     10 C26         0.2460    2.1590    2.5720 ca        1 FMX     -0.118500
     11 C3          3.2210   -0.3020    1.0960 c         1 FMX      0.807600
     12 O4          3.6440   -0.1600   -0.2120 os        1 FMX     -0.386900
     13 O3          4.0470   -0.5850    1.9590 o         1 FMX     -0.573500
     14 C5          2.4910    0.1310   -1.0740 c3        1 FMX      0.143100
     15 C7          2.7410    1.4720   -1.7390 c3        1 FMX     -0.096100
     16 C8          2.3140   -0.9750   -2.0660 ca        1 FMX     -0.147300
     17 C9          3.3600   -1.8690   -2.3290 ca        1 FMX     -0.075000
     18 C10         3.2080   -2.8720   -3.2800 ca        1 FMX     -0.170000
     19 C11         1.9890   -2.9790   -3.9720 ca        1 FMX      0.132100
     20 C12         0.9360   -2.0920   -3.7170 ca        1 FMX     -0.170000
     21 C13         1.1050   -1.0930   -2.7640 ca        1 FMX     -0.075000
     22 O14         1.9040   -4.0530   -4.8470 os        1 FMX     -0.247200
     23 C15         0.9440   -3.9720   -5.8550 ca        1 FMX      0.093100
     24 C16         0.8170   -2.8470   -6.6780 ca        1 FMX     -0.146500
     25 C17        -0.0780   -2.8900   -7.7450 ca        1 FMX     -0.112000
     26 C18        -0.8310   -4.0400   -7.9870 ca        1 FMX     -0.140000
     27 C19        -0.6940   -5.1550   -7.1610 ca        1 FMX     -0.112000
     28 C20         0.1900   -5.1320   -6.0840 ca        1 FMX     -0.146500
     29 HN11        1.5060   -0.8560    2.9500 hn        1 FMX      0.387800
     30 H221        2.1680    0.3900    4.8040 ha        1 FMX      0.149000
     31 H231        1.7990    2.4470    6.1330 ha        1 FMX      0.137000
     32 H241        0.4550    4.3320    5.1990 ha        1 FMX      0.136000
     33 H251       -0.5350    4.1410    2.9160 ha        1 FMX      0.137000
     34 H261       -0.2050    2.0750    1.5680 ha        1 FMX      0.149000
     35 H71         3.6400    1.4010   -2.3970 hc        1 FMX      0.065367
     36 H72         2.9210    2.2610   -0.9700 hc        1 FMX      0.065367
     37 H73         1.8500    1.7460   -2.3530 hc        1 FMX      0.065367
     38 H91         4.3110   -1.7770   -1.7790 ha        1 FMX      0.157500
     39 H101        4.0200   -3.5830   -3.4910 ha        1 FMX      0.156000
     40 H121       -0.0160   -2.1890   -4.2610 ha        1 FMX      0.156000
     41 H131        0.2770   -0.3970   -2.5470 ha        1 FMX      0.157500
     42 H161        1.4180   -1.9480   -6.4780 ha        1 FMX      0.149500
     43 H171       -0.1860   -2.0130   -8.4000 ha        1 FMX      0.137500
     44 H181       -1.5340   -4.0660   -8.8330 ha        1 FMX      0.136000
     45 H191       -1.2880   -6.0610   -7.3550 ha        1 FMX      0.137500
     46 H201        0.3130   -6.0040   -5.4260 ha        1 FMX      0.149500
@<TRIPOS>BOND
     1    1    2 2   
     2    2    3 1   
     3    2   14 1   
     4    3    4 1   
     5    3   11 1   
     6    4    5 1   
     7    4   29 1   
     8    5    6 ar  
     9    5   10 ar  
    10    6    7 ar  
    11    6   30 1   
    12    7    8 ar  
    13    7   31 1   
    14    8    9 ar  
    15    8   32 1   
    16    9   10 ar  
    17    9   33 1   
    18   10   34 1   
    19   11   12 1   
    20   11   13 2   
    21   12   14 1   
    22   14   15 1   
    23   14   16 1   
    24   15   35 1   
    25   15   36 1   
    26   15   37 1   
    27   16   17 ar  
    28   16   21 ar  
    29   17   18 ar  
    30   17   38 1   
    31   18   19 ar  
    32   18   39 1   
    33   19   20 ar  
    34   19   22 1   
    35   20   21 ar  
    36   20   40 1   
    37   21   41 1   
    38   22   23 1   
    39   23   24 ar  
    40   23   28 ar  
    41   24   25 ar  
    42   24   42 1   
    43   25   26 ar  
    44   25   43 1   
    45   26   27 ar  
    46   26   44 1   
    47   27   28 ar  
    48   27   45 1   
    49   28   46 1   
@<TRIPOS>SUBSTRUCTURE
     1 FMX         1 TEMP              0 ****  ****    0 ROOT
