@<TRIPOS>MOLECULE
FMX
   46    42     1     0     0
SMALL
bcc


@<TRIPOS>ATOM
      1 O6         -1.8750    1.2950    0.6240 o         1 FMX     -0.266000
      2 C6         -0.7030    1.5840    0.7560 c1        1 FMX      0.316000
      3 N2         -0.1240    2.1380    1.8840 n2        1 FMX     -0.301000
      4 N1         -0.7690    2.9360    2.8190 n3        1 FMX     -0.054000
      5 C21        -0.3820    2.8850    4.1850 c2        1 FMX     -0.063000
      6 C22         0.9490    3.0540    4.5320 c1        1 FMX     -0.135000
      7 C23         1.3110    3.1480    5.8670 c1        1 FMX     -0.124500
      8 C24         0.3410    3.0750    6.8560 c1        1 FMX     -0.124500
      9 C25        -0.9900    2.9060    6.5100 c1        1 FMX     -0.127000
     10 C26        -1.3520    2.8120    5.1760 c2        1 FMX     -0.101000
     11 C3          1.2560    1.9080    1.8140 c2        1 FMX      0.373000
     12 O4          1.5340    1.2760    0.5590 os        1 FMX     -0.225000
     13 O3          2.0610    2.1300    2.6940 o         1 FMX     -0.299000
     14 C5          0.3660    1.2970   -0.2030 c3        1 FMX      0.114000
     15 C7          0.3750    2.0410   -1.5230 c3        1 FMX     -0.214000
     16 C8          0.1560   -0.0710   -0.5820 c2        1 FMX     -0.141000
     17 C9          1.2330   -0.9480   -0.6300 c2        1 FMX     -0.065000
     18 C10         1.0630   -2.2310   -1.1370 c1        1 FMX     -0.190000
     19 C11        -0.1830   -2.6360   -1.5960 c1        1 FMX      0.087000
     20 C12        -1.2590   -1.7610   -1.5480 c1        1 FMX     -0.151000
     21 C13        -1.0900   -0.4780   -1.0410 c1        1 FMX     -0.085000
     22 O14        -0.3510   -3.9380   -2.1300 os        1 FMX     -0.158000
     23 C15        -0.2610   -3.8850   -3.5420 c2        1 FMX      0.047000
     24 C16         0.9820   -3.8500   -4.1560 c2        1 FMX     -0.161000
     25 C17         1.0710   -3.8070   -5.5400 c1        1 FMX     -0.111000
     26 C18        -0.0830   -3.7990   -6.3090 c1        1 FMX     -0.124500
     27 C19        -1.3260   -3.8330   -5.6960 c1        1 FMX     -0.124500
     28 C20        -1.4150   -3.8760   -4.3120 c1        1 FMX     -0.133000
     29 HN11       -1.4160    3.5170    2.5510 hn        1 FMX      0.183000
     30 H221        1.6300    3.1060    3.8370 ha        1 FMX      0.139000
     31 H231        2.2520    3.2670    6.1120 ha        1 FMX      0.136750
     32 H241        0.5960    3.1410    7.7930 ha        1 FMX      0.136750
     33 H251       -1.6740    2.8540    7.2090 ha        1 FMX      0.138000
     34 H261       -2.2900    2.6930    4.9330 ha        1 FMX      0.157000
     35 H71         0.3730    3.0070   -1.3540 hc        1 FMX      0.105000
     36 H72        -0.4200    1.7980   -2.0390 hc        1 FMX      0.105000
     37 H73         1.1800    1.7990   -2.0290 hc        1 FMX      0.105000
     38 H91         2.1090   -0.6630   -0.3080 ha        1 FMX      0.158000
     39 H101        1.8230   -2.8490   -1.1710 ha        1 FMX      0.155000
     40 H121       -2.1340   -2.0460   -1.8710 ha        1 FMX      0.157000
     41 H131       -1.8480    0.1390   -1.0070 ha        1 FMX      0.157000
     42 H161        1.7910   -3.8560   -3.6160 ha        1 FMX      0.147000
     43 H171        1.9460   -3.7830   -5.9720 ha        1 FMX      0.137000
     44 H181       -0.0210   -3.7680   -7.2820 ha        1 FMX      0.136750
     45 H191       -2.1400   -3.8270   -6.2380 ha        1 FMX      0.136750
     46 H201       -2.2910   -3.9010   -3.8790 ha        1 FMX      0.151000
@<TRIPOS>BOND
     1    1    2 1   
     2    2   14 1   
     3    3    4 1   
     4    3   11 1   
     5    4    5 1   
     6    4   29 1   
     7    5    6 1   
     8    5   10 1   
     9    6   30 1   
    10    7    8 1   
    11    7   31 1   
    12    8   32 1   
    13    9   10 1   
    14    9   33 1   
    15   10   34 1   
    16   11   12 1   
    17   11   13 1   
    18   12   14 1   
    19   14   15 1   
    20   14   16 1   
    21   15   35 1   
    22   15   36 1   
    23   15   37 1   
    24   16   17 1   
    25   16   21 1   
    26   17   18 1   
    27   17   38 1   
    28   18   39 1   
    29   19   20 1   
    30   19   22 1   
    31   20   40 1   
    32   21   41 1   
    33   22   23 1   
    34   23   24 1   
    35   23   28 1   
    36   24   25 1   
    37   24   42 1   
    38   25   43 1   
    39   26   27 1   
    40   26   44 1   
    41   27   45 1   
    42   28   46 1   
@<TRIPOS>SUBSTRUCTURE
     1 FMX         1 TEMP              0 ****  ****    0 ROOT
