@<TRIPOS>MOLECULE
FMX
   46    49     1     0     0
SMALL
bcc


@<TRIPOS>ATOM
      1 O6          0.1240    0.5260   -0.3480 o         1 FMX     -0.545500
      2 C6          1.2860    0.2220   -0.0890 c         1 FMX      0.710500
      3 N2          1.8110   -0.1060    1.1930 n         1 FMX     -0.407800
      4 N1          1.0830   -0.1560    2.3510 nh        1 FMX     -0.369600
      5 C21         0.9890    1.0830    3.0990 ca        1 FMX      0.019600
      6 C22         1.5600    1.2090    4.3800 ca        1 FMX     -0.118500
      7 C23         1.3420    2.3630    5.1280 ca        1 FMX     -0.126000
      8 C24         0.5760    3.4060    4.6100 ca        1 FMX     -0.122000
      9 C25         0.0190    3.2920    3.3370 ca        1 FMX     -0.126000
     10 C26         0.2200    2.1410    2.5780 ca        1 FMX     -0.118500
     11 C3          3.2230   -0.2760    1.0890 c         1 FMX      0.807600
     12 O4          3.6390   -0.1280   -0.2200 os        1 FMX     -0.386900
     13 O3          4.0570   -0.5480    1.9490 o         1 FMX     -0.573500
     14 C5          2.4780    0.1470   -1.0780 c3        1 FMX      0.143100
     15 C7          2.7070    1.4920   -1.7430 c3        1 FMX     -0.096100
     16 C8          2.3140   -0.9610   -2.0700 ca        1 FMX     -0.147300
     17 C9          3.3710   -1.8400   -2.3370 ca        1 FMX     -0.075000
     18 C10         3.2300   -2.8450   -3.2880 ca        1 FMX     -0.170000
     19 C11         2.0110   -2.9690   -3.9750 ca        1 FMX      0.132100
     20 C12         0.9460   -2.0970   -3.7160 ca        1 FMX     -0.170000
     21 C13         1.1050   -1.0950   -2.7630 ca        1 FMX     -0.075000
     22 O14         1.9380   -4.0430   -4.8510 os        1 FMX     -0.247200
     23 C15         0.9730   -3.9760   -5.8560 ca        1 FMX      0.093100
     24 C16         0.8270   -2.8520   -6.6780 ca        1 FMX     -0.146500
     25 C17        -0.0710   -2.9080   -7.7420 ca        1 FMX     -0.112000
     26 C18        -0.8090   -4.0670   -7.9810 ca        1 FMX     -0.140000
     27 C19        -0.6530   -5.1810   -7.1550 ca        1 FMX     -0.112000
     28 C20         0.2340   -5.1460   -6.0810 ca        1 FMX     -0.146500
     29 HN11        1.5220   -0.8560    2.9490 hn        1 FMX      0.387800
     30 H221        2.1760    0.3990    4.8010 ha        1 FMX      0.149000
     31 H231        1.7850    2.4510    6.1320 ha        1 FMX      0.137000
     32 H241        0.4110    4.3160    5.2040 ha        1 FMX      0.136000
     33 H251       -0.5870    4.1130    2.9260 ha        1 FMX      0.137000
     34 H261       -0.2340    2.0520    1.5760 ha        1 FMX      0.149000
     35 H71         1.8100    1.7540   -2.3540 hc        1 FMX      0.065367
     36 H72         2.8790    2.2830   -0.9740 hc        1 FMX      0.065367
     37 H73         3.6040    1.4340   -2.4050 hc        1 FMX      0.065367
     38 H91         4.3230   -1.7360   -1.7900 ha        1 FMX      0.157500
     39 H101        4.0510   -3.5440   -3.5020 ha        1 FMX      0.156000
     40 H121       -0.0060   -2.2060   -4.2570 ha        1 FMX      0.156000
     41 H131        0.2680   -0.4110   -2.5440 ha        1 FMX      0.157500
     42 H161        1.4160   -1.9450   -6.4800 ha        1 FMX      0.149500
     43 H171       -0.1940   -2.0320   -8.3960 ha        1 FMX      0.137500
     44 H181       -1.5140   -4.1040   -8.8240 ha        1 FMX      0.136000
     45 H191       -1.2360   -6.0950   -7.3480 ha        1 FMX      0.137500
     46 H201        0.3720   -6.0160   -5.4240 ha        1 FMX      0.149500
@<TRIPOS>BOND
     1    1    2 2   
     2    2    3 1   
     3    2   14 1   
     4    3    4 1   
     5    3   11 1   
     6    4    5 1   
     7    4   29 1   
     8    5    6 ar  
     9    5   10 ar  
    10    6    7 ar  
    11    6   30 1   
    12    7    8 ar  
    13    7   31 1   
    14    8    9 ar  
    15    8   32 1   
    16    9   10 ar  
    17    9   33 1   
    18   10   34 1   
    19   11   12 1   
    20   11   13 2   
    21   12   14 1   
    22   14   15 1   
    23   14   16 1   
    24   15   35 1   
    25   15   36 1   
    26   15   37 1   
    27   16   17 ar  
    28   16   21 ar  
    29   17   18 ar  
    30   17   38 1   
    31   18   19 ar  
    32   18   39 1   
    33   19   20 ar  
    34   19   22 1   
    35   20   21 ar  
    36   20   40 1   
    37   21   41 1   
    38   22   23 1   
    39   23   24 ar  
    40   23   28 ar  
    41   24   25 ar  
    42   24   42 1   
    43   25   26 ar  
    44   25   43 1   
    45   26   27 ar  
    46   26   44 1   
    47   27   28 ar  
    48   27   45 1   
    49   28   46 1   
@<TRIPOS>SUBSTRUCTURE
     1 FMX         1 TEMP              0 ****  ****    0 ROOT
