@<TRIPOS>MOLECULE
FMY
   64    69     1     0     0
SMALL
bcc


@<TRIPOS>ATOM
      1 C01         0.3650   -4.2460   -0.6370 ca        1 FMY     -0.122500
      2 C02         0.4800   -2.3040    0.8050 ca        1 FMY     -0.122500
      3 C03        -1.0040   -4.0720   -0.7650 ca        1 FMY     -0.125000
      4 C04        -0.8930   -2.1300    0.6900 ca        1 FMY     -0.125000
      5 C05        -3.9780   -3.9020   -0.4820 cc        1 FMY      0.428400
      6 C06         5.1060    1.4240   -1.3200 ca        1 FMY     -0.177000
      7 C07         3.9360    3.5550   -1.0560 ca        1 FMY     -0.210000
      8 C08         3.1470    1.5750    0.1100 ca        1 FMY     -0.132000
      9 C09         0.3620    5.6150    0.3070 c3        1 FMY      0.122900
     10 C10         0.3450    4.1980    2.1920 c3        1 FMY      0.122900
     11 C11        -8.5180   -0.5320   -0.4740 c3        1 FMY      0.121900
     12 C12        -6.9900    1.2180   -0.0820 c3        1 FMY      0.121900
     13 C13         1.6880    5.0120   -0.1770 c3        1 FMY      0.151300
     14 C14         1.6700    3.5540    1.7610 c3        1 FMY      0.151300
     15 C15        -7.3790   -1.5290   -0.7190 c3        1 FMY      0.146300
     16 C16        -5.7960    0.2820   -0.3110 c3        1 FMY      0.146300
     17 N17        -5.2310   -3.4170   -0.5170 nd        1 FMY     -0.706000
     18 N18        -3.7190   -1.6910   -0.0720 nc        1 FMY     -0.551800
     19 O20         0.2360    5.5360    1.7220 os        1 FMY     -0.411600
     20 O21        -8.1400    0.7990   -0.8050 os        1 FMY     -0.414600
     21 C22         4.9650    2.7850   -1.6230 ca        1 FMY      0.148900
     22 C23         1.1430   -3.3660    0.1530 ca        1 FMY      0.187400
     23 C24         4.1890    0.8350   -0.4440 ca        1 FMY     -0.093900
     24 C25         3.0040    2.9550   -0.1850 ca        1 FMY      0.164600
     25 C26        -1.6560   -3.0160   -0.0950 ca        1 FMY      0.004800
     26 C27        -5.0570   -2.0180   -0.2470 cd        1 FMY      0.716900
     27 N28         1.8900    3.6620    0.3250 nh        1 FMY     -0.633000
     28 N29        -6.1370   -1.1170   -0.0690 nh        1 FMY     -0.683300
     29 N30        -3.0640   -2.8630   -0.2180 na        1 FMY      0.020500
     30 C31         3.4610   -2.7660    0.2700 cc        1 FMY      0.838200
     31 N31         4.7860   -3.2540    0.5210 na        1 FMY     -0.703000
     32 N32         3.2870   -1.3800   -0.0400 nc        1 FMY     -0.700000
     33 C33         4.3450   -0.5990   -0.1110 cd        1 FMY      0.586200
     34 C34         5.6950   -1.0770    0.1280 cd        1 FMY     -0.393600
     35 C35         5.8560   -2.4020    0.4360 cc        1 FMY      0.129000
     36 H01         0.8480   -5.0820   -1.1670 ha        1 FMY      0.144500
     37 H02         1.0500   -1.5950    1.4270 ha        1 FMY      0.144500
     38 H03        -1.5710   -4.7660   -1.4050 ha        1 FMY      0.145500
     39 H04        -1.3730   -1.2890    1.2150 ha        1 FMY      0.145500
     40 H05        -3.6830   -4.9470   -0.6270 h5        1 FMY      0.072100
     41 H06         5.9160    0.8390   -1.7770 ha        1 FMY      0.154000
     42 H07         3.8840    4.6230   -1.3160 ha        1 FMY      0.153000
     43 H08         2.4180    1.0700    0.7630 ha        1 FMY      0.158000
     44 H09         0.3390    6.7130    0.0840 h1        1 FMY      0.059700
     45 H09A       -0.5080    5.1010   -0.1790 h1        1 FMY      0.059700
     46 H10        -0.5270    3.5960    1.8240 h1        1 FMY      0.059700
     47 H10A        0.3110    4.2880    3.3090 h1        1 FMY      0.059700
     48 H11        -9.3750   -0.7600   -1.1590 h1        1 FMY      0.056200
     49 H11A       -8.8570   -0.5700    0.5950 h1        1 FMY      0.056200
     50 H12        -7.2370    1.2860    1.0100 h1        1 FMY      0.056200
     51 H12A       -6.7560    2.2370   -0.4900 h1        1 FMY      0.056200
     52 H13         1.6660    4.9710   -1.3020 h1        1 FMY      0.049700
     53 H13A        2.5270    5.6980    0.1400 h1        1 FMY      0.049700
     54 H14         2.5100    4.0450    2.3330 h1        1 FMY      0.049700
     55 H14A        1.6400    2.4670    2.0460 h1        1 FMY      0.049700
     56 H15        -7.6870   -2.5240   -0.2920 h1        1 FMY      0.059950
     57 H15A       -7.2380   -1.6490   -1.8310 h1        1 FMY      0.059950
     58 H16        -5.4140    0.4350   -1.3610 h1        1 FMY      0.059950
     59 H16A       -4.9810    0.5770    0.4070 h1        1 FMY      0.059950
     60 HN31        4.9180   -4.2180    0.7290 hn        1 FMY      0.469800
     61 H34         6.5440   -0.3880    0.0720 ha        1 FMY      0.166000
     62 H35         6.8480   -2.8480    0.6370 h4        1 FMY      0.160000
     63 N19         2.5010   -3.6700    0.3270 nf        1 FMY     -0.676100
     64 F37         5.8430    3.3770   -2.4710 f         1 FMY     -0.138900
@<TRIPOS>BOND
     1    1    3 ar  
     2    1   22 ar  
     3    1   36 1   
     4    2    4 ar  
     5    2   22 ar  
     6    2   37 1   
     7    3   25 ar  
     8    3   38 1   
     9    4   25 ar  
    10    4   39 1   
    11    5   17 2   
    12    5   29 1   
    13    5   40 1   
    14    6   21 ar  
    15    6   23 ar  
    16    6   41 1   
    17    7   21 ar  
    18    7   24 ar  
    19    7   42 1   
    20    8   23 ar  
    21    8   24 ar  
    22    8   43 1   
    23    9   13 1   
    24    9   19 1   
    25    9   44 1   
    26    9   45 1   
    27   10   14 1   
    28   10   19 1   
    29   10   46 1   
    30   10   47 1   
    31   11   15 1   
    32   11   20 1   
    33   11   48 1   
    34   11   49 1   
    35   12   16 1   
    36   12   20 1   
    37   12   50 1   
    38   12   51 1   
    39   13   27 1   
    40   13   52 1   
    41   13   53 1   
    42   14   27 1   
    43   14   54 1   
    44   14   55 1   
    45   15   28 1   
    46   15   56 1   
    47   15   57 1   
    48   16   28 1   
    49   16   58 1   
    50   16   59 1   
    51   17   26 1   
    52   18   26 2   
    53   18   29 1   
    54   21   64 1   
    55   22   63 1   
    56   23   33 1   
    57   24   27 1   
    58   25   29 1   
    59   26   28 1   
    60   30   31 1   
    61   30   32 1   
    62   30   63 2   
    63   31   35 1   
    64   31   60 1   
    65   32   33 2   
    66   33   34 1   
    67   34   35 2   
    68   34   61 1   
    69   35   62 1   
@<TRIPOS>SUBSTRUCTURE
     1 FMY         1 TEMP              0 ****  ****    0 ROOT
