@<TRIPOS>MOLECULE
FMY
   64    62     1     0     0
SMALL
bcc


@<TRIPOS>ATOM
      1 C01         1.3720   -2.0930   -0.5690 c1        1 FMY     -0.177000
      2 C02        -0.2620   -0.6230    2.5320 c2        1 FMY     -0.188000
      3 C03         1.6840   -1.4830    0.4130 c1        1 FMY     -0.146000
      4 C04         1.1620   -0.3990    2.5450 c2        1 FMY     -0.079000
      5 C05         4.4660   -1.1510    0.9800 c2        1 FMY     -0.036000
      6 C06        -2.1680   -3.4440    5.7340 c1        1 FMY     -0.114000
      7 C07         0.2660   -3.4270    5.6490 c1        1 FMY     -0.032000
      8 C08         1.9730   -4.3930    4.2020 c2        1 FMY     -0.273000
      9 C09         2.9120   -3.8160    4.9700 c2        1 FMY      0.007000
     10 C10         5.5510   -1.8610    7.0540 c1        1 FMY     -0.230750
     11 C11         8.9450   -0.2310    0.7590 c3        1 FMY     -0.097000
     12 C12         8.7860   -0.5550    6.5250 c1        1 FMY     -0.230750
     13 C13        -0.2650   -6.3440    4.6490 c3        1 FMY     -0.135000
     14 C14         4.4500   -2.0760    7.4690 c1        1 FMY     -0.230750
     15 C15         8.4690   -0.7880    2.0060 c1        1 FMY     -0.116000
     16 C16         8.7050   -0.5310    5.3320 c1        1 FMY     -0.230750
     17 N17         5.6680   -0.6880    1.3590 n2        1 FMY     -0.226000
     18 N18         3.9820    0.3980    2.5650 n2        1 FMY     -0.135000
     19 O20         4.2320   -4.1420    4.7620 oh        1 FMY     -0.272000
     20 O21         9.3470    1.1250    0.8370 oh        1 FMY     -0.325000
     21 C22        -0.9870   -3.4360    6.3480 c2        1 FMY      0.069000
     22 C23        -1.0110   -0.6050    1.4080 c2        1 FMY     -0.017000
     23 C24        -3.2890   -3.3930    5.0810 c2        1 FMY     -0.078000
     24 C25         0.5140   -4.0500    4.3430 c3        1 FMY     -0.019000
     25 C26         2.0520   -0.7710    1.5830 c2        1 FMY      0.115000
     26 C27         5.3500    0.2980    2.3600 c2        1 FMY      0.013000
     27 N28        -0.4080   -5.1060    3.9270 n3        1 FMY     -0.302000
     28 N29         6.3190    1.1110    2.9560 nh        1 FMY     -0.294000
     29 N30         3.4470   -0.4960    1.7000 na        1 FMY     -0.111000
     30 C31        -3.2760   -1.3020    2.1920 c2        1 FMY      0.171000
     31 N31        -4.6650   -1.5750    1.5630 n3        1 FMY     -0.139000
     32 N32        -2.9270   -1.5790    3.4300 n2        1 FMY     -0.261000
     33 C33        -3.8270   -2.1240    4.4710 c3        1 FMY      0.184000
     34 C34        -5.1090   -2.3280    3.7870 c1        1 FMY     -0.215000
     35 C35        -5.3940   -1.9910    2.6370 c1        1 FMY     -0.131000
     36 H01        -0.5250   -0.4060    0.4260 h4        1 FMY      0.148000
     37 H02        -0.6950   -0.7630    3.5380 ha        1 FMY      0.169000
     38 H03         1.0910   -2.6350   -1.4370 ha        1 FMY      0.232000
     39 H04         1.5200    0.1120    3.4620 ha        1 FMY      0.169000
     40 H05         4.2680   -1.9220    0.2280 h5        1 FMY      0.212000
     41 H06         2.2370   -5.1180    3.4210 ha        1 FMY      0.136000
     42 H07         0.3210   -3.1590    3.6360 h1        1 FMY      0.152000
     43 H08        -3.9160   -4.2920    4.9450 ha        1 FMY      0.179000
     44 H09        -0.4630   -6.1560    5.7370 h1        1 FMY      0.074000
     45 H09A        2.6910   -3.0870    5.7700 h4        1 FMY      0.159000
     46 H10         4.7530   -3.6230    5.3960 ho        1 FMY      0.223000
     47 H10A        6.5310   -1.6570    6.6920 ha        1 FMY      0.230000
     48 H11         8.1050   -0.3220   -0.0010 h1        1 FMY      0.133500
     49 H11A        9.8500   -0.7660    0.3450 h1        1 FMY      0.133500
     50 H12         8.7470    1.5750    1.4460 ho        1 FMY      0.216000
     51 H12A        8.8630   -0.5700    7.5830 ha        1 FMY      0.230000
     52 H13        -1.0280   -7.0710    4.2640 h1        1 FMY      0.074000
     53 H13A        0.7540   -6.8090    4.5540 h1        1 FMY      0.074000
     54 H14        -0.2980   -5.2700    2.9420 hn        1 FMY      0.153000
     55 H14A        3.4720   -2.2590    7.8430 ha        1 FMY      0.230000
     56 H15         8.2970   -1.8710    2.0330 ha        1 FMY      0.073000
     57 H15A        7.2280    0.6760    2.9950 hn        1 FMY      0.212000
     58 H16         6.0270    1.4950    3.8290 hn        1 FMY      0.212000
     59 H16A        8.6380   -0.5130    4.2650 ha        1 FMY      0.230000
     60 HN31       -2.6920   -0.7820    0.3100 hn        1 FMY      0.239000
     61 H34        -3.9160   -1.3360    5.2810 h1        1 FMY      0.137000
     62 H35        -5.0370   -0.7740    1.0860 hn        1 FMY      0.199000
     63 N19        -2.3920   -0.7160    1.2620 n3        1 FMY     -0.246000
     64 F37        -0.9170   -3.2650    7.7020 f         1 FMY     -0.097000
@<TRIPOS>BOND
     1    1    3 1   
     2    1   38 1   
     3    2    4 1   
     4    2   22 1   
     5    2   37 1   
     6    3   25 1   
     7    4   25 1   
     8    4   39 1   
     9    5   17 1   
    10    5   29 1   
    11    5   40 1   
    12    6   21 1   
    13    6   23 1   
    14    7   21 1   
    15    7   24 1   
    16    8    9 1   
    17    8   24 1   
    18    8   41 1   
    19    9   19 1   
    20    9   45 1   
    21   10   14 1   
    22   10   47 1   
    23   11   15 1   
    24   11   20 1   
    25   11   48 1   
    26   11   49 1   
    27   12   16 1   
    28   12   51 1   
    29   13   27 1   
    30   13   44 1   
    31   13   52 1   
    32   13   53 1   
    33   14   55 1   
    34   15   56 1   
    35   16   59 1   
    36   17   26 1   
    37   18   26 1   
    38   18   29 1   
    39   19   46 1   
    40   20   50 1   
    41   21   64 1   
    42   22   36 1   
    43   22   63 1   
    44   23   33 1   
    45   23   43 1   
    46   24   27 1   
    47   24   42 1   
    48   25   29 1   
    49   26   28 1   
    50   27   54 1   
    51   28   57 1   
    52   28   58 1   
    53   30   31 1   
    54   30   32 1   
    55   30   63 1   
    56   31   35 1   
    57   31   62 1   
    58   32   33 1   
    59   33   34 1   
    60   33   61 1   
    61   34   35 1   
    62   60   63 1   
@<TRIPOS>SUBSTRUCTURE
     1 FMY         1 TEMP              0 ****  ****    0 ROOT
