@<TRIPOS>MOLECULE
FMY
   64    60     1     0     0
SMALL
bcc


@<TRIPOS>ATOM
      1 C01         1.7780   -0.9920   -0.4230 c1        1 FMY     -0.170000
      2 C02         0.6600   -0.0180    3.0670 c2        1 FMY     -0.198000
      3 C03         2.2630   -0.6030    0.6000 c1        1 FMY     -0.149000
      4 C04         2.0890    0.0950    2.9400 c2        1 FMY     -0.076000
      5 C05         5.0570   -0.1250    0.6550 c2        1 FMY     -0.042000
      6 C06        -2.5610   -5.4580    7.3810 c1        1 FMY      0.110000
      7 C07        -2.2330   -6.1700    6.1680 c2        1 FMY     -0.233000
      8 C08        -1.8770   -5.1550    3.9160 c1        1 FMY     -0.042000
      9 C09        -0.1090   -3.7090    4.7610 c3        1 FMY      0.019000
     10 C10         3.4690    1.2010    6.2120 c1        1 FMY     -0.224750
     11 C11         9.5480   -0.7900    0.1690 c2        1 FMY     -0.308000
     12 C12        10.6580    0.0230    5.2100 c1        1 FMY     -0.224750
     13 C13        -0.5270   -7.8730    4.3740 c3        1 FMY     -0.143000
     14 C14         2.7110    1.2010    7.1370 c1        1 FMY     -0.224750
     15 C15        10.6060   -1.5920    0.0380 c1        1 FMY      0.087000
     16 C16        10.5880    0.2220    4.0320 c1        1 FMY     -0.224750
     17 N17         6.3470    0.0660    0.9780 n2        1 FMY     -0.218000
     18 N18         5.0110    0.2500    2.8890 n2        1 FMY     -0.146000
     19 O20         0.1440   -2.9520    5.9170 oh        1 FMY     -0.312000
     20 O21         9.5810    0.3760    0.9130 oh        1 FMY     -0.285000
     21 C22        -1.7720   -6.6670    7.3480 c2        1 FMY      0.007000
     22 C23        -0.2310    0.2030    2.0690 c2        1 FMY     -0.032000
     23 C24        -1.6310   -3.8350    4.5000 c3        1 FMY     -0.200000
     24 C25        -2.3600   -6.2960    4.7150 c3        1 FMY     -0.021000
     25 C26         2.8280   -0.1580    1.8230 c2        1 FMY      0.109000
     26 C27         6.3060    0.3110    2.3940 c2        1 FMY      0.009000
     27 N28        -1.9350   -7.6060    4.2150 n7        1 FMY     -0.261000
     28 N29         7.4330    0.6760    3.1360 nv        1 FMY     -0.285000
     29 N30         4.2480   -0.0140    1.8030 na        1 FMY     -0.106000
     30 C31        -2.3820   -0.5020    2.8740 c2        1 FMY      0.168000
     31 N31        -3.7740   -0.1890    2.9040 n7        1 FMY     -0.214000
     32 N32        -1.9350   -1.5240    3.7860 n2        1 FMY     -0.197000
     33 C33        -2.0930   -2.7750    3.5240 c2        1 FMY      0.011000
     34 C34        -4.5780   -2.4720    3.5050 c1        1 FMY      0.116000
     35 C35        -4.7090   -1.2070    3.1080 c2        1 FMY     -0.330000
     36 H01         0.1240    0.4970    1.0560 h4        1 FMY      0.155000
     37 H02         0.3220   -0.2380    4.0960 ha        1 FMY      0.144000
     38 H03         1.3380   -1.3350   -1.3260 ha        1 FMY      0.232000
     39 H04         2.5940    0.3990    3.8800 ha        1 FMY      0.166000
     40 H05         4.6570   -0.3370   -0.3430 h5        1 FMY      0.213000
     41 H06         0.3360   -4.7190    4.9800 h1        1 FMY      0.100500
     42 H07        -3.4930   -6.2340    4.4910 h1        1 FMY      0.182000
     43 H08        -2.1630   -3.6720    5.4890 hc        1 FMY      0.152000
     44 H09        -0.2790   -7.9030    5.4680 h1        1 FMY      0.078000
     45 H09A       -0.3090   -8.8810    3.9310 h1        1 FMY      0.078000
     46 H10         4.1460    1.2030    5.3930 ha        1 FMY      0.225000
     47 H10A       -0.1540   -2.0470    5.7520 ho        1 FMY      0.221000
     48 H11         8.5800   -1.0620   -0.2920 h4        1 FMY      0.176000
     49 H11A       11.7970   -0.3660    1.1980 DU        1 FMY      0.049000
     50 H12         8.8550    0.9380    0.6030 ho        1 FMY      0.235000
     51 H12A       10.7200   -0.1540    6.2540 ha        1 FMY      0.225000
     52 H13         0.1390   -7.1120    3.8810 h1        1 FMY      0.078000
     53 H13A        0.3960   -3.2640    3.8640 h1        1 FMY      0.100500
     54 H14        -2.1870   -7.6650    3.2420 hn        1 FMY      0.173000
     55 H14A        2.0400    1.2000    7.9580 ha        1 FMY      0.225000
     56 H15         8.2940    0.3270    2.7600 hn        1 FMY      0.208000
     57 H15A       11.9780   -0.9310    0.8280 DU        1 FMY      0.049000
     58 H16         7.3380    0.5100    4.1160 hn        1 FMY      0.208000
     59 H16A       10.5360    0.4010    2.9840 ha        1 FMY      0.225000
     60 HN31       -4.0640    0.5390    2.2820 hn        1 FMY      0.242000
     61 H34        -2.5260   -3.1890    2.5820 h4        1 FMY      0.150000
     62 H35        -5.7680   -0.8630    2.9900 h4        1 FMY      0.197000
     63 N19        -1.6110    0.2430    2.1040 n2        1 FMY     -0.241000
     64 F37        -1.0830   -7.6180    7.9190 f         1 FMY     -0.018000
@<TRIPOS>BOND
     1    1    3 1   
     2    1   38 1   
     3    2    4 1   
     4    2   22 1   
     5    2   37 1   
     6    3   25 1   
     7    4   25 1   
     8    4   39 1   
     9    5   17 1   
    10    5   29 1   
    11    5   40 1   
    12    6    7 1   
    13    6   21 1   
    14    7   21 1   
    15    7   24 1   
    16    8   23 1   
    17    8   24 1   
    18    9   19 1   
    19    9   23 1   
    20    9   41 1   
    21    9   53 1   
    22   10   14 1   
    23   10   46 1   
    24   11   15 1   
    25   11   20 1   
    26   11   48 1   
    27   12   16 1   
    28   12   51 1   
    29   13   27 1   
    30   13   44 1   
    31   13   45 1   
    32   13   52 1   
    33   14   55 1   
    34   16   59 1   
    35   17   26 1   
    36   18   26 1   
    37   18   29 1   
    38   19   47 1   
    39   20   50 1   
    40   21   64 1   
    41   22   36 1   
    42   22   63 1   
    43   23   33 1   
    44   23   43 1   
    45   24   27 1   
    46   24   42 1   
    47   25   29 1   
    48   26   28 1   
    49   27   54 1   
    50   28   56 1   
    51   28   58 1   
    52   30   31 1   
    53   30   32 1   
    54   30   63 1   
    55   31   35 1   
    56   31   60 1   
    57   32   33 1   
    58   33   61 1   
    59   34   35 1   
    60   35   62 1   
@<TRIPOS>SUBSTRUCTURE
     1 FMY         1 TEMP              0 ****  ****    0 ROOT
