@<TRIPOS>MOLECULE
FMY
   64    58     1     0     0
SMALL
bcc


@<TRIPOS>ATOM
      1 C01        -0.7650    4.3060   -0.1600 c1        1 FMY     -0.154000
      2 C02         0.9240    4.2730    1.5600 c1        1 FMY     -0.110500
      3 C03         0.2270    4.2520   -1.1350 c1        1 FMY     -0.154000
      4 C04         1.9160    4.2180    0.5850 c1        1 FMY     -0.110500
      5 C05         2.2760    2.2980   -1.9610 c1        1 FMY     -0.027000
      6 C06        -0.9800   -1.8150    4.0850 c1        1 FMY     -0.185000
      7 C07        -1.5100   -4.1230    3.6360 c1        1 FMY     -0.218000
      8 C08        -2.7150   -2.3670    2.5030 c1        1 FMY     -0.146000
      9 C09        -5.4650   -6.0270    2.1950 c3        1 FMY     -0.032500
     10 C10        -4.0260   -6.3610    0.4670 c3        1 FMY     -0.032500
     11 C11         5.0940    2.0210   -6.5350 c3        1 FMY     -0.028500
     12 C12         6.8480    1.8640   -4.9610 c3        1 FMY     -0.028500
     13 C13        -4.4090   -5.2180    2.9300 c3        1 FMY     -0.080000
     14 C14        -2.9580   -5.5540    1.1870 c3        1 FMY     -0.080000
     15 C15         4.2210    2.7050   -5.4940 c3        1 FMY     -0.089500
     16 C16         5.9760    2.5480   -3.9200 c3        1 FMY     -0.089500
     17 N17         3.1760    2.0090   -2.9220 n2        1 FMY     -0.177000
     18 N18         3.3290    4.1350   -2.4740 n2        1 FMY     -0.115000
     19 N19        -0.2260    2.9530    1.5720 n1        1 FMY     -0.198000
     20 O20        -5.1740   -6.1540    0.9660 os        1 FMY     -0.276000
     21 O21         6.4780    2.2090   -6.2870 os        1 FMY     -0.270000
     22 C22        -0.7560   -3.1700    4.3120 c1        1 FMY      0.118000
     23 C23        -0.4170    4.3170    1.1870 c1        1 FMY      0.033000
     24 C24        -1.9600   -1.4130    3.1800 c1        1 FMY     -0.002000
     25 C25        -2.4900   -3.7230    2.7310 c1        1 FMY      0.095000
     26 C26         1.5670    4.2080   -0.7630 c1        1 FMY      0.033000
     27 C27         3.8260    3.1440   -3.2380 c1        1 FMY     -0.027000
     28 N28        -3.5410   -4.3610    1.9790 n3        1 FMY     -0.247000
     29 N29         4.5900    2.3600   -4.1680 n2        1 FMY     -0.176000
     30 N30         2.3710    3.6110   -1.6850 n2        1 FMY     -0.115000
     31 C31        -1.2340    2.2600    2.0680 c1        1 FMY      0.181000
     32 N31        -2.5520    2.8900    2.2250 n2        1 FMY     -0.310000
     33 N32        -1.0370    0.8610    2.4620 n2        1 FMY     -0.138000
     34 C33        -2.1490    0.0730    2.8670 c2        1 FMY      0.115000
     35 C34        -3.4740    0.6990    3.0260 c2        1 FMY     -0.299000
     36 C35        -3.6550    2.1250    2.6990 c2        1 FMY      0.043000
     37 F37         0.2620   -3.5000    5.1250 f         1 FMY     -0.105000
     38 H01        -1.7110    4.3370   -0.4230 ha        1 FMY      0.137500
     39 H02         1.1700    4.2810    2.5110 ha        1 FMY      0.158000
     40 H03        -0.0190    4.2440   -2.0850 ha        1 FMY      0.137500
     41 H04         2.8610    4.1870    0.8480 ha        1 FMY      0.158000
     42 H05         1.6610    1.6630   -1.5390 DU        1 FMY      0.207000
     43 H06        -0.4480   -1.1420    4.5630 ha        1 FMY      0.154000
     44 H07        -1.3510   -5.0790    3.7960 ha        1 FMY      0.152000
     45 H08        -3.4060   -2.0850    1.8650 ha        1 FMY      0.160000
     46 H09        -5.5300   -6.9190    2.6040 h1        1 FMY      0.095750
     47 H09A       -6.3340   -5.5720    2.2750 h1        1 FMY      0.095750
     48 H10        -3.8110   -7.3180    0.5390 h1        1 FMY      0.095750
     49 H10A       -4.0370   -6.1040   -0.4840 h1        1 FMY      0.095750
     50 H11         4.8780    2.3870   -7.4220 h1        1 FMY      0.096500
     51 H11A        4.8990    1.0580   -6.5310 h1        1 FMY      0.096500
     52 H12         6.7700    0.8900   -4.8520 h1        1 FMY      0.096500
     53 H12A        7.7840    2.1270   -4.8130 h1        1 FMY      0.096500
     54 H13        -4.8570   -4.6220    3.5730 h1        1 FMY      0.098750
     55 H13A       -3.8240   -5.8340    3.4230 h1        1 FMY      0.098750
     56 H14        -2.3170   -5.2110    0.5220 h1        1 FMY      0.098750
     57 H14A       -2.4820   -6.1460    1.8110 h1        1 FMY      0.098750
     58 H15         4.3000    3.6790   -5.6030 h1        1 FMY      0.099500
     59 H15A        3.2850    2.4420   -5.6430 h1        1 FMY      0.099500
     60 H16         6.1720    3.5110   -3.9230 h1        1 FMY      0.099500
     61 H16A        6.1930    2.1820   -3.0330 h1        1 FMY      0.099500
     62 HN31       -2.6630    3.7770    2.0210 hn        1 FMY      0.253000
     63 H34        -4.2320    0.1700    3.3530 ha        1 FMY      0.167000
     64 H35        -4.5360    2.5450    2.8030 h4        1 FMY      0.157000
@<TRIPOS>BOND
     1    1    3 1   
     2    1   38 1   
     3    2   23 1   
     4    2   39 1   
     5    3   40 1   
     6    4   26 1   
     7    4   41 1   
     8    5   17 1   
     9    5   30 1   
    10    6   24 1   
    11    6   43 1   
    12    7   22 1   
    13    7   44 1   
    14    8   25 1   
    15    8   45 1   
    16    9   13 1   
    17    9   20 1   
    18    9   46 1   
    19    9   47 1   
    20   10   14 1   
    21   10   20 1   
    22   10   48 1   
    23   10   49 1   
    24   11   15 1   
    25   11   21 1   
    26   11   50 1   
    27   11   51 1   
    28   12   16 1   
    29   12   21 1   
    30   12   52 1   
    31   12   53 1   
    32   13   28 1   
    33   13   54 1   
    34   13   55 1   
    35   14   28 1   
    36   14   56 1   
    37   14   57 1   
    38   15   29 1   
    39   15   58 1   
    40   15   59 1   
    41   16   29 1   
    42   16   60 1   
    43   16   61 1   
    44   17   27 1   
    45   18   27 1   
    46   18   30 1   
    47   19   31 1   
    48   22   37 1   
    49   24   34 1   
    50   25   28 1   
    51   31   33 1   
    52   32   36 1   
    53   32   62 1   
    54   33   34 1   
    55   34   35 1   
    56   35   36 1   
    57   35   63 1   
    58   36   64 1   
@<TRIPOS>SUBSTRUCTURE
     1 FMY         1 TEMP              0 ****  ****    0 ROOT
