@<TRIPOS>MOLECULE
FMY
   64    60     1     0     0
SMALL
bcc


@<TRIPOS>ATOM
      1 C01         1.3520   -0.8250   -1.1150 c1        1 FMY     -0.162000
      2 C02         0.1680   -0.3490    2.4670 c2        1 FMY     -0.197000
      3 C03         1.8140   -0.5650   -0.0400 c1        1 FMY     -0.153000
      4 C04         1.5940   -0.1870    2.3700 c2        1 FMY     -0.077000
      5 C05         4.5770    0.1420    0.1450 c2        1 FMY     -0.038000
      6 C06        -1.5510   -7.1180    4.7060 c1        1 FMY      0.095000
      7 C07        -0.5970   -6.2890    5.4040 c2        1 FMY     -0.228000
      8 C08        -0.6190   -3.8180    5.2130 c1        1 FMY     -0.054000
      9 C09         2.7310   -6.2310    8.7630 c1        1 FMY     -0.018000
     10 C10         3.6690   -2.0690    5.5930 c1        1 FMY     -0.231000
     11 C11         8.9250    1.5350   -0.0670 c3        1 FMY     -0.098000
     12 C12        10.3630   -2.2580    3.8400 c1        1 FMY     -0.231000
     13 C13         0.1960   -4.8620    7.9360 c3        1 FMY     -0.157000
     14 C14         3.7100   -2.8030    6.5370 c1        1 FMY     -0.231000
     15 C15         8.7500    0.1600    0.3460 c1        1 FMY     -0.115000
     16 C16         9.9930   -1.6000    2.9120 c1        1 FMY     -0.231000
     17 N17         5.8620    0.2630    0.5170 n2        1 FMY     -0.230000
     18 N18         4.5260   -0.1630    2.3900 n2        1 FMY     -0.152000
     19 O20         3.5570   -5.6750    7.9570 oh        1 FMY     -0.148000
     20 O21         9.3830    2.4000    0.9590 oh        1 FMY     -0.326000
     21 C22        -0.8760   -7.5210    5.9170 c2        1 FMY      0.004000
     22 C23        -0.7290   -0.0660    1.4930 c2        1 FMY     -0.048000
     23 C24        -1.7840   -3.8480    4.3500 c3        1 FMY     -0.212000
     24 C25         0.1600   -5.0390    5.5030 c3        1 FMY     -0.019000
     25 C26         2.3510   -0.2800    1.2400 c2        1 FMY      0.117000
     26 C27         5.8170    0.0780    1.9440 c2        1 FMY      0.019000
     27 N28         0.9710   -4.9680    6.7230 n3        1 FMY     -0.291000
     28 N29         6.9380    0.2340    2.7640 nh        1 FMY     -0.296000
     29 N30         3.7690   -0.1140    1.2680 na        1 FMY     -0.111000
     30 C31        -2.8430   -1.0020    2.1180 c2        1 FMY      0.026000
     31 N31        -7.9590    1.6790    1.5240 n2        1 FMY      0.015000
     32 N32        -2.5180   -2.2680    2.6440 n2        1 FMY     -0.216000
     33 C33        -2.0760   -2.4650    3.8300 c2        1 FMY      0.003000
     34 C34        -6.0440    0.0640    2.0320 c1        1 FMY      0.214000
     35 C35        -7.0160    0.8740    1.6970 c1        1 FMY     -0.384000
     36 H01        -0.3920    0.3270    0.5100 h4        1 FMY      0.155000
     37 H02        -0.1720   -0.6930    3.4620 ha        1 FMY      0.133000
     38 H03         0.9290   -1.0550   -2.0600 ha        1 FMY      0.233000
     39 H04         2.0860    0.0040    3.3440 ha        1 FMY      0.158000
     40 H05         4.1790    0.2230   -0.8740 h5        1 FMY      0.212000
     41 H06        -2.6630   -4.1680    4.9920 hc        1 FMY      0.153500
     42 H07         0.9140   -5.0470    4.6310 h1        1 FMY      0.171000
     43 H08        -1.7190   -4.6110    3.5200 hc        1 FMY      0.153500
     44 H09        -0.4140   -5.7960    8.0640 h1        1 FMY      0.087333
     45 H09A        0.9090   -4.7770    8.8030 h1        1 FMY      0.087333
     46 H10         3.6360   -1.4170    4.7540 ha        1 FMY      0.229750
     47 H10A        3.6410   -6.0650    7.0580 ho        1 FMY      0.155000
     48 H11         9.6800    1.6630   -0.8970 h1        1 FMY      0.133000
     49 H11A        7.9220    1.9140   -0.4420 h1        1 FMY      0.133000
     50 H12         8.9890    2.1030    1.7900 ho        1 FMY      0.217000
     51 H12A       10.6920   -2.8390    4.6640 ha        1 FMY      0.229750
     52 H13         2.1750   -7.1330    8.4160 ha        1 FMY      0.008000
     53 H13A       -0.4970   -3.9780    7.9520 h1        1 FMY      0.087333
     54 H14         3.7630   -3.4480    7.3810 ha        1 FMY      0.229750
     55 H14A        1.5890   -4.1740    6.6430 hn        1 FMY      0.183000
     56 H15         7.8090    0.0630    2.2880 hn        1 FMY      0.215500
     57 H15A        8.5470   -0.5760   -0.4410 ha        1 FMY      0.072000
     58 H16         6.8610   -0.2430    3.6380 hn        1 FMY      0.215500
     59 H16A        9.6660   -1.0130    2.0810 ha        1 FMY      0.229750
     60 HN31       -3.9550   -0.8430    2.0530 h5        1 FMY      0.204000
     61 H34        -1.8770   -1.6660    4.5790 h4        1 FMY      0.128000
     62 H35        -8.2470    1.8300    0.5720 hn        1 FMY      0.161000
     63 N19        -2.1180   -0.0850    1.5640 n2        1 FMY     -0.200000
     64 F37        -0.6270   -8.3690    6.8760 f         1 FMY     -0.016000
@<TRIPOS>BOND
     1    1    3 1   
     2    1   38 1   
     3    2    4 1   
     4    2   22 1   
     5    2   37 1   
     6    3   25 1   
     7    4   25 1   
     8    4   39 1   
     9    5   17 1   
    10    5   29 1   
    11    5   40 1   
    12    6    7 1   
    13    6   21 1   
    14    7   21 1   
    15    7   24 1   
    16    8   23 1   
    17    8   24 1   
    18    9   19 1   
    19    9   52 1   
    20   10   14 1   
    21   10   46 1   
    22   11   15 1   
    23   11   20 1   
    24   11   48 1   
    25   11   49 1   
    26   12   16 1   
    27   12   51 1   
    28   13   27 1   
    29   13   44 1   
    30   13   45 1   
    31   13   53 1   
    32   14   54 1   
    33   15   57 1   
    34   16   59 1   
    35   17   26 1   
    36   18   26 1   
    37   18   29 1   
    38   19   47 1   
    39   20   50 1   
    40   21   64 1   
    41   22   36 1   
    42   22   63 1   
    43   23   33 1   
    44   23   41 1   
    45   23   43 1   
    46   24   27 1   
    47   24   42 1   
    48   25   29 1   
    49   26   28 1   
    50   27   55 1   
    51   28   56 1   
    52   28   58 1   
    53   30   32 1   
    54   30   60 1   
    55   30   63 1   
    56   31   35 1   
    57   31   62 1   
    58   32   33 1   
    59   33   61 1   
    60   34   35 1   
@<TRIPOS>SUBSTRUCTURE
     1 FMY         1 TEMP              0 ****  ****    0 ROOT
