@<TRIPOS>MOLECULE
FMZ
   54    56     1     0     0
SMALL
bcc


@<TRIPOS>ATOM
      1 C14        -1.3390   -1.2390    1.0820 c3        1 FMZ     -0.011300
      2 C6         -4.3150   -0.0030   -1.0110 c3        1 FMZ      0.096100
      3 C12        -4.6520   -0.4450    0.4340 c3        1 FMZ      0.017500
      4 C13        -2.2900   -0.0500    0.7310 c3        1 FMZ      0.294600
      5 N1         -0.0680   -1.1030    0.4090 n         1 FMZ     -0.528900
      6 C3          1.0680   -0.6890    1.0420 c         1 FMZ      0.677100
      7 N3         -3.5780   -0.1550    1.3730 n3        1 FMZ     -0.803200
      8 C2         -6.0290    0.1920    0.8620 c         1 FMZ      0.928600
      9 O2         -6.0030    1.2250    1.5830 o         1 FMZ     -0.819800
     10 C1         -4.8370    1.3790   -1.3180 c3        1 FMZ     -0.083600
     11 S1         -2.4930    0.0510   -1.0770 ss        1 FMZ     -0.498200
     12 C15        -2.0240   -2.5720    0.8120 c         1 FMZ      0.576900
     13 O4         -1.5370   -3.4770    0.1320 o         1 FMZ     -0.545100
     14 O3          1.1180   -0.4500    2.2700 o         1 FMZ     -0.643100
     15 CAK         2.3290   -0.4890    0.1580 c3        1 FMZ      0.094800
     16 NAL         3.5020   -1.0300    0.8900 n3        1 FMZ     -0.522200
     17 NAI         4.7660   -0.7680    0.4550 n         1 FMZ     -0.269200
     18 CAU         5.4180    0.5530    0.6620 c3        1 FMZ     -0.012000
     19 CAV         6.3840    0.7540   -0.5370 c3        1 FMZ      0.047000
     20 NAO         6.0850   -0.3180   -1.4730 n         1 FMZ     -0.523900
     21 CAM         5.1550   -1.2220   -0.8790 c         1 FMZ      0.747500
     22 OAR         4.7690   -2.2620   -1.4300 o         1 FMZ     -0.588500
     23 CAS         2.3620    0.9630   -0.2380 ca        1 FMZ     -0.131300
     24 CAZ         2.2610    1.9690    0.7320 ca        1 FMZ     -0.112000
     25 CBC         2.2640    3.3100    0.3530 ca        1 FMZ     -0.134000
     26 CBD         2.3620    3.6560   -0.9960 ca        1 FMZ     -0.123000
     27 CBB         2.4560    2.6580   -1.9640 ca        1 FMZ     -0.134000
     28 CBA         2.4550    1.3140   -1.5890 ca        1 FMZ     -0.112000
     29 H14        -1.1520   -1.1980    2.2020 h1        1 FMZ      0.108700
     30 H12        -4.7930   -1.5650    0.4340 h1        1 FMZ      0.058700
     31 H13        -1.7570    0.8900    1.0480 h2        1 FMZ      0.066700
     32 HN1        -0.0660   -1.2880   -0.5690 hn        1 FMZ      0.337500
     33 HN3        -3.8000    0.6840    1.8850 hn        1 FMZ      0.403800
     34 H16        -4.6880   -0.6400   -3.0520 hc        1 FMZ      0.046700
     35 H16A       -4.3040   -1.9870   -1.8990 hc        1 FMZ      0.046700
     36 H16B       -5.9250   -1.1660   -1.8200 hc        1 FMZ      0.046700
     37 H1         -4.5560    2.0910   -0.5040 hc        1 FMZ      0.046700
     38 H1A        -4.4300    1.7480   -2.2900 hc        1 FMZ      0.046700
     39 H1B        -5.9550    1.3500   -1.3750 hc        1 FMZ      0.046700
     40 H15        -3.0110   -2.6800    1.3140 h4        1 FMZ      0.039200
     41 HAK         2.2590   -1.1250   -0.7770 h1        1 FMZ      0.100700
     42 HNAL        3.4460   -0.7140    1.8570 hn        1 FMZ      0.392800
     43 HAU         4.6860    1.4020    0.7230 h1        1 FMZ      0.067200
     44 HAUA        5.9870    0.4910    1.6260 h1        1 FMZ      0.067200
     45 HAV         6.1930    1.7370   -1.0440 h1        1 FMZ      0.051200
     46 HAVA        7.4510    0.7320   -0.1880 h1        1 FMZ      0.051200
     47 HNAO        6.8510   -0.7340   -1.9500 hn        1 FMZ      0.303500
     48 HAZ         2.1500    1.6890    1.7930 ha        1 FMZ      0.149500
     49 HBC         2.1720    4.0940    1.1180 ha        1 FMZ      0.132500
     50 HBD         2.3530    4.7140   -1.2940 ha        1 FMZ      0.128000
     51 HBB         2.5200    2.9260   -3.0290 ha        1 FMZ      0.132500
     52 HBA         2.5200    0.5300   -2.3600 ha        1 FMZ      0.149500
     53 O1         -7.0580   -0.3870    0.4300 o         1 FMZ     -0.819800
     54 C16        -4.8310   -1.0090   -2.0080 c3        1 FMZ     -0.083600
@<TRIPOS>BOND
     1    1    4 1   
     2    1    5 1   
     3    1   12 1   
     4    1   29 1   
     5    2    3 1   
     6    2   10 1   
     7    2   11 1   
     8    2   54 1   
     9    3    7 1   
    10    3    8 1   
    11    3   30 1   
    12    4    7 1   
    13    4   11 1   
    14    4   31 1   
    15    5    6 1   
    16    5   32 1   
    17    6   14 2   
    18    6   15 1   
    19    7   33 1   
    20    8    9 1   
    21    8   53 1   
    22   10   37 1   
    23   10   38 1   
    24   10   39 1   
    25   12   13 2   
    26   12   40 1   
    27   15   16 1   
    28   15   23 1   
    29   15   41 1   
    30   16   17 1   
    31   16   42 1   
    32   17   18 1   
    33   17   21 1   
    34   18   19 1   
    35   18   43 1   
    36   18   44 1   
    37   19   20 1   
    38   19   45 1   
    39   19   46 1   
    40   20   21 1   
    41   20   47 1   
    42   21   22 2   
    43   23   24 ar  
    44   23   28 ar  
    45   24   25 ar  
    46   24   48 1   
    47   25   26 ar  
    48   25   49 1   
    49   26   27 ar  
    50   26   50 1   
    51   27   28 ar  
    52   27   51 1   
    53   28   52 1   
    54   34   54 1   
    55   35   54 1   
    56   36   54 1   
@<TRIPOS>SUBSTRUCTURE
     1 FMZ         1 TEMP              0 ****  ****    0 ROOT
