@<TRIPOS>MOLECULE
FMZ
   56    55     1     0     0
SMALL
bcc


@<TRIPOS>ATOM
      1 C14         3.0040    2.0340    1.5710 c3        1 FMZ     -0.061000
      2 C6          1.8540   -1.4240    0.2540 c2        1 FMZ     -0.357000
      3 C12         1.6650   -0.4830   -0.9050 c3        1 FMZ     -0.021000
      4 C13         3.0890    0.7950    0.6350 c3        1 FMZ     -0.233000
      5 N1          3.3540    3.2560    0.8950 ns        1 FMZ     -0.376000
      6 C3          2.3800    4.0370    0.2860 c2        1 FMZ      0.316000
      7 N3          2.1700    0.8910   -0.5430 ny        1 FMZ     -0.024000
      8 C2          2.3960   -0.9950   -2.1470 c2        1 FMZ      0.340000
      9 O2          1.6010   -1.7830   -2.9050 os        1 FMZ     -0.293000
     10 S1          2.6670   -0.6910    1.5580 ss        1 FMZ      0.318000
     11 C15         3.8830    1.7260    2.7930 c2        1 FMZ      0.173000
     12 O4          4.7870    2.4650    3.1610 o         1 FMZ     -0.213000
     13 O3          1.2860    3.5100   -0.0230 o         1 FMZ     -0.417000
     14 CAK         2.6910    5.4730   -0.0760 c3        1 FMZ     -0.116000
     15 NAL         1.1240    1.0380   -3.6220 n2        1 FMZ     -0.137500
     16 NAI         0.4930    1.7830   -2.9270 n2        1 FMZ     -0.137500
     17 CAU         2.7810   -3.4590   -6.8960 c3        1 FMZ     -0.279000
     18 CAV         3.5490   -3.2820   -5.6650 c1        1 FMZ     -0.013000
     19 NAO         3.1740   -2.6840   -4.5560 ns        1 FMZ     -0.192000
     20 CAM         1.9380   -2.0470   -4.2740 c2        1 FMZ      0.347000
     21 OAR         1.0110   -1.7090   -5.0010 o         1 FMZ     -0.259000
     22 CAS         3.6940    6.1200    0.7820 c2        1 FMZ     -0.138000
     23 CAZ         5.1470    5.9220    0.6200 c2        1 FMZ     -0.188000
     24 CBC         5.8080    6.6980    1.5160 c2        1 FMZ     -0.094000
     25 CBD         4.8030    7.4660    2.3580 c3        1 FMZ     -0.179000
     26 CBB         5.1100    8.8850    2.4140 c1        1 FMZ      0.016000
     27 CBA         3.4760    7.0180    1.7830 c2        1 FMZ     -0.161000
     28 H14         2.6740    1.3060   -1.3410 hn        1 FMZ      0.291000
     29 H12         0.5590   -0.3930   -1.1550 hx        1 FMZ      0.200000
     30 H13         4.1420    0.6930    0.2390 hx        1 FMZ      0.182000
     31 HN1         1.9310    2.1080    1.9540 h1        1 FMZ      0.157000
     32 HN3         1.3630    1.5120   -0.3210 hn        1 FMZ      0.291000
     33 H16        -0.2780    2.6890    1.6030 hc        1 FMZ      0.071500
     34 H16A       -1.6800    2.3790    2.7130 hc        1 FMZ      0.071500
     35 H16B       -0.3190    1.1830    2.6290 hc        1 FMZ      0.071500
     36 H1          1.5160   -3.3610    1.0920 ha        1 FMZ      0.161500
     37 H1A        -0.0600    2.8040    3.4050 hc        1 FMZ      0.071500
     38 H1B         0.8380   -3.0850   -0.6230 ha        1 FMZ      0.161500
     39 H15         3.6000    0.7880    3.3210 h4        1 FMZ      0.139000
     40 HAK         1.7160    6.0360   -0.0380 hc        1 FMZ      0.139500
     41 HNAL        0.9320    0.9310   -4.6150 hn        1 FMZ      0.139500
     42 HAU        -0.2590    2.3550   -3.3040 hn        1 FMZ      0.139500
     43 HAUA        1.7440   -3.0340   -6.8970 hc        1 FMZ      0.127000
     44 HAV         3.3680   -2.9880   -7.7310 hc        1 FMZ      0.127000
     45 HAVA        2.7260   -4.5610   -7.1060 hc        1 FMZ      0.127000
     46 HNAO        3.8430   -2.6420   -3.8070 hn        1 FMZ      0.282000
     47 HAZ         5.5760    5.2660   -0.1370 ha        1 FMZ      0.148000
     48 HBC         6.8800    6.8220    1.6670 ha        1 FMZ      0.176000
     49 HBD         4.2500    9.5680    2.3140 ha        1 FMZ      0.050000
     50 HBB         4.8890    7.1150    3.4380 hc        1 FMZ      0.197000
     51 HBA         2.5260    7.4050    2.1500 ha        1 FMZ      0.155000
     52 O1          3.5510   -0.7310   -2.4720 o         1 FMZ     -0.325000
     53 C16        -0.5810    2.2630    2.5860 c3        1 FMZ     -0.283000
     54 H121        4.1950    3.7040    1.2060 hn        1 FMZ      0.269000
     55 HAL2        3.0430    5.4760   -1.1460 hc        1 FMZ      0.139500
     56 C1          1.3840   -2.6730    0.2420 c2        1 FMZ     -0.097000
@<TRIPOS>BOND
     1    1    4 1   
     2    1    5 1   
     3    1   11 1   
     4    1   31 1   
     5    2    3 1   
     6    2   10 1   
     7    2   56 1   
     8    3    7 1   
     9    3    8 1   
    10    3   29 1   
    11    4    7 1   
    12    4   10 1   
    13    4   30 1   
    14    5    6 1   
    15    5   54 1   
    16    6   13 1   
    17    6   14 1   
    18    7   28 1   
    19    7   32 1   
    20    8    9 1   
    21    8   52 1   
    22    9   20 1   
    23   11   12 1   
    24   11   39 1   
    25   14   22 1   
    26   14   40 1   
    27   14   55 1   
    28   15   16 1   
    29   15   41 1   
    30   16   42 1   
    31   17   18 1   
    32   17   43 1   
    33   17   44 1   
    34   17   45 1   
    35   18   19 1   
    36   19   20 1   
    37   19   46 1   
    38   20   21 1   
    39   22   23 1   
    40   22   27 1   
    41   23   24 1   
    42   23   47 1   
    43   24   25 1   
    44   24   48 1   
    45   25   26 1   
    46   25   27 1   
    47   25   50 1   
    48   26   49 1   
    49   27   51 1   
    50   33   53 1   
    51   34   53 1   
    52   35   53 1   
    53   36   56 1   
    54   37   53 1   
    55   38   56 1   
@<TRIPOS>SUBSTRUCTURE
     1 FMZ         1 TEMP              0 ****  ****    0 ROOT
