@<TRIPOS>MOLECULE
FMZ
   56    54     1     0     0
SMALL
bcc


@<TRIPOS>ATOM
      1 C14         0.1540    2.0620    0.3010 c3        1 FMZ     -0.008300
      2 C6          3.2060    0.3660    2.5720 c3        1 FMZ      0.033400
      3 C12         0.0960   -1.2450   -0.0670 ce        1 FMZ      0.324200
      4 C13         1.0120    0.8560    0.8160 c3        1 FMZ      0.004100
      5 N1          0.9620    3.2200    0.0490 n         1 FMZ     -0.551900
      6 C3          1.4330    3.5370   -1.2130 c         1 FMZ      0.696100
      7 N3          0.2290   -0.3800    0.8950 nh        1 FMZ     -0.177100
      8 C2          0.6910   -1.0940   -1.4700 c         1 FMZ      0.804300
      9 O2          1.8630   -0.6540   -1.6010 o         1 FMZ     -0.773300
     10 S1          1.6640    1.2760    2.4160 ss        1 FMZ     -0.277200
     11 C15        -1.0140    2.3570    1.2490 c         1 FMZ      0.569900
     12 O4         -1.7070    1.4480    1.7000 o         1 FMZ     -0.519100
     13 O3          1.1280    2.8390   -2.2070 o         1 FMZ     -0.681100
     14 CAK         2.2740    4.7920   -1.3660 c3        1 FMZ     -0.105200
     15 NAL         0.1290    1.3020   -4.3110 n2        1 FMZ     -0.143400
     16 NAI         1.0330    0.4930   -4.2070 n         1 FMZ     -0.185500
     17 CAU         5.4670    0.2270   -5.4230 c3        1 FMZ     -0.180000
     18 CAV         4.6950   -0.4130   -4.3670 c1        1 FMZ      0.025900
     19 NAO         3.4620   -0.2380   -3.9810 n         1 FMZ     -0.316500
     20 CAM         2.5250    0.7130   -4.5130 c         1 FMZ      0.634100
     21 OAR         2.7600    1.6880   -5.2260 o         1 FMZ     -0.480100
     22 CAS         3.4130    4.8600   -0.4000 ce        1 FMZ     -0.015900
     23 CAZ         4.6620    4.5360   -0.8030 cf        1 FMZ     -0.059000
     24 CBC         5.8780    4.5710   -0.0220 cf        1 FMZ     -0.163000
     25 CBD         5.9680    4.3950    1.2990 c2        1 FMZ     -0.169000
     26 CBB         2.8090    5.7680    1.9670 c1        1 FMZ     -0.110500
     27 CBA         3.0930    5.3350    0.8850 cg        1 FMZ     -0.196300
     28 H14         1.8560    0.6830    0.0760 h2        1 FMZ      0.162700
     29 H12         2.9870   -0.7260    2.4450 h1        1 FMZ      0.073700
     30 H13        -0.2740   -0.4850    1.7720 hn        1 FMZ      0.333700
     31 HN1        -0.3110    1.7440   -0.6900 h1        1 FMZ      0.118700
     32 HN3        -0.5200   -2.1590    0.1000 h4        1 FMZ      0.072800
     33 H16         4.5320    0.0490    4.2440 hc        1 FMZ      0.060533
     34 H16A        3.8650    1.7300    4.1320 hc        1 FMZ      0.060533
     35 H16B        2.8090    0.3680    4.7100 hc        1 FMZ      0.060533
     36 H1          3.9410    0.5560    0.5350 hc        1 FMZ      0.060533
     37 H1A         5.2070    0.2370    1.7860 hc        1 FMZ      0.060533
     38 H1B         4.4650    1.8850    1.6610 hc        1 FMZ      0.060533
     39 H15        -1.2210    3.4280    1.4640 h4        1 FMZ      0.048200
     40 HAK         1.5990    5.6820   -1.2300 hc        1 FMZ      0.095700
     41 HNAL        0.3970    2.2440   -4.6120 hn        1 FMZ      0.461400
     42 HAU         0.7710   -0.4560   -3.8340 hn        1 FMZ      0.439500
     43 HAUA        5.8120   -0.5740   -6.1310 hc        1 FMZ      0.094033
     44 HAV         4.9300    1.0230   -6.0020 hc        1 FMZ      0.094033
     45 HAVA        6.3840    0.6770   -4.9530 hc        1 FMZ      0.094033
     46 HNAO        3.1270   -0.7870   -3.1940 hn        1 FMZ      0.410500
     47 HAZ         4.8110    4.2220   -1.8550 ha        1 FMZ      0.131000
     48 HBC         6.7920    4.7440   -0.6210 ha        1 FMZ      0.139000
     49 HBD         2.5680    6.1610    2.9240 ha        1 FMZ      0.180500
     50 HBB         6.9350    4.4230    1.8210 ha        1 FMZ      0.122500
     51 HBA         5.0950    4.2130    1.9400 ha        1 FMZ      0.122500
     52 O1         -0.0700   -1.3950   -2.4240 o         1 FMZ     -0.773300
     53 C16         3.6200    0.6480    3.9940 c3        1 FMZ     -0.103600
     54 H121        1.3540    3.6840    0.8420 hn        1 FMZ      0.346500
     55 HAL2        2.6530    4.8110   -2.4240 hc        1 FMZ      0.095700
     56 C1          4.2550    0.7890    1.5820 c3        1 FMZ     -0.103600
@<TRIPOS>BOND
     1    1    4 1   
     2    1    5 1   
     3    1   11 1   
     4    1   31 1   
     5    2   10 1   
     6    2   29 1   
     7    2   53 1   
     8    2   56 1   
     9    3    7 2   
    10    3    8 1   
    11    3   32 1   
    12    4    7 1   
    13    4   10 1   
    14    4   28 1   
    15    5    6 1   
    16    5   54 1   
    17    6   13 2   
    18    6   14 1   
    19    7   30 1   
    20    8    9 1   
    21    8   52 1   
    22   11   12 2   
    23   11   39 1   
    24   14   22 1   
    25   14   40 1   
    26   14   55 1   
    27   15   16 2   
    28   15   41 1   
    29   16   20 1   
    30   16   42 1   
    31   17   18 1   
    32   17   43 1   
    33   17   44 1   
    34   17   45 1   
    35   18   19 3   
    36   19   20 1   
    37   19   46 1   
    38   20   21 2   
    39   22   23 2   
    40   22   27 1   
    41   23   24 1   
    42   23   47 1   
    43   24   25 2   
    44   24   48 1   
    45   25   50 1   
    46   25   51 1   
    47   26   27 3   
    48   26   49 1   
    49   33   53 1   
    50   34   53 1   
    51   35   53 1   
    52   36   56 1   
    53   37   56 1   
    54   38   56 1   
@<TRIPOS>SUBSTRUCTURE
     1 FMZ         1 TEMP              0 ****  ****    0 ROOT
