@<TRIPOS>MOLECULE
FMZ
   56    54     1     0     0
SMALL
bcc


@<TRIPOS>ATOM
      1 C14         2.5420    0.8900    0.0090 c3        1 FMZ      0.029000
      2 C6          1.3810    1.4300    3.4720 c2        1 FMZ     -0.240000
      3 C12         2.8320   -1.8830    1.1430 c3        1 FMZ     -0.253000
      4 C13         2.9870    0.5710    1.4000 c2        1 FMZ     -0.854000
      5 N1          3.0950    2.1840   -0.4160 n3        1 FMZ     -0.210000
      6 C3          2.8170    2.8520   -1.5280 c2        1 FMZ      0.356000
      7 N3          3.6440   -0.7120    1.5770 n4        1 FMZ      0.110000
      8 C2          1.5440   -1.9430    2.0340 c2        1 FMZ      0.340000
      9 O2          1.7520   -1.9380    3.2750 o         1 FMZ     -0.521000
     10 S1          2.7340    1.5480    2.6540 ss        1 FMZ      0.859000
     11 C15         1.0110    0.7830   -0.0860 c2        1 FMZ      0.181000
     12 O4          0.3040    1.7120   -0.4840 o         1 FMZ     -0.336000
     13 O3          1.9700    2.4470   -2.5030 os        1 FMZ     -0.205000
     14 CAK         3.3490    4.2390   -1.8210 c3        1 FMZ     -0.159000
     15 NAL        -1.0450    3.4140   -2.5110 n2        1 FMZ     -0.034000
     16 NAI        -0.5600    3.0470   -3.5360 n2        1 FMZ      0.016000
     17 CAU         3.1070    4.1540   -5.5880 c3        1 FMZ     -0.271000
     18 CAV         1.6470    1.0760   -2.5940 c1        1 FMZ      0.072000
     19 NAO         0.5970    0.8010   -3.3520 n         1 FMZ     -0.285000
     20 CAM        -0.3890    1.6480   -3.9900 c2        1 FMZ      0.214000
     21 OAR        -1.0150    1.1810   -4.9420 o         1 FMZ     -0.207000
     22 CAS         4.8720    4.3310   -1.8360 c3        1 FMZ      0.044000
     23 CAZ         5.4780    3.4770   -2.9030 c2        1 FMZ     -0.284000
     24 CBC         6.5490    2.6980   -2.6590 c2        1 FMZ     -0.160000
     25 CBD         7.2630    2.5950   -1.4600 c1        1 FMZ     -0.031000
     26 CBB         6.1480    3.8460    0.4200 c1        1 FMZ     -0.130000
     27 CBA         5.4900    4.0600   -0.5630 c1        1 FMZ     -0.221000
     28 H14         3.8220   -0.8450    2.5870 hn        1 FMZ      0.231500
     29 H12         2.5560   -1.7870    0.0630 hx        1 FMZ      0.129000
     30 H13         4.5350   -0.6970    1.0760 hn        1 FMZ      0.231500
     31 HN1         2.9300    0.1240   -0.7410 h1        1 FMZ      0.163000
     32 HN3         3.4380   -2.8140    1.3040 hx        1 FMZ      0.129000
     33 H16        -0.7010    0.9840    3.7770 hc        1 FMZ      0.152000
     34 H16A        0.0310    0.2460    2.2670 hc        1 FMZ      0.152000
     35 H16B        0.4360   -0.4360    3.8680 hc        1 FMZ      0.152000
     36 H1          0.4130    3.0650    4.4690 hc        1 FMZ      0.152000
     37 H1A         1.1500    1.8260    5.5620 hc        1 FMZ      0.152000
     38 H1B         2.2200    3.0200    4.6960 hc        1 FMZ      0.152000
     39 H15         0.6200   -0.2220    0.2310 h4        1 FMZ      0.226000
     40 HAK         2.9220    4.9410   -1.0540 hc        1 FMZ      0.161000
     41 HNAL       -1.3990    2.7880   -1.7910 hn        1 FMZ      0.168000
     42 HAU         3.4500    5.1090   -5.1310 hc        1 FMZ      0.068500
     43 HAUA        2.7040    3.4850   -4.7950 hc        1 FMZ      0.068500
     44 HAV         3.9620    3.6570   -6.0960 hc        1 FMZ      0.068500
     45 HAVA        2.3080    4.3680   -6.3310 hc        1 FMZ      0.068500
     46 HNAO        0.4810   -0.1810   -3.5660 hn        1 FMZ      0.292000
     47 HAZ         5.0510    3.5960   -3.9100 ha        1 FMZ      0.157000
     48 HBC         7.0480    2.1610   -3.4990 ha        1 FMZ      0.193000
     49 HBD         6.7290    3.7020    1.3010 ha        1 FMZ      0.249000
     50 HBB         7.2050    1.7450   -0.7790 ha        1 FMZ      0.099000
     51 HBA         5.1060    5.4150   -2.1000 hc        1 FMZ      0.161000
     52 O1          0.4450   -1.8750    1.4360 o         1 FMZ     -0.521000
     53 C16         0.2290    0.5510    3.3300 c3        1 FMZ     -0.260000
     54 H121        3.7500    2.6070    0.2260 hn        1 FMZ      0.281000
     55 HAL2        2.9640    4.5500   -2.8370 hc        1 FMZ      0.161000
     56 C1          1.3000    2.3900    4.6010 c3        1 FMZ     -0.260000
@<TRIPOS>BOND
     1    1    4 1   
     2    1    5 1   
     3    1   11 1   
     4    1   31 1   
     5    2   10 1   
     6    2   53 1   
     7    2   56 1   
     8    3    7 1   
     9    3    8 1   
    10    3   29 1   
    11    3   32 1   
    12    4    7 1   
    13    4   10 1   
    14    5    6 1   
    15    5   54 1   
    16    6   13 1   
    17    6   14 1   
    18    7   28 1   
    19    7   30 1   
    20    8    9 1   
    21    8   52 1   
    22   11   12 1   
    23   11   39 1   
    24   13   18 1   
    25   14   22 1   
    26   14   40 1   
    27   14   55 1   
    28   15   16 1   
    29   15   41 1   
    30   16   20 1   
    31   17   42 1   
    32   17   43 1   
    33   17   44 1   
    34   17   45 1   
    35   18   19 1   
    36   19   20 1   
    37   19   46 1   
    38   20   21 1   
    39   22   23 1   
    40   22   27 1   
    41   22   51 1   
    42   23   24 1   
    43   23   47 1   
    44   24   25 1   
    45   24   48 1   
    46   25   50 1   
    47   26   27 1   
    48   26   49 1   
    49   33   53 1   
    50   34   53 1   
    51   35   53 1   
    52   36   56 1   
    53   37   56 1   
    54   38   56 1   
@<TRIPOS>SUBSTRUCTURE
     1 FMZ         1 TEMP              0 ****  ****    0 ROOT
