@<TRIPOS>MOLECULE
FMZ
   54    54     1     0     0
SMALL
bcc


@<TRIPOS>ATOM
      1 C14        -0.8960   -1.1670    0.8840 c3        1 FMZ     -0.042000
      2 C6         -0.2290   -2.4760    4.3700 c3        1 FMZ     -0.088000
      3 C12         1.1680   -2.9740    3.6740 c3        1 FMZ     -0.120000
      4 C13        -0.1470   -1.2900    2.3270 c3        1 FMZ     -0.111000
      5 N1         -0.4390   -0.0310    0.2160 n         1 FMZ     -0.329000
      6 C3          0.0790   -0.1430   -1.1290 c2        1 FMZ      0.277000
      7 N3          0.9130   -2.5930    2.3090 n3        1 FMZ     -0.251000
      8 O1          2.8320   -1.3180    3.8020 o         1 FMZ     -0.563500
      9 C2          2.3740   -2.4000    4.2510 c2        1 FMZ      0.349000
     10 O2          2.9850   -3.0100    5.1710 o         1 FMZ     -0.563500
     11 C16         0.0740   -1.6670    5.6260 c3        1 FMZ     -0.201500
     12 C1         -1.0900   -3.6760    4.7200 c3        1 FMZ     -0.201500
     13 S1         -1.0130   -1.5180    3.2490 ss        1 FMZ     -0.174000
     14 C15        -2.3390   -1.0630    1.0920 c2        1 FMZ      0.187000
     15 O4         -2.7870   -0.2090    1.8310 o         1 FMZ     -0.290000
     16 O3          0.5040   -1.2110   -1.5300 o         1 FMZ     -0.385000
     17 CAK         0.0670    1.0660   -2.0530 c3        1 FMZ     -0.044000
     18 NAL        -0.4440    0.6890   -3.3180 n3        1 FMZ     -0.132000
     19 NAI        -1.5150    1.5160   -3.6530 n         1 FMZ     -0.210000
     20 CAU        -1.6560    2.2400   -4.8640 c3        1 FMZ     -0.127000
     21 CAV        -3.0050    2.8770   -4.8370 c3        1 FMZ     -0.080000
     22 NAO        -3.5390    2.6630   -3.5470 n         1 FMZ     -0.340000
     23 CAM        -2.7160    1.6910   -2.8830 c2        1 FMZ      0.351000
     24 OAR        -2.9630    1.1570   -1.8180 o         1 FMZ     -0.352000
     25 CAS         1.4810    1.5930   -2.2150 c2        1 FMZ     -0.115000
     26 CAZ         2.3210    1.0460   -3.1780 c2        1 FMZ     -0.113000
     27 CBC         3.6190    1.5080   -3.3080 c1        1 FMZ     -0.110000
     28 CBD         4.0830    2.5190   -2.4770 c1        1 FMZ     -0.138000
     29 CBB         3.2440    3.0660   -1.5140 c1        1 FMZ     -0.138000
     30 CBA         1.9430    2.6030   -1.3840 c1        1 FMZ     -0.105000
     31 H14        -0.7010   -1.9630    0.3460 h1        1 FMZ      0.139000
     32 H12         1.3240   -3.9370    3.7780 h1        1 FMZ      0.107000
     33 H13         0.3420   -0.4620    2.5230 h2        1 FMZ      0.177000
     34 HN1        -0.4220    0.7700    0.6440 hn        1 FMZ      0.231000
     35 HN3         0.5300   -3.2900    1.8650 hn        1 FMZ      0.154000
     36 H16         0.6040   -0.8700    5.3850 hc        1 FMZ      0.083000
     37 H16A        0.5870   -2.2230    6.2590 hc        1 FMZ      0.083000
     38 H16B       -0.7680   -1.3860    6.0450 hc        1 FMZ      0.083000
     39 H1         -0.5510   -4.3320    5.2160 hc        1 FMZ      0.083000
     40 H1A        -1.4280   -4.0870    3.8960 hc        1 FMZ      0.083000
     41 H1B        -1.8470   -3.3860    5.2760 hc        1 FMZ      0.083000
     42 H15        -2.9410   -1.7010    0.6630 h4        1 FMZ      0.121000
     43 HAK        -0.4970    1.7620   -1.6690 h1        1 FMZ      0.126000
     44 HNAL        0.2120    0.7710   -3.9480 hn        1 FMZ      0.182000
     45 HAU        -1.0030    2.9700   -4.8300 h1        1 FMZ      0.116000
     46 HAUA       -1.6740    1.5760   -5.5860 h1        1 FMZ      0.116000
     47 HAV        -2.8610    3.8370   -4.9220 h1        1 FMZ      0.127000
     48 HAVA       -3.5620    2.3710   -5.4540 h1        1 FMZ      0.127000
     49 HNAO       -4.3510    2.9490   -3.2590 hn        1 FMZ      0.219000
     50 HAZ         1.9950    0.3340   -3.7630 ha        1 FMZ      0.191000
     51 HBC         4.2110    1.1230   -3.9870 ha        1 FMZ      0.168000
     52 HBD         4.9880    2.8770   -2.5980 ha        1 FMZ      0.119000
     53 HBB         3.5680    3.7750   -0.9320 ha        1 FMZ      0.119000
     54 HBA         1.3340    3.0340   -0.7590 ha        1 FMZ      0.128000
@<TRIPOS>BOND
     1    1    4 1   
     2    1    5 1   
     3    1   14 1   
     4    1   31 1   
     5    2    3 1   
     6    2   11 1   
     7    2   12 1   
     8    2   13 1   
     9    3    7 1   
    10    3    9 1   
    11    3   32 1   
    12    4    7 1   
    13    4   13 1   
    14    4   33 1   
    15    5    6 1   
    16    5   34 1   
    17    6   16 1   
    18    6   17 1   
    19    7   35 1   
    20    8    9 1   
    21    9   10 1   
    22   11   36 1   
    23   11   37 1   
    24   11   38 1   
    25   12   39 1   
    26   12   40 1   
    27   12   41 1   
    28   14   15 1   
    29   14   42 1   
    30   17   18 1   
    31   17   25 1   
    32   17   43 1   
    33   18   19 1   
    34   18   44 1   
    35   19   20 1   
    36   19   23 1   
    37   20   21 1   
    38   20   45 1   
    39   20   46 1   
    40   21   22 1   
    41   21   47 1   
    42   21   48 1   
    43   22   23 1   
    44   22   49 1   
    45   23   24 1   
    46   25   26 1   
    47   25   30 1   
    48   26   27 1   
    49   26   50 1   
    50   27   51 1   
    51   28   29 1   
    52   28   52 1   
    53   29   53 1   
    54   30   54 1   
@<TRIPOS>SUBSTRUCTURE
     1 FMZ         1 TEMP              0 ****  ****    0 ROOT
