@<TRIPOS>MOLECULE
FN1
   26    27     1     0     0
SMALL
bcc


@<TRIPOS>ATOM
      1 F13        -0.0310   -0.1760    0.1510 f         1 FN1     -0.133900
      2 C4          1.3170   -0.0890    0.1060 ca        1 FN1      0.003600
      3 C3          2.0770   -0.0760    1.2900 ca        1 FN1     -0.134000
      4 C2          3.4670    0.0200    1.1870 ca        1 FN1     -0.161600
      5 C1          4.0430    0.0900   -0.1010 ca        1 FN1      0.406200
      6 N1          3.3240    0.0760   -1.2390 nb        1 FN1     -0.647000
      7 C5          1.9880   -0.0100   -1.1420 ca        1 FN1      0.363200
      8 C6          4.3110    0.0650    2.4290 c3        1 FN1      0.220800
      9 C7          4.8000    1.5100    2.7000 c3        1 FN1     -0.084400
     10 C8          6.2670    1.3920    3.0870 c3        1 FN1     -0.093400
     11 C9          6.6660   -0.0630    2.8040 c3        1 FN1      0.160800
     12 N2          5.4970   -0.8080    2.3360 n3        1 FN1     -0.729600
     13 C10         5.3240   -2.0940    2.9610 c3        1 FN1      0.158100
     14 H3          1.5770   -0.1410    2.2670 ha        1 FN1      0.151000
     15 H1          5.1400    0.1530   -0.2240 h4        1 FN1      0.041100
     16 H5          1.4180   -0.0200   -2.0870 h4        1 FN1      0.036100
     17 H6          3.6590   -0.2550    3.3000 h1        1 FN1      0.040700
     18 H72         4.1950    1.9700    3.5180 hc        1 FN1      0.054700
     19 H71         4.6810    2.1400    1.7850 hc        1 FN1      0.054700
     20 H81         6.8980    2.0950    2.4910 hc        1 FN1      0.049700
     21 H82         6.4160    1.6340    4.1680 hc        1 FN1      0.049700
     22 H91         7.1220   -0.5250    3.7230 h1        1 FN1      0.044200
     23 H92         7.4330   -0.1080    1.9830 h1        1 FN1      0.044200
     24 H103        4.4470   -2.6100    2.4870 h1        1 FN1      0.034700
     25 H102        5.1490   -2.0400    4.0710 h1        1 FN1      0.034700
     26 H101        6.2460   -2.7050    2.7760 h1        1 FN1      0.034700
@<TRIPOS>BOND
     1    1    2 1   
     2    2    3 ar  
     3    2    7 ar  
     4    3    4 ar  
     5    3   14 1   
     6    4    5 ar  
     7    4    8 1   
     8    5    6 ar  
     9    5   15 1   
    10    6    7 ar  
    11    7   16 1   
    12    8    9 1   
    13    8   12 1   
    14    8   17 1   
    15    9   10 1   
    16    9   18 1   
    17    9   19 1   
    18   10   11 1   
    19   10   20 1   
    20   10   21 1   
    21   11   12 1   
    22   11   22 1   
    23   11   23 1   
    24   12   13 1   
    25   13   24 1   
    26   13   25 1   
    27   13   26 1   
@<TRIPOS>SUBSTRUCTURE
     1 FN1         1 TEMP              0 ****  ****    0 ROOT
