@<TRIPOS>MOLECULE
FN1
   26    27     1     0     0
SMALL
bcc


@<TRIPOS>ATOM
      1 F13        -0.0320   -0.1620    0.1510 f         1 FN1     -0.133900
      2 C4          1.3160   -0.0780    0.1060 ca        1 FN1      0.003600
      3 C3          2.0770   -0.0690    1.2900 ca        1 FN1     -0.134000
      4 C2          3.4670    0.0230    1.1870 ca        1 FN1     -0.161600
      5 C1          4.0430    0.0930   -0.1010 ca        1 FN1      0.406200
      6 N1          3.3250    0.0810   -1.2390 nb        1 FN1     -0.647000
      7 C5          1.9880   -0.0010   -1.1420 ca        1 FN1      0.363200
      8 C6          4.3120    0.0650    2.4290 c3        1 FN1      0.220800
      9 C7          4.8050    1.5080    2.7020 c3        1 FN1     -0.084400
     10 C8          6.2710    1.3850    3.0880 c3        1 FN1     -0.093400
     11 C9          6.6660   -0.0710    2.8040 c3        1 FN1      0.160800
     12 N2          5.4940   -0.8120    2.3360 n3        1 FN1     -0.729600
     13 C10         5.3170   -2.0980    2.9600 c3        1 FN1      0.158100
     14 H3          1.5760   -0.1330    2.2670 ha        1 FN1      0.151000
     15 H1          5.1400    0.1530   -0.2240 h4        1 FN1      0.041100
     16 H5          1.4180   -0.0080   -2.0870 h4        1 FN1      0.036100
     17 H6          3.6580   -0.2540    3.2990 h1        1 FN1      0.040700
     18 H72         4.6870    2.1390    1.7870 hc        1 FN1      0.054700
     19 H71         4.2020    1.9690    3.5200 hc        1 FN1      0.054700
     20 H81         6.9040    2.0870    2.4930 hc        1 FN1      0.049700
     21 H82         6.4210    1.6260    4.1690 hc        1 FN1      0.049700
     22 H91         7.1210   -0.5350    3.7220 h1        1 FN1      0.044200
     23 H92         7.4320   -0.1170    1.9820 h1        1 FN1      0.044200
     24 H103        4.4390   -2.6100    2.4860 h1        1 FN1      0.034700
     25 H102        6.2380   -2.7110    2.7740 h1        1 FN1      0.034700
     26 H101        5.1430   -2.0440    4.0700 h1        1 FN1      0.034700
@<TRIPOS>BOND
     1    1    2 1   
     2    2    3 ar  
     3    2    7 ar  
     4    3    4 ar  
     5    3   14 1   
     6    4    5 ar  
     7    4    8 1   
     8    5    6 ar  
     9    5   15 1   
    10    6    7 ar  
    11    7   16 1   
    12    8    9 1   
    13    8   12 1   
    14    8   17 1   
    15    9   10 1   
    16    9   18 1   
    17    9   19 1   
    18   10   11 1   
    19   10   20 1   
    20   10   21 1   
    21   11   12 1   
    22   11   22 1   
    23   11   23 1   
    24   12   13 1   
    25   13   24 1   
    26   13   25 1   
    27   13   26 1   
@<TRIPOS>SUBSTRUCTURE
     1 FN1         1 TEMP              0 ****  ****    0 ROOT
