@<TRIPOS>MOLECULE
FNA
   30    32     1     0     0
SMALL
bcc


@<TRIPOS>ATOM
      1 C1          3.9130    0.7320    1.0260 ca        1 FNA     -0.104000
      2 N1          0.7180   -0.8200   -0.0880 nh        1 FNA     -0.626000
      3 C2          2.5490    0.4940    0.8940 ca        1 FNA     -0.171000
      4 C3          4.8400    0.0060    0.2800 ca        1 FNA     -0.157000
      5 C4          2.0830   -0.4900   -0.0080 ca        1 FNA      0.142600
      6 C5          4.3920   -0.9700   -0.6080 ca        1 FNA     -0.104000
      7 C6          3.0330   -1.2190   -0.7620 ca        1 FNA     -0.171000
      8 C7         -1.6660   -0.2540   -0.0150 ca        1 FNA     -0.053000
      9 C8         -2.6880    0.7260   -0.1080 ca        1 FNA     -0.016000
     10 C9         -0.2900    0.1580   -0.1880 ca        1 FNA      0.155600
     11 C10        -2.3550    2.0870   -0.3450 ca        1 FNA     -0.149000
     12 C11        -0.0110    1.5000   -0.4300 ca        1 FNA     -0.190000
     13 C12        -1.0440    2.4570   -0.4950 ca        1 FNA     -0.098000
     14 C13        -4.3800   -0.9740    0.2870 ca        1 FNA     -0.122000
     15 C14        -4.0480    0.3350    0.0440 ca        1 FNA     -0.123000
     16 C15        -2.0420   -1.6000    0.2510 ca        1 FNA     -0.112000
     17 C16        -3.3620   -1.9500    0.3970 ca        1 FNA     -0.135000
     18 H1          4.2600    1.5000    1.7340 ha        1 FNA      0.132000
     19 HN1         0.5270   -1.6480   -0.6150 hn        1 FNA      0.417800
     20 H2          1.8320    1.0670    1.5010 ha        1 FNA      0.138000
     21 H3          5.9150    0.2000    0.3930 ha        1 FNA      0.133000
     22 H5          5.1180   -1.5490   -1.1990 ha        1 FNA      0.132000
     23 H6          2.7040   -1.9940   -1.4700 ha        1 FNA      0.138000
     24 H110       -3.1650    2.8280   -0.4040 ha        1 FNA      0.134000
     25 H11         1.0250    1.8410   -0.5820 ha        1 FNA      0.144000
     26 H112       -0.7750    3.5090   -0.6800 ha        1 FNA      0.133000
     27 H13        -5.4300   -1.2770    0.4040 ha        1 FNA      0.133000
     28 H14        -4.8260    1.1090   -0.0380 ha        1 FNA      0.133000
     29 H15        -1.2720   -2.3780    0.3630 ha        1 FNA      0.133000
     30 H16        -3.6430   -2.9930    0.6050 ha        1 FNA      0.132000
@<TRIPOS>BOND
     1    1    3 ar  
     2    1    4 ar  
     3    1   18 1   
     4    2    5 1   
     5    2   10 1   
     6    2   19 1   
     7    3    5 ar  
     8    3   20 1   
     9    4    6 ar  
    10    4   21 1   
    11    5    7 ar  
    12    6    7 ar  
    13    6   22 1   
    14    7   23 1   
    15    8    9 ar  
    16    8   10 ar  
    17    8   16 ar  
    18    9   11 ar  
    19    9   15 ar  
    20   10   12 ar  
    21   11   13 ar  
    22   11   24 1   
    23   12   13 ar  
    24   12   25 1   
    25   13   26 1   
    26   14   15 ar  
    27   14   17 ar  
    28   14   27 1   
    29   15   28 1   
    30   16   17 ar  
    31   16   29 1   
    32   17   30 1   
@<TRIPOS>SUBSTRUCTURE
     1 FNA         1 TEMP              0 ****  ****    0 ROOT
