@<TRIPOS>MOLECULE
FNA
   31    33     1     0     0
SMALL
bcc


@<TRIPOS>ATOM
      1 C1         -0.1870   -0.6420    0.1550 ca        1 FNA     -0.105000
      2 N1          3.4560   -0.2980    0.9960 n4        1 FNA     -0.492800
      3 C2          1.1990   -0.7460    0.0620 ca        1 FNA     -0.102000
      4 C3         -0.7750    0.0430    1.2200 ca        1 FNA     -0.073000
      5 C4          1.9980   -0.1540    1.0560 ca        1 FNA     -0.056400
      6 C5          0.0240    0.6330    2.2010 ca        1 FNA     -0.105000
      7 C6          1.4130    0.5420    2.1290 ca        1 FNA     -0.102000
      8 C7          5.6020    0.6520    0.1810 ca        1 FNA     -0.019000
      9 C8          6.2940    1.6720   -0.5260 ca        1 FNA     -0.039000
     10 C9          4.1720    0.7570    0.2640 ca        1 FNA     -0.070400
     11 C10         5.5720    2.7430   -1.1180 ca        1 FNA     -0.044000
     12 C11         3.4900    1.8110   -0.3210 ca        1 FNA     -0.046000
     13 C12         4.2040    2.8090   -1.0170 ca        1 FNA     -0.142000
     14 C13         8.4110    0.5740   -0.0610 ca        1 FNA     -0.115000
     15 C14         7.7110    1.6080   -0.6330 ca        1 FNA     -0.086000
     16 C15         6.3520   -0.4050    0.7620 ca        1 FNA     -0.180000
     17 C16         7.7230   -0.4420    0.6430 ca        1 FNA     -0.062000
     18 H1         -0.8190   -1.1070   -0.6200 ha        1 FNA      0.171000
     19 HN1         3.8240   -0.3160    1.9580 hn        1 FNA      0.456800
     20 H2          1.6470   -1.2890   -0.7870 ha        1 FNA      0.159000
     21 H3         -1.8740    0.1180    1.2870 ha        1 FNA      0.171000
     22 H5         -0.4410    1.1740    3.0420 ha        1 FNA      0.171000
     23 H6          2.0290    1.0150    2.9110 ha        1 FNA      0.159000
     24 H110        6.1340    3.5230   -1.6620 ha        1 FNA      0.165000
     25 H11         2.3910    1.8950   -0.2600 ha        1 FNA      0.163000
     26 H112        3.6410    3.6390   -1.4750 ha        1 FNA      0.169000
     27 H13         9.5090    0.5220   -0.1430 ha        1 FNA      0.164000
     28 H14         8.2340    2.4060   -1.1850 ha        1 FNA      0.159000
     29 H15         5.8570   -1.2150    1.3180 ha        1 FNA      0.116000
     30 H16         8.3000   -1.2650    1.0960 ha        1 FNA      0.158000
     31 H12         3.6780   -1.1980    0.5440 hn        1 FNA      0.456800
@<TRIPOS>BOND
     1    1    3 ar  
     2    1    4 ar  
     3    1   18 1   
     4    2    5 1   
     5    2   10 1   
     6    2   19 1   
     7    2   31 1   
     8    3    5 ar  
     9    3   20 1   
    10    4    6 ar  
    11    4   21 1   
    12    5    7 ar  
    13    6    7 ar  
    14    6   22 1   
    15    7   23 1   
    16    8    9 ar  
    17    8   10 ar  
    18    8   16 ar  
    19    9   11 ar  
    20    9   15 ar  
    21   10   12 ar  
    22   11   13 ar  
    23   11   24 1   
    24   12   13 ar  
    25   12   25 1   
    26   13   26 1   
    27   14   15 ar  
    28   14   17 ar  
    29   14   27 1   
    30   15   28 1   
    31   16   17 ar  
    32   16   29 1   
    33   17   30 1   
@<TRIPOS>SUBSTRUCTURE
     1 FNA         1 TEMP              0 ****  ****    0 ROOT
