@<TRIPOS>MOLECULE
FNA
   30    32     1     0     0
SMALL
bcc


@<TRIPOS>ATOM
      1 C1         -0.0940   -0.2070    0.0260 ca        1 FNA     -0.104000
      2 N1          3.4330    0.1070    1.1740 nh        1 FNA     -0.626000
      3 C2          1.2890   -0.0700   -0.0150 ca        1 FNA     -0.171000
      4 C3         -0.7740   -0.2160    1.2440 ca        1 FNA     -0.157000
      5 C4          2.0260    0.0680    1.1820 ca        1 FNA      0.142600
      6 C5         -0.0570   -0.0860    2.4310 ca        1 FNA     -0.104000
      7 C6          1.3260    0.0600    2.4120 ca        1 FNA     -0.171000
      8 C7          5.5870    0.7280    0.1820 ca        1 FNA     -0.053000
      9 C8          6.3260    1.5520   -0.7050 ca        1 FNA     -0.016000
     10 C9          4.1590    0.9340    0.2950 ca        1 FNA      0.155600
     11 C10         5.6650    2.5420   -1.4800 ca        1 FNA     -0.149000
     12 C11         3.5550    1.9230   -0.4750 ca        1 FNA     -0.190000
     13 C12         4.3090    2.7130   -1.3660 ca        1 FNA     -0.098000
     14 C13         8.3800    0.4110   -0.0830 ca        1 FNA     -0.122000
     15 C14         7.7340    1.3730   -0.8160 ca        1 FNA     -0.123000
     16 C15         6.2840   -0.2690    0.9190 ca        1 FNA     -0.112000
     17 C16         7.6440   -0.4230    0.7900 ca        1 FNA     -0.135000
     18 H1         -0.6540   -0.3150   -0.9150 ha        1 FNA      0.132000
     19 HN1         3.8500    0.0190    2.0780 hn        1 FNA      0.417800
     20 H2          1.8110   -0.0790   -0.9850 ha        1 FNA      0.138000
     21 H3         -1.8670   -0.3270    1.2660 ha        1 FNA      0.133000
     22 H5         -0.5860   -0.0940    3.3960 ha        1 FNA      0.132000
     23 H6          1.8710    0.1620    3.3630 ha        1 FNA      0.138000
     24 H110        6.2600    3.1610   -2.1670 ha        1 FNA      0.134000
     25 H11         2.4730    2.1130   -0.3990 ha        1 FNA      0.144000
     26 H112        3.7880    3.4770   -1.9610 ha        1 FNA      0.133000
     27 H13         9.4680    0.2730   -0.1670 ha        1 FNA      0.133000
     28 H14         8.2900    2.0260   -1.5060 ha        1 FNA      0.133000
     29 H15         5.7360   -0.9470    1.5900 ha        1 FNA      0.133000
     30 H16         8.1740   -1.1990    1.3620 ha        1 FNA      0.132000
@<TRIPOS>BOND
     1    1    3 ar  
     2    1    4 ar  
     3    1   18 1   
     4    2    5 1   
     5    2   10 1   
     6    2   19 1   
     7    3    5 ar  
     8    3   20 1   
     9    4    6 ar  
    10    4   21 1   
    11    5    7 ar  
    12    6    7 ar  
    13    6   22 1   
    14    7   23 1   
    15    8    9 ar  
    16    8   10 ar  
    17    8   16 ar  
    18    9   11 ar  
    19    9   15 ar  
    20   10   12 ar  
    21   11   13 ar  
    22   11   24 1   
    23   12   13 ar  
    24   12   25 1   
    25   13   26 1   
    26   14   15 ar  
    27   14   17 ar  
    28   14   27 1   
    29   15   28 1   
    30   16   17 ar  
    31   16   29 1   
    32   17   30 1   
@<TRIPOS>SUBSTRUCTURE
     1 FNA         1 TEMP              0 ****  ****    0 ROOT
