@<TRIPOS>MOLECULE
FNA
   30    26     1     0     0
SMALL
bcc


@<TRIPOS>ATOM
      1 C1         -2.2990   -2.6140   -1.6930 cg        1 FNA     -0.132300
      2 N1         -0.1050   -1.1800    0.9130 nh        1 FNA     -0.611800
      3 C2         -1.1640   -2.1690   -1.0350 ce        1 FNA     -0.141700
      4 C3         -3.5430   -2.4800   -1.0960 ch        1 FNA     -0.198300
      5 C4         -1.2710   -1.5880    0.2190 cf        1 FNA      0.137000
      6 C5         -3.6510   -1.8990    0.1570 cf        1 FNA     -0.066700
      7 C6         -2.5150   -1.4530    0.8150 cf        1 FNA     -0.183000
      8 C7          0.9620    1.1170    0.3390 cg        1 FNA     -0.064300
      9 C8          2.1880    1.6770    0.0680 c1        1 FNA      0.034100
     10 C9          0.8050   -0.2810    0.3030 ce        1 FNA      0.160300
     11 C10         3.2850    0.8520   -0.2440 c1        1 FNA     -0.062900
     12 C11         1.8870   -1.0940   -0.0060 cf        1 FNA     -0.169000
     13 C12         3.1280   -0.5280   -0.2790 cf        1 FNA     -0.177100
     14 C13         1.2680    3.8880    0.4310 cg        1 FNA     -0.154300
     15 C14         2.3480    3.0750    0.1130 ce        1 FNA     -0.155800
     16 C15        -0.1320    1.9420    0.6600 c1        1 FNA     -0.045500
     17 C16         0.0270    3.3210    0.7040 c1        1 FNA     -0.078500
     18 H1         -2.2230   -3.0230   -2.5760 DU        1 FNA      0.132500
     19 HN1         0.0680   -1.5070    1.7460 hn        1 FNA      0.403800
     20 H2         -0.2870   -2.2640   -1.4560 ha        1 FNA      0.146000
     21 H3         -4.3420   -2.7940   -1.5590 DU        1 FNA      0.132500
     22 H5         -4.5260   -1.8040    0.5770 ha        1 FNA      0.130000
     23 H6         -2.5910   -1.0440    1.6980 ha        1 FNA      0.131000
     24 H110        4.1550    1.2490   -0.4360 DU        1 FNA      0.132500
     25 H11         1.7770   -2.0640   -0.0300 ha        1 FNA      0.133000
     26 H112        3.8880   -1.1000   -0.4960 ha        1 FNA      0.134000
     27 H13         1.3790    4.8570    0.4620 DU        1 FNA      0.132500
     28 H14         3.2190    3.4730   -0.0780 ha        1 FNA      0.133000
     29 H15        -1.0030    1.5450    0.8520 ha        1 FNA      0.094500
     30 H16        -0.7320    3.8920    0.9270 ha        1 FNA      0.076500
@<TRIPOS>BOND
     1    1    3 1   
     2    1    4 3   
     3    2    5 1   
     4    2   10 1   
     5    2   19 1   
     6    3    5 2   
     7    3   20 1   
     8    4    6 1   
     9    5    7 1   
    10    6    7 2   
    11    6   22 1   
    12    7   23 1   
    13    8   10 1   
    14    8   16 3   
    15    9   11 2   
    16    9   15 2   
    17   10   12 2   
    18   11   13 2   
    19   12   13 1   
    20   12   25 1   
    21   13   26 1   
    22   14   15 1   
    23   14   17 3   
    24   15   28 1   
    25   16   29 1   
    26   17   30 1   
@<TRIPOS>SUBSTRUCTURE
     1 FNA         1 TEMP              0 ****  ****    0 ROOT
