@<TRIPOS>MOLECULE
FNG
   40    39     1     0     0
SMALL
bcc


@<TRIPOS>ATOM
      1 C1          1.0000    0.6070   -0.3350 c3        1 FNG      0.123000
      2 O1          0.5070   -0.6260    0.1150 os        1 FNG     -0.237000
      3 C2          2.5090    0.5680   -0.3100 c3        1 FNG     -0.025000
      4 O2          2.9560   -0.6220   -1.0030 oh        1 FNG     -0.314000
      5 C3          3.0460    0.5460    1.0650 c3        1 FNG      0.004000
      6 O3          4.4930    0.6950    1.0060 oh        1 FNG     -0.334000
      7 C4          2.4820    1.6380    1.9090 c3        1 FNG      0.013000
      8 O4          2.9830    2.9030    1.4370 oh        1 FNG     -0.322000
      9 C5          0.9700    1.6720    1.8740 c3        1 FNG     -0.006000
     10 O5          0.4440    1.6900    0.5160 os        1 FNG     -0.280000
     11 C6          0.4890    2.9170    2.6030 c3        1 FNG     -0.008000
     12 O6          1.0970    2.9840    3.8760 oh        1 FNG     -0.321000
     13 C7         -0.6500   -0.9790   -0.6340 c2        1 FNG      0.062000
     14 C12        -0.6090   -0.9680   -2.0180 c2        1 FNG     -0.102000
     15 C11        -1.7010   -1.4340   -2.7510 c1        1 FNG     -0.116000
     16 C10        -2.8350   -1.9100   -2.0880 c1        1 FNG     -0.065000
     17 C9         -2.8760   -1.9200   -0.7060 c1        1 FNG     -0.108000
     18 C8         -1.7890   -1.4570    0.0280 c1        1 FNG     -0.048000
     19 N16        -1.6780   -1.3920   -4.2170 no        1 FNG      0.569000
     20 O17        -2.7320   -1.5230   -4.8570 o         1 FNG     -0.353000
     21 O18        -0.4760   -1.2750   -4.8850 o         1 FNG     -0.353000
     22 C13        -4.1100   -2.4450    0.0120 c2        1 FNG      0.343000
     23 N15        -5.2470   -2.9350   -0.7570 n         1 FNG     -0.428000
     24 O14        -4.1850   -2.3730    1.2460 o         1 FNG     -0.353000
     25 H11         0.6990    0.7490   -1.2690 h2        1 FNG      0.127000
     26 H21         2.8650    1.3770   -0.7880 h1        1 FNG      0.119000
     27 HO21        3.3480   -0.3870   -1.7780 ho        1 FNG      0.210000
     28 H31         2.8310   -0.3190    1.4760 h1        1 FNG      0.115000
     29 HO31        4.8780   -0.1240    0.8590 ho        1 FNG      0.229000
     30 H41         2.7700    1.5080    2.8180 h1        1 FNG      0.102000
     31 HO41        3.5660    3.2220    2.0120 ho        1 FNG      0.224000
     32 H51         0.6200    0.8720    2.3390 h1        1 FNG      0.111000
     33 H61         0.7330    3.7190    2.0790 h1        1 FNG      0.107000
     34 H62        -0.4880    2.8800    2.7080 h1        1 FNG      0.107000
     35 HO61        0.5180    2.7160    4.4950 ho        1 FNG      0.210000
     36 H121        0.1690   -0.6420   -2.4720 ha        1 FNG      0.173000
     37 H101       -3.5880   -2.2310   -2.5930 ha        1 FNG      0.175000
     38 H81        -1.8200   -1.4660    0.9960 ha        1 FNG      0.185000
     39 H151       -6.0170   -3.1940   -0.3250 hn        1 FNG      0.232500
     40 H152       -5.1740   -3.0410   -1.6820 hn        1 FNG      0.232500
@<TRIPOS>BOND
     1    1    2 1   
     2    1    3 1   
     3    1   10 1   
     4    1   25 1   
     5    2   13 1   
     6    3    4 1   
     7    3    5 1   
     8    3   26 1   
     9    4   27 1   
    10    5    6 1   
    11    5    7 1   
    12    5   28 1   
    13    6   29 1   
    14    7    8 1   
    15    7    9 1   
    16    7   30 1   
    17    8   31 1   
    18    9   10 1   
    19    9   11 1   
    20    9   32 1   
    21   11   12 1   
    22   11   33 1   
    23   11   34 1   
    24   12   35 1   
    25   13   14 1   
    26   13   18 1   
    27   14   15 1   
    28   14   36 1   
    29   15   19 1   
    30   16   17 1   
    31   16   37 1   
    32   17   22 1   
    33   18   38 1   
    34   19   20 1   
    35   19   21 1   
    36   22   23 1   
    37   22   24 1   
    38   23   39 1   
    39   23   40 1   
@<TRIPOS>SUBSTRUCTURE
     1 FNG         1 TEMP              0 ****  ****    0 ROOT
