@<TRIPOS>MOLECULE
FNG
   40    41     1     0     0
SMALL
bcc


@<TRIPOS>ATOM
      1 C1         -1.5690   -0.0120   -0.8580 c3        1 FNG      0.308900
      2 O1         -0.5990    0.8600   -0.2680 os        1 FNG     -0.374900
      3 C2         -2.8120    0.8510   -1.1410 c3        1 FNG      0.091100
      4 O2         -2.5050    1.9490   -1.9690 oh        1 FNG     -0.585800
      5 C3         -3.4570    1.3180    0.1720 c3        1 FNG      0.076100
      6 O3         -4.7120    1.9300   -0.0720 oh        1 FNG     -0.602800
      7 C4         -3.7280    0.1100    1.0830 c3        1 FNG      0.127100
      8 O4         -4.6880   -0.7590    0.5110 oh        1 FNG     -0.593800
      9 C5         -2.4250   -0.6690    1.2930 c3        1 FNG      0.104100
     10 O5         -1.7940   -1.0460    0.0620 os        1 FNG     -0.427600
     11 C6         -2.6780   -1.9890    2.0300 c3        1 FNG      0.142400
     12 O6         -1.4640   -2.6470    2.3160 oh        1 FNG     -0.596800
     13 C7          0.7260    0.4810   -0.3810 ca        1 FNG      0.109100
     14 C12         1.6510    1.5380   -0.3870 ca        1 FNG     -0.077000
     15 C11         3.0140    1.2220   -0.4410 ca        1 FNG     -0.159200
     16 C10         3.4600   -0.1090   -0.4950 ca        1 FNG     -0.073000
     17 C9          2.5170   -1.1370   -0.4820 ca        1 FNG     -0.119600
     18 C8          1.1480   -0.8530   -0.4260 ca        1 FNG     -0.093000
     19 N16         4.0150    2.3250   -0.4460 no        1 FNG      0.314200
     20 O17         5.1830    2.0460   -0.4530 o         1 FNG     -0.201000
     21 O18         3.6260    3.4620   -0.4400 o         1 FNG     -0.201000
     22 C13         2.9210   -2.5750   -0.5540 c         1 FNG      0.670700
     23 N15         4.0660   -2.9610    0.0930 n         1 FNG     -0.665000
     24 O14         2.2330   -3.4070   -1.1790 o         1 FNG     -0.598100
     25 H11        -1.1800   -0.5120   -1.7890 h2        1 FNG      0.108700
     26 H21        -3.5510    0.2320   -1.7290 h1        1 FNG      0.117700
     27 HO21       -1.8040    2.4550   -1.5350 ho        1 FNG      0.417000
     28 H31        -2.7750    2.0470    0.6920 h1        1 FNG      0.060700
     29 HO31       -4.5920    2.5280   -0.8230 ho        1 FNG      0.427000
     30 H41        -4.1050    0.4780    2.0790 h1        1 FNG      0.062700
     31 HO41       -5.4590   -0.2140    0.2960 ho        1 FNG      0.426000
     32 H51        -1.7060   -0.0210    1.8690 h1        1 FNG      0.069700
     33 H61        -3.1430   -1.7740    3.0280 h1        1 FNG      0.068700
     34 H62        -3.3560   -2.6390    1.4170 h1        1 FNG      0.068700
     35 HO61       -1.0680   -2.8910    1.4700 ho        1 FNG      0.411000
     36 H121        1.3030    2.5840   -0.3440 ha        1 FNG      0.185000
     37 H101        4.5410   -0.3220   -0.5620 ha        1 FNG      0.175000
     38 H81         0.4150   -1.6800   -0.4200 ha        1 FNG      0.187000
     39 H151        4.3330   -3.9150    0.0750 hn        1 FNG      0.319500
     40 H152        4.5850   -2.3280    0.6440 hn        1 FNG      0.319500
@<TRIPOS>BOND
     1    1    2 1   
     2    1    3 1   
     3    1   10 1   
     4    1   25 1   
     5    2   13 1   
     6    3    4 1   
     7    3    5 1   
     8    3   26 1   
     9    4   27 1   
    10    5    6 1   
    11    5    7 1   
    12    5   28 1   
    13    6   29 1   
    14    7    8 1   
    15    7    9 1   
    16    7   30 1   
    17    8   31 1   
    18    9   10 1   
    19    9   11 1   
    20    9   32 1   
    21   11   12 1   
    22   11   33 1   
    23   11   34 1   
    24   12   35 1   
    25   13   14 ar  
    26   13   18 ar  
    27   14   15 ar  
    28   14   36 1   
    29   15   16 ar  
    30   15   19 1   
    31   16   17 ar  
    32   16   37 1   
    33   17   18 ar  
    34   17   22 1   
    35   18   38 1   
    36   19   20 1   
    37   19   21 1   
    38   22   23 1   
    39   22   24 2   
    40   23   39 1   
    41   23   40 1   
@<TRIPOS>SUBSTRUCTURE
     1 FNG         1 TEMP              0 ****  ****    0 ROOT
