@<TRIPOS>MOLECULE
FNG
   40    41     1     0     0
SMALL
bcc


@<TRIPOS>ATOM
      1 C1          0.0300    0.1740    0.1470 c3        1 FNG      0.308900
      2 O1         -0.6550   -0.9300    0.7480 os        1 FNG     -0.373900
      3 C2          1.5340   -0.1180    0.2920 c3        1 FNG      0.091100
      4 O2          1.8790   -1.3560   -0.2860 oh        1 FNG     -0.586800
      5 C3          1.9590   -0.0620    1.7660 c3        1 FNG      0.076100
      6 O3          3.3700   -0.1130    1.8860 oh        1 FNG     -0.602800
      7 C4          1.5120    1.2700    2.3900 c3        1 FNG      0.127100
      8 O4          2.1760    2.3670    1.7880 oh        1 FNG     -0.592800
      9 C5          0.0030    1.4420    2.1920 c3        1 FNG      0.104100
     10 O5         -0.3950    1.3280    0.8190 os        1 FNG     -0.425600
     11 C6         -0.4610    2.8370    2.6270 c3        1 FNG      0.143400
     12 O6         -1.8660    2.8970    2.7140 oh        1 FNG     -0.594800
     13 C7         -1.9600   -1.1490    0.3430 ca        1 FNG      0.111100
     14 C12        -2.4110   -2.4720    0.4770 ca        1 FNG     -0.077000
     15 C11        -3.7430   -2.7520    0.1470 ca        1 FNG     -0.159200
     16 C10        -4.6120   -1.7510   -0.3200 ca        1 FNG     -0.074000
     17 C9         -4.1310   -0.4490   -0.4550 ca        1 FNG     -0.118600
     18 C8         -2.8100   -0.1350   -0.1120 ca        1 FNG     -0.097000
     19 N16        -4.2480   -4.1450    0.2910 no        1 FNG      0.314200
     20 O17        -5.3820   -4.3840   -0.0270 o         1 FNG     -0.201000
     21 O18        -3.5080   -4.9900    0.7150 o         1 FNG     -0.201000
     22 C13        -4.9980    0.6730   -0.9290 c         1 FNG      0.670700
     23 N15        -5.9990    0.3970   -1.8240 n         1 FNG     -0.667000
     24 O14        -4.8070    1.8430   -0.5380 o         1 FNG     -0.599100
     25 H11        -0.2680    0.3200   -0.9290 h2        1 FNG      0.103700
     26 H21         2.1060    0.6550   -0.2980 h1        1 FNG      0.117700
     27 HO21        1.3430   -2.0380    0.1420 ho        1 FNG      0.417000
     28 H31         1.5000   -0.9230    2.3270 h1        1 FNG      0.060700
     29 HO31        3.6770   -0.8180    1.2990 ho        1 FNG      0.426000
     30 H41         1.7430    1.2540    3.4930 h1        1 FNG      0.063700
     31 HO41        3.1240    2.1810    1.8490 ho        1 FNG      0.425000
     32 H51        -0.5320    0.6430    2.7790 h1        1 FNG      0.072700
     33 H61        -0.0630    3.6050    1.9120 h1        1 FNG      0.068200
     34 H62        -0.0890    3.0450    3.6640 h1        1 FNG      0.068200
     35 HO61       -2.2150    2.7800    1.8210 ho        1 FNG      0.415000
     36 H121       -1.7310   -3.2580    0.8460 ha        1 FNG      0.185000
     37 H101       -5.6600   -2.0070   -0.5510 ha        1 FNG      0.174000
     38 H81        -2.4630    0.9130   -0.1780 ha        1 FNG      0.190000
     39 H151       -6.5790    1.1340   -2.1430 hn        1 FNG      0.320000
     40 H152       -6.1510   -0.5150   -2.1670 hn        1 FNG      0.320000
@<TRIPOS>BOND
     1    1    2 1   
     2    1    3 1   
     3    1   10 1   
     4    1   25 1   
     5    2   13 1   
     6    3    4 1   
     7    3    5 1   
     8    3   26 1   
     9    4   27 1   
    10    5    6 1   
    11    5    7 1   
    12    5   28 1   
    13    6   29 1   
    14    7    8 1   
    15    7    9 1   
    16    7   30 1   
    17    8   31 1   
    18    9   10 1   
    19    9   11 1   
    20    9   32 1   
    21   11   12 1   
    22   11   33 1   
    23   11   34 1   
    24   12   35 1   
    25   13   14 ar  
    26   13   18 ar  
    27   14   15 ar  
    28   14   36 1   
    29   15   16 ar  
    30   15   19 1   
    31   16   17 ar  
    32   16   37 1   
    33   17   18 ar  
    34   17   22 1   
    35   18   38 1   
    36   19   20 1   
    37   19   21 1   
    38   22   23 1   
    39   22   24 2   
    40   23   39 1   
    41   23   40 1   
@<TRIPOS>SUBSTRUCTURE
     1 FNG         1 TEMP              0 ****  ****    0 ROOT
