@<TRIPOS>MOLECULE
FNG
   41    42     1     0     0
SMALL
bcc


@<TRIPOS>ATOM
      1 C1          0.2490   -0.0170    0.0440 c3        1 FNG      0.303900
      2 O1         -0.5290   -1.0850    0.6090 os        1 FNG     -0.333900
      3 C2          1.7100   -0.2430    0.4810 c3        1 FNG      0.093100
      4 O2          2.1480   -1.5470    0.1720 oh        1 FNG     -0.577800
      5 C3          1.8460   -0.0770    2.0030 c3        1 FNG      0.115100
      6 O3          3.2090   -0.0750    2.3770 oh        1 FNG     -0.597800
      7 C4          1.2800    1.2930    2.4190 c3        1 FNG      0.123100
      8 O4          2.0300    2.3530    1.8570 oh        1 FNG     -0.595800
      9 C5         -0.1680    1.4190    1.9310 c3        1 FNG      0.144100
     10 O5         -0.3030    1.1770    0.5210 os        1 FNG     -0.426600
     11 C6         -0.6950    2.8380    2.1490 c3        1 FNG      0.137400
     12 O6         -2.1120    2.7770    2.0610 oh        1 FNG     -0.626800
     13 C7         -1.8100   -1.2600    0.1540 ca        1 FNG      0.145100
     14 C12        -2.3220   -2.5650    0.3170 ca        1 FNG     -0.035000
     15 C11        -3.6510   -2.8120   -0.0430 ca        1 FNG     -0.150200
     16 C10        -4.4740   -1.8000   -0.5610 ca        1 FNG     -0.082000
     17 C9         -3.9430   -0.5170   -0.7100 ca        1 FNG     -0.179600
     18 C8         -2.6100   -0.2340   -0.3670 ca        1 FNG     -0.089000
     19 N16        -4.2220   -4.1860    0.1240 no        1 FNG      0.317200
     20 O17        -5.3870   -4.3390   -0.1230 o         1 FNG     -0.172500
     21 O18        -3.5030   -5.0650    0.4970 o         1 FNG     -0.172500
     22 C13        -4.7380    0.5880   -1.2470 c         1 FNG      0.582700
     23 N15        -6.1860    0.6360   -0.7730 nz        1 FNG     -0.765400
     24 O14        -4.4220    1.5020   -1.9880 o         1 FNG     -0.385100
     25 H11         0.1350    0.0190   -1.0750 h2        1 FNG      0.091700
     26 H21         2.3340    0.5410   -0.0360 h1        1 FNG      0.091700
     27 HO21        2.3280   -1.5750   -0.7770 ho        1 FNG      0.417000
     28 H31         1.2940   -0.9070    2.5230 h1        1 FNG      0.074700
     29 HO31        3.5750   -0.9300    2.1100 ho        1 FNG      0.436000
     30 H41         1.3030    1.3690    3.5430 h1        1 FNG      0.072700
     31 HO41        2.9510    2.2150    2.1230 ho        1 FNG      0.436000
     32 H51        -0.8040    0.6660    2.4760 h1        1 FNG      0.069700
     33 H61        -0.3810    3.1910    3.1670 h1        1 FNG      0.062200
     34 H62        -0.2840    3.5250    1.3620 h1        1 FNG      0.062200
     35 HO61       -2.4320    3.6600    2.2830 ho        1 FNG      0.412000
     36 H121       -1.6740   -3.3640    0.7270 ha        1 FNG      0.215000
     37 H101       -5.5050   -2.0530   -0.8610 ha        1 FNG      0.165000
     38 H81        -2.2060    0.7890   -0.4850 ha        1 FNG      0.208000
     39 H151       -6.2090    0.6600    0.2510 hn        1 FNG      0.470800
     40 H152       -6.6900   -0.1960   -1.0940 hn        1 FNG      0.470800
     41 H153       -6.6500    1.4750   -1.1430 hn        1 FNG      0.470800
@<TRIPOS>BOND
     1    1    2 1   
     2    1    3 1   
     3    1   10 1   
     4    1   25 1   
     5    2   13 1   
     6    3    4 1   
     7    3    5 1   
     8    3   26 1   
     9    4   27 1   
    10    5    6 1   
    11    5    7 1   
    12    5   28 1   
    13    6   29 1   
    14    7    8 1   
    15    7    9 1   
    16    7   30 1   
    17    8   31 1   
    18    9   10 1   
    19    9   11 1   
    20    9   32 1   
    21   11   12 1   
    22   11   33 1   
    23   11   34 1   
    24   12   35 1   
    25   13   14 ar  
    26   13   18 ar  
    27   14   15 ar  
    28   14   36 1   
    29   15   16 ar  
    30   15   19 1   
    31   16   17 ar  
    32   16   37 1   
    33   17   18 ar  
    34   17   22 1   
    35   18   38 1   
    36   19   20 1   
    37   19   21 1   
    38   22   23 1   
    39   22   24 2   
    40   23   39 1   
    41   23   40 1   
    42   23   41 1   
@<TRIPOS>SUBSTRUCTURE
     1 FNG         1 TEMP              0 ****  ****    0 ROOT
