@<TRIPOS>MOLECULE
FNG
   41    42     1     0     0
SMALL
bcc


@<TRIPOS>ATOM
      1 C1          0.2430    0.0010    0.0300 c3        1 FNG      0.303900
      2 O1         -0.5230   -1.0800    0.5860 os        1 FNG     -0.333900
      3 C2          1.7090   -0.2220    0.4500 c3        1 FNG      0.093100
      4 O2          2.1520   -1.5190    0.1170 oh        1 FNG     -0.577800
      5 C3          1.8580   -0.0800    1.9740 c3        1 FNG      0.115100
      6 O3          3.2250   -0.0750    2.3360 oh        1 FNG     -0.597800
      7 C4          1.2880    1.2810    2.4160 c3        1 FNG      0.123100
      8 O4          2.0270    2.3540    1.8630 oh        1 FNG     -0.595800
      9 C5         -0.1650    1.4050    1.9430 c3        1 FNG      0.144100
     10 O5         -0.3120    1.1850    0.5310 os        1 FNG     -0.426600
     11 C6         -0.6990    2.8180    2.1880 c3        1 FNG      0.137400
     12 O6         -2.1160    2.7500    2.1120 oh        1 FNG     -0.626800
     13 C7         -1.8080   -1.2550    0.1400 ca        1 FNG      0.145100
     14 C12        -2.3130   -2.5640    0.2920 ca        1 FNG     -0.035000
     15 C11        -3.6440   -2.8130   -0.0600 ca        1 FNG     -0.150200
     16 C10        -4.4760   -1.7990   -0.5590 ca        1 FNG     -0.082000
     17 C9         -3.9510   -0.5110   -0.6980 ca        1 FNG     -0.179600
     18 C8         -2.6170   -0.2270   -0.3620 ca        1 FNG     -0.089000
     19 N16        -4.2070   -4.1910    0.0960 no        1 FNG      0.317200
     20 O17        -5.3740   -4.3460   -0.1430 o         1 FNG     -0.172500
     21 O18        -3.4810   -5.0710    0.4530 o         1 FNG     -0.172500
     22 C13        -4.7550    0.5960   -1.2150 c         1 FNG      0.582700
     23 N15        -6.2000    0.6320   -0.7280 n4        1 FNG     -0.765400
     24 O14        -4.4500    1.5200   -1.9470 o         1 FNG     -0.385100
     25 H11         0.1190    0.0540   -1.0870 h2        1 FNG      0.091700
     26 H21         2.3240    0.5730   -0.0600 h1        1 FNG      0.091700
     27 HO21        2.3240   -1.5310   -0.8330 ho        1 FNG      0.417000
     28 H31         1.3150   -0.9210    2.4860 h1        1 FNG      0.074700
     29 HO31        3.5930   -0.9240    2.0520 ho        1 FNG      0.436000
     30 H41         1.3210    1.3400    3.5410 h1        1 FNG      0.072700
     31 HO41        2.9510    2.2170    2.1190 ho        1 FNG      0.436000
     32 H51        -0.7910    0.6410    2.4810 h1        1 FNG      0.069700
     33 H61        -0.3760    3.1570    3.2080 h1        1 FNG      0.062200
     34 H62        -0.3000    3.5190    1.4070 h1        1 FNG      0.062200
     35 HO61       -2.4390    3.6270    2.3540 ho        1 FNG      0.412000
     36 H121       -1.6580   -3.3650    0.6870 ha        1 FNG      0.215000
     37 H101       -5.5080   -2.0530   -0.8530 ha        1 FNG      0.165000
     38 H81        -2.2180    0.8000   -0.4720 ha        1 FNG      0.208000
     39 H151       -6.6700    1.4730   -1.0840 hn        1 FNG      0.470800
     40 H152       -6.7030   -0.1980   -1.0550 hn        1 FNG      0.470800
     41 H153       -6.2140    0.6440    0.2970 hn        1 FNG      0.470800
@<TRIPOS>BOND
     1    1    2 1   
     2    1    3 1   
     3    1   10 1   
     4    1   25 1   
     5    2   13 1   
     6    3    4 1   
     7    3    5 1   
     8    3   26 1   
     9    4   27 1   
    10    5    6 1   
    11    5    7 1   
    12    5   28 1   
    13    6   29 1   
    14    7    8 1   
    15    7    9 1   
    16    7   30 1   
    17    8   31 1   
    18    9   10 1   
    19    9   11 1   
    20    9   32 1   
    21   11   12 1   
    22   11   33 1   
    23   11   34 1   
    24   12   35 1   
    25   13   14 ar  
    26   13   18 ar  
    27   14   15 ar  
    28   14   36 1   
    29   15   16 ar  
    30   15   19 1   
    31   16   17 ar  
    32   16   37 1   
    33   17   18 ar  
    34   17   22 1   
    35   18   38 1   
    36   19   20 1   
    37   19   21 1   
    38   22   23 1   
    39   22   24 2   
    40   23   39 1   
    41   23   40 1   
    42   23   41 1   
@<TRIPOS>SUBSTRUCTURE
     1 FNG         1 TEMP              0 ****  ****    0 ROOT
