@<TRIPOS>MOLECULE
FNI
   45    36     1     0     0
SMALL
bcc


@<TRIPOS>ATOM
      1 C1          0.3580    0.4240   -4.0100 c1        1 FNI     -0.105500
      2 N2          1.7160    0.5690   -4.1470 n1        1 FNI     -0.145500
      3 C3          2.5160    0.6240   -3.0370 c1        1 FNI     -0.042500
      4 C4          1.9470    0.5320   -1.7520 c1        1 FNI     -0.051000
      5 C5          0.5990    0.3880   -1.6150 c1        1 FNI     -0.051000
      6 C6         -0.2090    0.3330   -2.7410 c1        1 FNI     -0.105500
      7 O7          2.4950    0.7070   -0.4780 o         1 FNI     -0.091000
      8 C8          1.4730    0.6680    0.4330 c1        1 FNI     -0.193000
      9 C9          0.2940    0.4710   -0.2560 c1        1 FNI      0.137000
     10 C10         2.1590    2.0290    0.2840 c1        1 FNI      0.408000
     11 N11        -0.6780   -0.0240    0.6880 n2        1 FNI     -0.241000
     12 C12        -1.0240   -1.4230    0.6990 c2        1 FNI      0.064000
     13 C13        -0.1610   -2.5210    0.7000 c2        1 FNI     -0.161000
     14 C14        -0.6730   -3.8100    0.8520 c1        1 FNI     -0.097000
     15 C15        -2.0640   -4.0050    1.0060 c1        1 FNI     -0.105000
     16 C16        -2.9170   -2.9210    1.0050 c1        1 FNI      0.014000
     17 C17        -2.3970   -1.6150    0.8510 c1        1 FNI     -0.149000
     18 C18        -2.5850   -5.3120    1.1370 c1        1 FNI      0.093000
     19 C19        -3.9600   -5.5050    1.2650 c2        1 FNI     -0.169000
     20 C20        -4.8220   -4.4070    1.2650 c1        1 FNI     -0.083000
     21 C21        -4.3100   -3.1180    1.1350 c1        1 FNI     -0.159000
     22 O22         3.0800    2.1620   -0.5020 o         1 FNI     -0.378000
     23 O23        -2.1620   -6.6610    1.1780 o         1 FNI     -0.249000
     24 N24         1.6280    3.1740    0.9610 n3        1 FNI     -0.299000
     25 C25         2.1810    4.4740    0.7120 c2        1 FNI      0.155000
     26 N26         1.8240    5.1550   -0.3900 n2        1 FNI     -0.220000
     27 C27         2.3870    6.3720   -0.6540 c1        1 FNI     -0.008000
     28 N28         3.3120    6.8980    0.2030 n1        1 FNI     -0.145500
     29 C29         3.6700    6.2190    1.3070 c1        1 FNI     -0.042500
     30 C30         3.1070    5.0000    1.5710 c1        1 FNI     -0.252000
     31 H1         -0.2140    0.3850   -4.8070 ha        1 FNI      0.166000
     32 H3          3.4870    0.7280   -3.1360 ha        1 FNI      0.175500
     33 H6         -1.1790    0.2290   -2.6430 ha        1 FNI      0.166000
     34 HN11       -1.0890    0.5550    1.2700 hn        1 FNI      0.269000
     35 H13         0.8070   -2.3840    0.6330 ha        1 FNI      0.147000
     36 H14        -0.0660   -4.5820    0.8520 ha        1 FNI      0.128000
     37 H17        -3.0000   -0.8410    0.8850 ha        1 FNI      0.148000
     38 H19        -4.3220   -6.4130    1.3560 ha        1 FNI      0.154000
     39 H20        -5.7910   -4.5440    1.3550 ha        1 FNI      0.138000
     40 H21        -4.9160   -2.3460    1.1350 ha        1 FNI      0.138000
     41 HO23       -1.2890   -6.7030    1.0090 ho        1 FNI      0.219000
     42 HN24        0.9590    3.0710    1.5800 hn        1 FNI      0.265000
     43 H27         2.1260    6.8690   -1.4580 ha        1 FNI      0.193000
     44 H29         4.3340    6.5970    1.9220 ha        1 FNI      0.175500
     45 H30         3.3680    4.5030    2.3760 ha        1 FNI      0.190000
@<TRIPOS>BOND
     1    1    6 1   
     2    1   31 1   
     3    2    3 1   
     4    3   32 1   
     5    4    5 1   
     6    6   33 1   
     7    7    8 1   
     8    8    9 1   
     9   10   22 1   
    10   10   24 1   
    11   11   12 1   
    12   11   34 1   
    13   12   13 1   
    14   12   17 1   
    15   13   14 1   
    16   13   35 1   
    17   14   36 1   
    18   15   16 1   
    19   15   18 1   
    20   16   21 1   
    21   17   37 1   
    22   18   19 1   
    23   19   20 1   
    24   19   38 1   
    25   20   39 1   
    26   21   40 1   
    27   23   41 1   
    28   24   25 1   
    29   24   42 1   
    30   25   26 1   
    31   25   30 1   
    32   26   27 1   
    33   27   43 1   
    34   28   29 1   
    35   29   44 1   
    36   30   45 1   
@<TRIPOS>SUBSTRUCTURE
     1 FNI         1 TEMP              0 ****  ****    0 ROOT
