@<TRIPOS>MOLECULE
FNI
   47    51     1     0     0
SMALL
bcc


@<TRIPOS>ATOM
      1 C1          0.9770    0.0860    0.7450 ca        1 FNI      0.436200
      2 N2          2.2550   -0.2810    1.0210 nb        1 FNI     -0.575000
      3 C3          2.5930   -0.6310    2.2660 ca        1 FNI      0.457200
      4 C4          1.6090   -0.6140    3.2770 ca        1 FNI     -0.023200
      5 C5          0.2580   -0.2340    2.9960 ca        1 FNI     -0.097800
      6 C6         -0.0670    0.1300    1.6860 ca        1 FNI     -0.192300
      7 O7          1.7670   -0.9360    4.6270 os        1 FNI     -0.153200
      8 C8          0.5080   -0.7600    5.2110 cc        1 FNI     -0.042100
      9 C9         -0.4340   -0.3430    4.2680 cd        1 FNI      0.076800
     10 C10         0.3560   -0.9820    6.6370 c         1 FNI      0.616300
     11 N11        -1.8320   -0.0660    4.4990 n4        1 FNI     -0.489200
     12 C12        -2.7040   -1.2480    4.3300 ca        1 FNI     -0.063400
     13 C13        -2.8930   -1.7710    3.0180 ca        1 FNI     -0.169000
     14 C14        -3.7550   -2.8260    2.8450 ca        1 FNI     -0.019000
     15 C15        -4.4470   -3.3940    3.9470 ca        1 FNI     -0.043000
     16 C16        -4.2460   -2.8720    5.2550 ca        1 FNI     -0.011000
     17 C17        -3.3480   -1.7850    5.4320 ca        1 FNI     -0.074000
     18 C18        -5.3610   -4.4830    3.7870 ca        1 FNI      0.159100
     19 C19        -6.0360   -5.0120    4.8770 ca        1 FNI     -0.181000
     20 C20        -5.8210   -4.4760    6.1610 ca        1 FNI     -0.042000
     21 C21        -4.9440   -3.4300    6.3550 ca        1 FNI     -0.158000
     22 O22        -0.7070   -0.8930    7.2440 o         1 FNI     -0.423100
     23 O23        -5.5050   -4.9450    2.5060 oh        1 FNI     -0.486100
     24 N24         1.5850   -1.3550    7.4230 n4        1 FNI     -0.644500
     25 C25         2.2070   -0.1810    8.0950 ca        1 FNI      0.489200
     26 N26         1.8670    1.0580    7.6280 nb        1 FNI     -0.717000
     27 C27         2.4640    2.0980    8.2600 ca        1 FNI      0.697900
     28 N28         3.3520    2.0180    9.2960 nb        1 FNI     -0.609000
     29 C29         3.6600    0.7890    9.7310 ca        1 FNI      0.485200
     30 C30         3.1040   -0.3910    9.1560 ca        1 FNI     -0.311600
     31 H1          0.7930    0.3630   -0.3150 h4        1 FNI      0.079100
     32 H3          3.6430   -0.9240    2.4580 h4        1 FNI      0.080100
     33 H6         -1.0790    0.4400    1.3880 ha        1 FNI      0.173000
     34 HN11       -2.1360    0.6510    3.8180 hn        1 FNI      0.480800
     35 H13        -2.3620   -1.3390    2.1570 ha        1 FNI      0.150000
     36 H14        -3.9300   -3.2520    1.8390 ha        1 FNI      0.192000
     37 H17        -3.2010   -1.3920    6.4530 ha        1 FNI      0.157000
     38 H19        -6.7440   -5.8470    4.7470 ha        1 FNI      0.171000
     39 H20        -6.3710   -4.9060    7.0160 ha        1 FNI      0.169000
     40 H21        -4.7870   -3.0130    7.3610 ha        1 FNI      0.151000
     41 HO23       -6.1650   -5.6590    2.5030 ho        1 FNI      0.454000
     42 HN24        2.2890   -1.7730    6.7950 hn        1 FNI      0.489800
     43 H27         2.2020    3.1210    7.8960 h5        1 FNI      0.106100
     44 H29         4.3800    0.7170   10.5750 h4        1 FNI      0.091100
     45 H30         3.3820   -1.3810    9.5450 ha        1 FNI      0.193000
     46 H112       -1.9530    0.3020    5.4580 hn        1 FNI      0.480800
     47 H242        1.3240   -2.0340    8.1560 hn        1 FNI      0.489800
@<TRIPOS>BOND
     1    1    2 ar  
     2    1    6 ar  
     3    1   31 1   
     4    2    3 ar  
     5    3    4 ar  
     6    3   32 1   
     7    4    5 ar  
     8    4    7 1   
     9    5    6 ar  
    10    5    9 1   
    11    6   33 1   
    12    7    8 1   
    13    8    9 2   
    14    8   10 1   
    15    9   11 1   
    16   10   22 2   
    17   10   24 1   
    18   11   12 1   
    19   11   34 1   
    20   11   46 1   
    21   12   13 ar  
    22   12   17 ar  
    23   13   14 ar  
    24   13   35 1   
    25   14   15 ar  
    26   14   36 1   
    27   15   16 ar  
    28   15   18 ar  
    29   16   17 ar  
    30   16   21 ar  
    31   17   37 1   
    32   18   19 ar  
    33   18   23 1   
    34   19   20 ar  
    35   19   38 1   
    36   20   21 ar  
    37   20   39 1   
    38   21   40 1   
    39   23   41 1   
    40   24   25 1   
    41   24   42 1   
    42   24   47 1   
    43   25   26 ar  
    44   25   30 ar  
    45   26   27 ar  
    46   27   28 ar  
    47   27   43 1   
    48   28   29 ar  
    49   29   30 ar  
    50   29   44 1   
    51   30   45 1   
@<TRIPOS>SUBSTRUCTURE
     1 FNI         1 TEMP              0 ****  ****    0 ROOT
