@<TRIPOS>MOLECULE
FNI
   45    49     1     0     0
SMALL
bcc


@<TRIPOS>ATOM
      1 C1          0.6370    4.3890    0.5240 ca        1 FNI      0.362200
      2 N2         -0.5930    4.8990    0.7770 nb        1 FNI     -0.631000
      3 C3         -1.6590    4.0900    0.7010 ca        1 FNI      0.403200
      4 C4         -1.4920    2.7340    0.3650 ca        1 FNI     -0.018200
      5 C5         -0.1960    2.1920    0.1120 ca        1 FNI     -0.114800
      6 C6          0.9000    3.0500    0.1880 ca        1 FNI     -0.171300
      7 O7         -2.4850    1.7800    0.2160 os        1 FNI     -0.180200
      8 C8         -1.8100    0.5850   -0.1370 cc        1 FNI     -0.171100
      9 C9         -0.4220    0.7780   -0.2170 cd        1 FNI      0.234800
     10 C10        -2.5870   -0.6280   -0.3950 c         1 FNI      0.734300
     11 N11         0.4850   -0.1570   -0.6310 nh        1 FNI     -0.611400
     12 C12         1.8330   -0.2060   -0.2210 ca        1 FNI      0.153600
     13 C13         2.2690    0.3850    1.0080 ca        1 FNI     -0.176000
     14 C14         3.5840    0.3100    1.3850 ca        1 FNI     -0.067000
     15 C15         4.5390   -0.3550    0.5730 ca        1 FNI     -0.073000
     16 C16         4.1190   -0.9550   -0.6400 ca        1 FNI      0.013000
     17 C17         2.7570   -0.8700   -1.0230 ca        1 FNI     -0.161000
     18 C18         5.9200   -0.4520    0.9350 ca        1 FNI      0.150100
     19 C19         6.8280   -1.1120    0.1280 ca        1 FNI     -0.231000
     20 C20         6.3880   -1.7030   -1.0760 ca        1 FNI     -0.079000
     21 C21         5.0700   -1.6300   -1.4560 ca        1 FNI     -0.159000
     22 O22        -2.0020   -1.6600   -0.7910 o         1 FNI     -0.618100
     23 O23         6.2720    0.1500    2.1210 oh        1 FNI     -0.498100
     24 N24        -3.9570   -0.5610   -0.1700 n         1 FNI     -0.532400
     25 C25        -4.8850   -1.5990   -0.3510 ca        1 FNI      0.563200
     26 N26        -6.2070   -1.2890   -0.1000 nb        1 FNI     -0.746000
     27 C27        -7.0980   -2.2910   -0.2710 ca        1 FNI      0.654900
     28 N28        -6.8470   -3.5700   -0.6630 nb        1 FNI     -0.713000
     29 C29        -5.5520   -3.8540   -0.9030 ca        1 FNI      0.441200
     30 C30        -4.5190   -2.9110   -0.7660 ca        1 FNI     -0.382600
     31 H1          1.4660    5.1160    0.5980 h4        1 FNI      0.032100
     32 H3         -2.6520    4.5240    0.9050 h4        1 FNI      0.045100
     33 H6          1.9230    2.7010   -0.0080 ha        1 FNI      0.164000
     34 HN11        0.0990   -1.0210   -0.9690 hn        1 FNI      0.473800
     35 H13         1.5350    0.8930    1.6540 ha        1 FNI      0.147000
     36 H14         3.9260    0.7590    2.3320 ha        1 FNI      0.155000
     37 H17         2.4530   -1.3460   -1.9680 ha        1 FNI      0.146000
     38 H19         7.8870   -1.1830    0.4120 ha        1 FNI      0.137000
     39 H20         7.1230   -2.2250   -1.7070 ha        1 FNI      0.136000
     40 H21         4.7270   -2.0910   -2.3940 ha        1 FNI      0.138000
     41 HO23        7.2210    0.0080    2.2570 ho        1 FNI      0.424000
     42 HN24       -4.3220    0.3200    0.1350 hn        1 FNI      0.351500
     43 H27        -8.1580   -2.0310   -0.0660 h5        1 FNI      0.055100
     44 H29        -5.3280   -4.8880   -1.2230 h4        1 FNI      0.031100
     45 H30        -3.4770   -3.1910   -0.9740 ha        1 FNI      0.190000
@<TRIPOS>BOND
     1    1    2 ar  
     2    1    6 ar  
     3    1   31 1   
     4    2    3 ar  
     5    3    4 ar  
     6    3   32 1   
     7    4    5 ar  
     8    4    7 1   
     9    5    6 ar  
    10    5    9 1   
    11    6   33 1   
    12    7    8 1   
    13    8    9 2   
    14    8   10 1   
    15    9   11 1   
    16   10   22 2   
    17   10   24 1   
    18   11   12 1   
    19   11   34 1   
    20   12   13 ar  
    21   12   17 ar  
    22   13   14 ar  
    23   13   35 1   
    24   14   15 ar  
    25   14   36 1   
    26   15   16 ar  
    27   15   18 ar  
    28   16   17 ar  
    29   16   21 ar  
    30   17   37 1   
    31   18   19 ar  
    32   18   23 1   
    33   19   20 ar  
    34   19   38 1   
    35   20   21 ar  
    36   20   39 1   
    37   21   40 1   
    38   23   41 1   
    39   24   25 1   
    40   24   42 1   
    41   25   26 ar  
    42   25   30 ar  
    43   26   27 ar  
    44   27   28 ar  
    45   27   43 1   
    46   28   29 ar  
    47   29   30 ar  
    48   29   44 1   
    49   30   45 1   
@<TRIPOS>SUBSTRUCTURE
     1 FNI         1 TEMP              0 ****  ****    0 ROOT
