@<TRIPOS>MOLECULE
FNM
   39    41     1     0     0
SMALL
bcc


@<TRIPOS>ATOM
      1 N1         -0.0270   -0.1760    0.8080 nh        1 FNM     -0.399600
      2 N2          1.3000   -0.3020    0.5170 n         1 FNM     -0.301700
      3 C3          2.3380   -0.0930    1.4990 c2        1 FNM      0.452800
      4 S3          1.9290   -0.0420    3.1520 ss        1 FNM     -0.063300
      5 N4          3.5500    0.0080    0.9900 n2        1 FNM     -0.636900
      6 C5          3.4670   -0.0850   -0.4910 c3        1 FNM      0.122500
      7 C6          1.9300   -0.2130   -0.7730 c         1 FNM      0.658500
      8 O6          1.3230   -0.2590   -1.8420 o         1 FNM     -0.577500
      9 C7          3.9670    1.1910   -1.1760 c3        1 FNM     -0.076100
     10 C8          4.2040   -1.2720   -1.0620 ca        1 FNM     -0.080300
     11 C9          5.2320   -1.9030   -0.3530 ca        1 FNM     -0.110000
     12 C10         5.9220   -2.9740   -0.9230 ca        1 FNM     -0.135500
     13 C11         5.5980   -3.4200   -2.2030 ca        1 FNM     -0.122000
     14 C12         4.5810   -2.7880   -2.9170 ca        1 FNM     -0.135500
     15 C13         3.8890   -1.7180   -2.3530 ca        1 FNM     -0.110000
     16 C21        -0.6340    1.1260    0.6110 ca        1 FNM      0.032600
     17 C22        -1.7130    1.2910   -0.2800 ca        1 FNM     -0.127500
     18 C23        -2.3720    2.5150   -0.3590 ca        1 FNM     -0.121000
     19 C24        -1.9610    3.5900    0.4270 ca        1 FNM     -0.129000
     20 C25        -0.8860    3.4370    1.3020 ca        1 FNM     -0.121000
     21 C26        -0.2230    2.2170    1.4010 ca        1 FNM     -0.127500
     22 C27         3.4760    0.0840    3.9580 c3        1 FNM     -0.079000
     23 HN1        -0.5140   -0.8480    0.2160 hn        1 FNM      0.392800
     24 H7          3.4190    2.0880   -0.8010 hc        1 FNM      0.055033
     25 H7A         3.7990    1.0950   -2.2760 hc        1 FNM      0.055033
     26 H7B         5.0570    1.3240   -0.9790 hc        1 FNM      0.055033
     27 H9          5.5150   -1.5630    0.6550 ha        1 FNM      0.151500
     28 H10         6.7260   -3.4660   -0.3560 ha        1 FNM      0.133000
     29 H11         6.1430   -4.2650   -2.6480 ha        1 FNM      0.131000
     30 H12         4.3210   -3.1320   -3.9290 ha        1 FNM      0.133000
     31 H13         3.0850   -1.2250   -2.9260 ha        1 FNM      0.151500
     32 H22        -2.0430    0.4570   -0.9180 ha        1 FNM      0.143500
     33 H23        -3.2180    2.6320   -1.0530 ha        1 FNM      0.135500
     34 H24        -2.4810    4.5560    0.3560 ha        1 FNM      0.134000
     35 H25        -0.5590    4.2830    1.9240 ha        1 FNM      0.135500
     36 H26         0.6150    2.1010    2.1080 ha        1 FNM      0.143500
     37 H27         3.2310    0.1060    5.0460 h1        1 FNM      0.079700
     38 H27A        4.1400   -0.7850    3.7500 h1        1 FNM      0.079700
     39 H27B        4.0270    1.0130    3.6870 h1        1 FNM      0.079700
@<TRIPOS>BOND
     1    1    2 1   
     2    1   16 1   
     3    1   23 1   
     4    2    3 1   
     5    2    7 1   
     6    3    4 1   
     7    3    5 2   
     8    4   22 1   
     9    5    6 1   
    10    6    7 1   
    11    6    9 1   
    12    6   10 1   
    13    7    8 2   
    14    9   24 1   
    15    9   25 1   
    16    9   26 1   
    17   10   11 ar  
    18   10   15 ar  
    19   11   12 ar  
    20   11   27 1   
    21   12   13 ar  
    22   12   28 1   
    23   13   14 ar  
    24   13   29 1   
    25   14   15 ar  
    26   14   30 1   
    27   15   31 1   
    28   16   17 ar  
    29   16   21 ar  
    30   17   18 ar  
    31   17   32 1   
    32   18   19 ar  
    33   18   33 1   
    34   19   20 ar  
    35   19   34 1   
    36   20   21 ar  
    37   20   35 1   
    38   21   36 1   
    39   22   37 1   
    40   22   38 1   
    41   22   39 1   
@<TRIPOS>SUBSTRUCTURE
     1 FNM         1 TEMP              0 ****  ****    0 ROOT
