@<TRIPOS>MOLECULE
FNM
   39    41     1     0     0
SMALL
bcc


@<TRIPOS>ATOM
      1 N1         -0.0230   -0.1800    0.8160 nu        1 FNM     -0.398600
      2 N2          1.3030   -0.3030    0.5220 n         1 FNM     -0.301700
      3 C3          2.3430   -0.0790    1.4990 c2        1 FNM      0.452800
      4 S3          1.9390   -0.0160    3.1530 ss        1 FNM     -0.063300
      5 N4          3.5530    0.0230    0.9860 n2        1 FNM     -0.636900
      6 C5          3.4660   -0.0840   -0.4940 c3        1 FNM      0.122500
      7 C6          1.9290   -0.2220   -0.7700 c         1 FNM      0.658500
      8 O6          1.3190   -0.2810   -1.8370 o         1 FNM     -0.577500
      9 C7          3.9580    1.1880   -1.1910 c3        1 FNM     -0.076100
     10 C8          4.2070   -1.2730   -1.0560 ca        1 FNM     -0.080300
     11 C9          5.2400   -1.8930   -0.3440 ca        1 FNM     -0.110000
     12 C10         5.9330   -2.9660   -0.9070 ca        1 FNM     -0.135500
     13 C11         5.6080   -3.4240   -2.1820 ca        1 FNM     -0.122000
     14 C12         4.5860   -2.8020   -2.8990 ca        1 FNM     -0.135500
     15 C13         3.8900   -1.7310   -2.3430 ca        1 FNM     -0.110000
     16 C21        -0.6370    1.1170    0.6110 ca        1 FNM      0.031600
     17 C22        -1.7160    1.2720   -0.2820 ca        1 FNM     -0.126500
     18 C23        -2.3810    2.4920   -0.3690 ca        1 FNM     -0.122000
     19 C24        -1.9750    3.5740    0.4110 ca        1 FNM     -0.129000
     20 C25        -0.9000    3.4310    1.2870 ca        1 FNM     -0.122000
     21 C26        -0.2320    2.2150    1.3940 ca        1 FNM     -0.126500
     22 C27         3.4870    0.1260    3.9530 c3        1 FNM     -0.079000
     23 HN1        -0.5090   -0.8590    0.2310 hn        1 FNM      0.392800
     24 H7          3.4070    2.0860   -0.8230 hc        1 FNM      0.055033
     25 H7A         5.0480    1.3280   -0.9980 hc        1 FNM      0.055033
     26 H7B         3.7880    1.0820   -2.2900 hc        1 FNM      0.055033
     27 H9          5.5240   -1.5440    0.6600 ha        1 FNM      0.151500
     28 H10         6.7410   -3.4490   -0.3380 ha        1 FNM      0.133000
     29 H11         6.1550   -4.2700   -2.6220 ha        1 FNM      0.131000
     30 H12         4.3250   -3.1560   -3.9080 ha        1 FNM      0.133000
     31 H13         3.0840   -1.2470   -2.9170 ha        1 FNM      0.151500
     32 H22        -2.0420    0.4320   -0.9150 ha        1 FNM      0.143500
     33 H23        -3.2260    2.6010   -1.0640 ha        1 FNM      0.135500
     34 H24        -2.5000    4.5370    0.3330 ha        1 FNM      0.134000
     35 H25        -0.5770    4.2830    1.9040 ha        1 FNM      0.135500
     36 H26         0.6070    2.1080    2.1030 ha        1 FNM      0.143500
     37 H27         4.1550   -0.7420    3.7520 h1        1 FNM      0.079700
     38 H27A        4.0330    1.0550    3.6730 h1        1 FNM      0.079700
     39 H27B        3.2450    0.1570    5.0430 h1        1 FNM      0.079700
@<TRIPOS>BOND
     1    1    2 1   
     2    1   16 1   
     3    1   23 1   
     4    2    3 1   
     5    2    7 1   
     6    3    4 1   
     7    3    5 2   
     8    4   22 1   
     9    5    6 1   
    10    6    7 1   
    11    6    9 1   
    12    6   10 1   
    13    7    8 2   
    14    9   24 1   
    15    9   25 1   
    16    9   26 1   
    17   10   11 ar  
    18   10   15 ar  
    19   11   12 ar  
    20   11   27 1   
    21   12   13 ar  
    22   12   28 1   
    23   13   14 ar  
    24   13   29 1   
    25   14   15 ar  
    26   14   30 1   
    27   15   31 1   
    28   16   17 ar  
    29   16   21 ar  
    30   17   18 ar  
    31   17   32 1   
    32   18   19 ar  
    33   18   33 1   
    34   19   20 ar  
    35   19   34 1   
    36   20   21 ar  
    37   20   35 1   
    38   21   36 1   
    39   22   37 1   
    40   22   38 1   
    41   22   39 1   
@<TRIPOS>SUBSTRUCTURE
     1 FNM         1 TEMP              0 ****  ****    0 ROOT
