@<TRIPOS>MOLECULE
FNM
   39    41     1     0     0
SMALL
bcc


@<TRIPOS>ATOM
      1 N1          1.6990    0.0250   -1.3670 nh        1 FNM     -0.398600
      2 N2          0.5020    0.1820   -0.7320 n         1 FNM     -0.301700
      3 C3          0.0940    1.4310   -0.1340 c2        1 FNM      0.452800
      4 S3          0.9340    2.8600   -0.5220 ss        1 FNM     -0.063300
      5 N4         -0.9550    1.3320    0.6590 n2        1 FNM     -0.636900
      6 C5         -1.3810   -0.0900    0.7300 c3        1 FNM      0.122500
      7 C6         -0.3290   -0.8410   -0.1560 c         1 FNM      0.658500
      8 O6         -0.1950   -2.0440   -0.3780 o         1 FNM     -0.577500
      9 C7         -1.2850   -0.6490    2.1530 c3        1 FNM     -0.076100
     10 C8         -2.7750   -0.3280    0.2000 ca        1 FNM     -0.080300
     11 C9         -3.7130    0.7070    0.1240 ca        1 FNM     -0.110000
     12 C10        -5.0060    0.4490   -0.3340 ca        1 FNM     -0.135500
     13 C11        -5.3750   -0.8400   -0.7130 ca        1 FNM     -0.122000
     14 C12        -4.4460   -1.8770   -0.6300 ca        1 FNM     -0.135500
     15 C13        -3.1540   -1.6250   -0.1740 ca        1 FNM     -0.110000
     16 C21         2.8250   -0.4270   -0.5730 ca        1 FNM      0.031600
     17 C22         3.4930   -1.6270   -0.8860 ca        1 FNM     -0.126500
     18 C23         4.6520   -1.9800   -0.1990 ca        1 FNM     -0.122000
     19 C24         5.1490   -1.1610    0.8140 ca        1 FNM     -0.129000
     20 C25         4.4860    0.0210    1.1370 ca        1 FNM     -0.122000
     21 C26         3.3320    0.3940    0.4530 ca        1 FNM     -0.126500
     22 C27         0.0290    4.1110    0.3000 c3        1 FNM     -0.079000
     23 HN1         1.5410   -0.6540   -2.1110 hn        1 FNM      0.392800
     24 H7         -2.0110   -0.1210    2.8170 hc        1 FNM      0.055033
     25 H7A        -1.5340   -1.7380    2.1260 hc        1 FNM      0.055033
     26 H7B        -0.2570   -0.5200    2.5650 hc        1 FNM      0.055033
     27 H9         -3.4510    1.7320    0.4280 ha        1 FNM      0.151500
     28 H10        -5.7360    1.2700   -0.3930 ha        1 FNM      0.133000
     29 H11        -6.3940   -1.0400   -1.0750 ha        1 FNM      0.131000
     30 H12        -4.7310   -2.8970   -0.9240 ha        1 FNM      0.133000
     31 H13        -2.4260   -2.4510   -0.1120 ha        1 FNM      0.151500
     32 H22         3.1070   -2.2920   -1.6740 ha        1 FNM      0.143500
     33 H23         5.1710   -2.9160   -0.4550 ha        1 FNM      0.135500
     34 H24         6.0620   -1.4480    1.3570 ha        1 FNM      0.134000
     35 H25         4.8750    0.6700    1.9350 ha        1 FNM      0.135500
     36 H26         2.8230    1.3400    0.7050 ha        1 FNM      0.143500
     37 H27         0.0200    3.9790    1.4050 h1        1 FNM      0.079700
     38 H27A        0.5580    5.0610    0.0480 h1        1 FNM      0.079700
     39 H27B       -1.0260    4.1760   -0.0490 h1        1 FNM      0.079700
@<TRIPOS>BOND
     1    1    2 1   
     2    1   16 1   
     3    1   23 1   
     4    2    3 1   
     5    2    7 1   
     6    3    4 1   
     7    3    5 2   
     8    4   22 1   
     9    5    6 1   
    10    6    7 1   
    11    6    9 1   
    12    6   10 1   
    13    7    8 2   
    14    9   24 1   
    15    9   25 1   
    16    9   26 1   
    17   10   11 ar  
    18   10   15 ar  
    19   11   12 ar  
    20   11   27 1   
    21   12   13 ar  
    22   12   28 1   
    23   13   14 ar  
    24   13   29 1   
    25   14   15 ar  
    26   14   30 1   
    27   15   31 1   
    28   16   17 ar  
    29   16   21 ar  
    30   17   18 ar  
    31   17   32 1   
    32   18   19 ar  
    33   18   33 1   
    34   19   20 ar  
    35   19   34 1   
    36   20   21 ar  
    37   20   35 1   
    38   21   36 1   
    39   22   37 1   
    40   22   38 1   
    41   22   39 1   
@<TRIPOS>SUBSTRUCTURE
     1 FNM         1 TEMP              0 ****  ****    0 ROOT
