@<TRIPOS>MOLECULE
FNM
   40    42     1     0     0
SMALL
bcc


@<TRIPOS>ATOM
      1 N1         -0.2060   -0.2550    0.0780 n4        1 FNM     -0.383400
      2 N2          1.1590   -0.5310    0.1050 n         1 FNM     -0.352700
      3 C3          1.9550   -0.4030    1.3320 c2        1 FNM      0.398800
      4 S3          1.1770   -0.6440    2.8270 ss        1 FNM     -0.148300
      5 N4          3.2240   -0.1780    1.1150 n2        1 FNM     -0.540900
      6 C5          3.4860   -0.0390   -0.3420 c3        1 FNM      0.157500
      7 C6          2.0620   -0.1160   -0.9880 c         1 FNM      0.670500
      8 O6          1.6470    0.0760   -2.1210 o         1 FNM     -0.518500
      9 C7          4.0920    1.3250   -0.6860 c3        1 FNM     -0.088100
     10 C8          4.3480   -1.1390   -0.9130 ca        1 FNM     -0.119300
     11 C9          5.1950   -1.8980   -0.0990 ca        1 FNM     -0.108000
     12 C10         6.0120   -2.8780   -0.6670 ca        1 FNM     -0.123000
     13 C11         5.9950   -3.1000   -2.0430 ca        1 FNM     -0.099000
     14 C12         5.1600   -2.3340   -2.8580 ca        1 FNM     -0.123000
     15 C13         4.3420   -1.3560   -2.2990 ca        1 FNM     -0.108000
     16 C21        -0.6520    1.1530    0.1810 ca        1 FNM     -0.093400
     17 C22        -0.9970    1.6810    1.4370 ca        1 FNM     -0.092500
     18 C23        -1.4670    2.9900    1.5080 ca        1 FNM     -0.107500
     19 C24        -1.5810    3.7660    0.3530 ca        1 FNM     -0.065000
     20 C25        -1.2160    3.2370   -0.8870 ca        1 FNM     -0.107500
     21 C26        -0.7430    1.9310   -0.9870 ca        1 FNM     -0.092500
     22 C27         2.4740   -0.7580    4.0060 c3        1 FNM     -0.036000
     23 HN1        -0.5420   -0.6300   -0.8330 hn        1 FNM      0.483800
     24 H7          3.4530    2.1610   -0.3180 hc        1 FNM      0.072033
     25 H7A         5.1040    1.4090   -0.2190 hc        1 FNM      0.072033
     26 H7B         4.1960    1.3990   -1.7970 hc        1 FNM      0.072033
     27 H9          5.2450   -1.7320    0.9870 ha        1 FNM      0.146500
     28 H10         6.6770   -3.4720   -0.0210 ha        1 FNM      0.149500
     29 H11         6.6420   -3.8730   -2.4870 ha        1 FNM      0.151000
     30 H12         5.1490   -2.4990   -3.9460 ha        1 FNM      0.149500
     31 H13         3.6950   -0.7500   -2.9540 ha        1 FNM      0.146500
     32 H22        -0.8940    1.0820    2.3590 ha        1 FNM      0.168000
     33 H23        -1.7490    3.4120    2.4880 ha        1 FNM      0.172000
     34 H24        -1.9560    4.8010    0.4200 ha        1 FNM      0.171000
     35 H25        -1.3000    3.8530   -1.7990 ha        1 FNM      0.172000
     36 H26        -0.4430    1.5270   -1.9700 ha        1 FNM      0.168000
     37 H27         1.9470   -0.9350    4.9760 h1        1 FNM      0.100367
     38 H27A        3.0710    0.1800    4.0700 h1        1 FNM      0.100367
     39 H27B        3.1610   -1.6090    3.7960 h1        1 FNM      0.100367
     40 H121       -0.6380   -0.7960    0.8530 hn        1 FNM      0.483800
@<TRIPOS>BOND
     1    1    2 1   
     2    1   16 1   
     3    1   23 1   
     4    1   40 1   
     5    2    3 1   
     6    2    7 1   
     7    3    4 1   
     8    3    5 2   
     9    4   22 1   
    10    5    6 1   
    11    6    7 1   
    12    6    9 1   
    13    6   10 1   
    14    7    8 2   
    15    9   24 1   
    16    9   25 1   
    17    9   26 1   
    18   10   11 ar  
    19   10   15 ar  
    20   11   12 ar  
    21   11   27 1   
    22   12   13 ar  
    23   12   28 1   
    24   13   14 ar  
    25   13   29 1   
    26   14   15 ar  
    27   14   30 1   
    28   15   31 1   
    29   16   17 ar  
    30   16   21 ar  
    31   17   18 ar  
    32   17   32 1   
    33   18   19 ar  
    34   18   33 1   
    35   19   20 ar  
    36   19   34 1   
    37   20   21 ar  
    38   20   35 1   
    39   21   36 1   
    40   22   37 1   
    41   22   38 1   
    42   22   39 1   
@<TRIPOS>SUBSTRUCTURE
     1 FNM         1 TEMP              0 ****  ****    0 ROOT
