@<TRIPOS>MOLECULE
FNN
   15    15     1     0     0
SMALL
bcc


@<TRIPOS>ATOM
      1 F          -0.0660   -0.0890    0.0490 f         1 FNN     -0.055000
      2 N           0.4570   -0.0100   -2.7990 no        1 FNN      0.836400
      3 C1          3.5620   -0.1450    0.1670 c2        1 FNN      0.037000
      4 O1          0.8060    0.0200   -3.9510 o         1 FNN     -0.482200
      5 C2          2.2570   -0.1390    0.5790 c2        1 FNN     -0.158000
      6 O2         -0.7000   -0.0030   -2.4770 o         1 FNN     -0.482200
      7 C3          1.1980   -0.0930   -0.4120 c2        1 FNN      0.190000
      8 C4          1.5040   -0.0570   -1.7560 c2        1 FNN     -0.239000
      9 C5          2.9170   -0.0630   -2.2220 c3        1 FNN     -0.174000
     10 C6          3.9490   -0.1080   -1.2190 c1        1 FNN     -0.082000
     11 HO          5.3970   -0.1860    0.6650 ho        1 FNN      0.253000
     12 H2          1.9700   -0.1670    1.6430 ha        1 FNN      0.182000
     13 H5          3.0920   -0.9390   -2.9270 hc        1 FNN      0.203000
     14 H6          3.1180    0.8500   -2.8720 hc        1 FNN      0.203000
     15 O           4.5380   -0.1880    1.1260 oh        1 FNN     -0.232000
@<TRIPOS>BOND
     1    1    7 1   
     2    2    4 2   
     3    2    6 2   
     4    2    8 1   
     5    3    5 1   
     6    3   10 1   
     7    3   15 1   
     8    5    7 1   
     9    5   12 1   
    10    7    8 1   
    11    8    9 1   
    12    9   10 1   
    13    9   13 1   
    14    9   14 1   
    15   11   15 1   
@<TRIPOS>SUBSTRUCTURE
     1 FNN         1 TEMP              0 ****  ****    0 ROOT
