@<TRIPOS>MOLECULE
FNN
   15    15     1     0     0
SMALL
bcc


@<TRIPOS>ATOM
      1 F           0.5710    2.0980   -0.0910 f         1 FNN     -0.094900
      2 N           2.0460   -0.3740    0.0630 no        1 FNN      0.327200
      3 C1         -2.2200   -0.2460   -0.1170 ca        1 FNN      0.199100
      4 O1          2.5750   -1.4530    0.1260 o         1 FNN     -0.203500
      5 C2         -1.5100    0.9590   -0.1340 ca        1 FNN     -0.281000
      6 O2          2.6750    0.6480    0.0500 o         1 FNN     -0.203500
      7 C3         -0.1050    0.9340   -0.0750 ca        1 FNN      0.245900
      8 C4          0.5690   -0.3120   -0.0000 ca        1 FNN     -0.264200
      9 C5         -0.1720   -1.5100    0.0150 ca        1 FNN     -0.012000
     10 C6         -1.5540   -1.4860   -0.0430 ca        1 FNN     -0.184000
     11 HO         -3.9270    0.6130   -0.2200 ho        1 FNN      0.434000
     12 H2         -2.0290    1.9270   -0.1920 ha        1 FNN      0.165000
     13 H5          0.3630   -2.4770    0.0740 ha        1 FNN      0.180000
     14 H6         -2.1420   -2.4160   -0.0320 ha        1 FNN      0.171000
     15 O          -3.5860   -0.2940   -0.1710 oh        1 FNN     -0.478100
@<TRIPOS>BOND
     1    1    7 1   
     2    2    4 1   
     3    2    6 1   
     4    2    8 1   
     5    3    5 ar  
     6    3   10 ar  
     7    3   15 1   
     8    5    7 ar  
     9    5   12 1   
    10    7    8 ar  
    11    8    9 ar  
    12    9   10 ar  
    13    9   13 1   
    14   10   14 1   
    15   11   15 1   
@<TRIPOS>SUBSTRUCTURE
     1 FNN         1 TEMP              0 ****  ****    0 ROOT
