@<TRIPOS>MOLECULE
FNN
   15    15     1     0     0
SMALL
bcc


@<TRIPOS>ATOM
      1 F          -0.0680    0.0130    0.0380 f         1 FNN     -0.055000
      2 N           0.4660   -0.0000   -2.8100 no        1 FNN      0.836400
      3 C1          3.5560   -0.1500    0.1720 c2        1 FNN      0.037000
      4 O1          0.8190   -0.0110   -3.9600 o         1 FNN     -0.482200
      5 C2          2.2500   -0.0930    0.5790 c2        1 FNN     -0.158000
      6 O2         -0.6910    0.0500   -2.4930 o         1 FNN     -0.482200
      7 C3          1.1970   -0.0420   -0.4180 c2        1 FNN      0.190000
      8 C4          1.5070   -0.0510   -1.7620 c2        1 FNN     -0.239000
      9 C5          2.9210   -0.1130   -2.2220 c3        1 FNN     -0.174000
     10 C6          3.9490   -0.1630   -1.2130 c1        1 FNN     -0.082000
     11 HO          5.3870   -0.2340    0.6780 ho        1 FNN      0.253000
     12 H2          1.9590   -0.0840    1.6410 ha        1 FNN      0.182000
     13 H5          3.0710   -1.0130   -2.9020 hc        1 FNN      0.203000
     14 H6          3.1520    0.7750   -2.8950 hc        1 FNN      0.203000
     15 O           4.5270   -0.1970    1.1350 oh        1 FNN     -0.232000
@<TRIPOS>BOND
     1    1    7 1   
     2    2    4 2   
     3    2    6 2   
     4    2    8 1   
     5    3    5 1   
     6    3   10 1   
     7    3   15 1   
     8    5    7 1   
     9    5   12 1   
    10    7    8 1   
    11    8    9 1   
    12    9   10 1   
    13    9   13 1   
    14    9   14 1   
    15   11   15 1   
@<TRIPOS>SUBSTRUCTURE
     1 FNN         1 TEMP              0 ****  ****    0 ROOT
