@<TRIPOS>MOLECULE
FNN
   15    15     1     0     0
SMALL
bcc


@<TRIPOS>ATOM
      1 F           0.0780   -0.1430    0.1160 f         1 FNN     -0.056000
      2 N           0.4130   -0.0130   -2.7620 no        1 FNN      0.836400
      3 C1          3.7110   -0.1370   -0.0020 c2        1 FNN      0.050000
      4 O1          0.6850    0.0400   -3.9330 o         1 FNN     -0.483200
      5 C2          2.4330   -0.1590    0.4840 c2        1 FNN     -0.240000
      6 O2         -0.7200   -0.0310   -2.3660 o         1 FNN     -0.483200
      7 C3          1.3080   -0.1180   -0.4300 c2        1 FNN      0.199000
      8 C4          1.5250   -0.0570   -1.7890 c2        1 FNN     -0.241000
      9 C5          2.9060   -0.0320   -2.3400 c3        1 FNN     -0.192000
     10 C6          4.0190   -0.0730   -1.4210 c1        1 FNN      0.012000
     11 HO          4.5240   -0.2150    1.7280 ho        1 FNN      0.220000
     12 H2          2.2000   -0.2070    1.5600 ha        1 FNN      0.165000
     13 H5          3.0510   -0.8950   -3.0680 hc        1 FNN      0.202500
     14 H6          3.0510    0.8940   -2.9870 hc        1 FNN      0.202500
     15 O           4.8140   -0.1730    0.8020 oh        1 FNN     -0.193000
@<TRIPOS>BOND
     1    1    7 1   
     2    2    4 2   
     3    2    6 2   
     4    2    8 1   
     5    3    5 1   
     6    3   10 1   
     7    3   15 1   
     8    5    7 1   
     9    5   12 1   
    10    7    8 1   
    11    8    9 1   
    12    9   10 1   
    13    9   13 1   
    14    9   14 1   
    15   11   15 1   
@<TRIPOS>SUBSTRUCTURE
     1 FNN         1 TEMP              0 ****  ****    0 ROOT
