@<TRIPOS>MOLECULE
FNP
   30    29     1     0     0
SMALL
bcc


@<TRIPOS>ATOM
      1 C1         -0.4010    0.3200    3.8060 c2        1 FNP     -0.258000
      2 C2          0.2900   -0.2030   -2.4430 ca        1 FNP     -0.038000
      3 C3          1.7100   -0.1170   -2.4280 ca        1 FNP     -0.103000
      4 C4          2.3900    0.0220   -1.2440 ca        1 FNP     -0.177000
      5 C5          1.7010    0.0860   -0.0020 ca        1 FNP     -0.065000
      6 C6          2.3820    0.2200    1.2380 ca        1 FNP     -0.177000
      7 C7          1.6950    0.2880    2.4240 ca        1 FNP     -0.103000
      8 C8          0.2730    0.2270    2.4430 ca        1 FNP     -0.038000
      9 C9         -0.4020    0.0800    1.2480 ca        1 FNP     -0.150000
     10 C10         0.2830    0.0120   -0.0000 ca        1 FNP     -0.032000
     11 C11        -0.3940   -0.1280   -1.2470 ca        1 FNP     -0.150000
     12 F1         -1.7530    0.0650    3.7510 f         1 FNP     -0.230000
     13 F2         -0.3700    1.6210    4.2740 f         1 FNP     -0.230000
     14 P1         -0.0510   -0.5700    5.7060 p3        1 FNP      2.548000
     15 OP1        -0.9970    0.2010    6.5720 o         1 FNP     -1.225333
     16 OP2         1.4040   -0.2630    5.8940 o         1 FNP     -1.225333
     17 OP3        -0.3910   -2.0130    5.5130 o         1 FNP     -1.225333
     18 F3         -0.2090   -1.6570   -4.2740 f         1 FNP     -0.230000
     19 F4         -1.7450   -0.2530   -3.7470 f         1 FNP     -0.230000
     20 P2         -0.1220    0.5550   -5.7060 p3        1 FNP      2.548000
     21 OP4        -0.9850   -0.3100   -6.5700 o         1 FNP     -1.225333
     22 OP5        -0.6100    1.9550   -5.5120 o         1 FNP     -1.225333
     23 OP6         1.3570    0.4010   -5.8970 o         1 FNP     -1.225333
     24 HC3         2.2380   -0.1550   -3.3960 ha        1 FNP      0.162000
     25 HC4         3.4870    0.0910   -1.2340 ha        1 FNP      0.081000
     26 HC6         3.4800    0.2660    1.2260 ha        1 FNP      0.081000
     27 HC7         2.2180    0.3810    3.3910 ha        1 FNP      0.162000
     28 HC9        -1.5000    0.0170    1.2480 ha        1 FNP      0.120000
     29 H11        -1.4930   -0.1790   -1.2450 ha        1 FNP      0.120000
     30 C12        -0.3730   -0.3660   -3.8060 c2        1 FNP     -0.258000
@<TRIPOS>BOND
     1    1    8 1   
     2    1   12 1   
     3    1   13 1   
     4    2    3 1   
     5    2   11 1   
     6    2   30 1   
     7    3    4 1   
     8    3   24 1   
     9    4    5 1   
    10    4   25 1   
    11    5    6 1   
    12    5   10 1   
    13    6    7 1   
    14    6   26 1   
    15    7    8 1   
    16    7   27 1   
    17    8    9 1   
    18    9   10 1   
    19    9   28 1   
    20   10   11 1   
    21   11   29 1   
    22   14   15 1   
    23   14   16 1   
    24   14   17 1   
    25   18   30 1   
    26   19   30 1   
    27   20   21 1   
    28   20   22 1   
    29   20   23 1   
@<TRIPOS>SUBSTRUCTURE
     1 FNP         1 TEMP              0 ****  ****    0 ROOT
