@<TRIPOS>MOLECULE
FNP
   30    27     1     0     0
SMALL
bcc


@<TRIPOS>ATOM
      1 C1         -3.8100    0.1300   -0.3350 c3        1 FNP     -0.258000
      2 C2          2.3640    0.1120   -0.2270 c1        1 FNP     -0.038000
      3 C3          2.5230    0.1450    1.1550 c1        1 FNP     -0.140000
      4 C4          1.4080    0.1680    1.9830 c1        1 FNP     -0.140000
      5 C5          0.1160    0.1580    1.4240 c1        1 FNP     -0.065000
      6 C6         -1.0150    0.1800    2.2620 c1        1 FNP     -0.177000
      7 C7         -2.2890    0.1690    1.7090 c1        1 FNP     -0.103000
      8 C8         -2.4490    0.1360    0.3270 c2        1 FNP     -0.038000
      9 C9         -1.3330    0.1140   -0.5000 c2        1 FNP     -0.150000
     10 C10        -0.0410    0.1250    0.0580 c1        1 FNP     -0.032000
     11 C11         1.0900    0.1020   -0.7800 c1        1 FNP     -0.150000
     12 C12         3.5820   -0.2780   -1.0340 c3        1 FNP     -0.258000
     13 F1         -3.7170    0.6830   -1.5510 f         1 FNP     -0.230000
     14 F2         -4.6720    0.8320    0.4110 f         1 FNP     -0.230000
     15 P1         -4.3980   -1.5810   -0.4920 p5        1 FNP      1.589500
     16 OP1        -5.3370   -1.6840   -1.6700 o         1 FNP     -0.905833
     17 OP2        -5.1270   -1.9800    0.7690 o         1 FNP     -0.905833
     18 OP3        -3.2200   -2.5010   -0.7050 o         1 FNP     -0.905833
     19 F3          4.4450   -0.9360   -0.2500 f         1 FNP     -0.230000
     20 F4          3.2110   -1.0670   -2.0500 f         1 FNP     -0.230000
     21 P2          4.3780    1.2170   -1.6890 p5        1 FNP      1.589500
     22 OP4         4.8000    0.9770   -3.1190 o         1 FNP     -0.905833
     23 OP5         3.4030    2.3690   -1.6390 o         1 FNP     -0.905833
     24 OP6         5.5920    1.5480   -0.8540 o         1 FNP     -0.905833
     25 HC3         3.4190    0.1390    1.5430 ha        1 FNP      0.121500
     26 HC4         1.5210    0.1920    2.9520 ha        1 FNP      0.121500
     27 HC6        -0.9040    0.2040    3.2320 ha        1 FNP      0.081000
     28 HC7        -3.0740    0.1790    2.2910 ha        1 FNP      0.162000
     29 HC9        -1.4460    0.0710   -1.4690 ha        1 FNP      0.120000
     30 H11         0.9780    0.0790   -1.7490 ha        1 FNP      0.120000
@<TRIPOS>BOND
     1    1    8 1   
     2    1   13 1   
     3    1   14 1   
     4    1   15 1   
     5    2   11 1   
     6    2   12 1   
     7    3    4 1   
     8    3   25 1   
     9    4   26 1   
    10    5    6 1   
    11    5   10 1   
    12    6   27 1   
    13    7    8 1   
    14    7   28 1   
    15    8    9 1   
    16    9   10 1   
    17    9   29 1   
    18   11   30 1   
    19   12   19 1   
    20   12   20 1   
    21   12   21 1   
    22   15   16 1   
    23   15   17 1   
    24   15   18 1   
    25   21   22 1   
    26   21   23 1   
    27   21   24 1   
@<TRIPOS>SUBSTRUCTURE
     1 FNP         1 TEMP              0 ****  ****    0 ROOT
