@<TRIPOS>MOLECULE
FNP
   30    28     1     0     0
SMALL
bcc


@<TRIPOS>ATOM
      1 C1         -0.3140   -1.0430    0.4690 c2        1 FNP     -0.003000
      2 C2          6.6880    0.5280   -0.2290 c2        1 FNP     -0.037000
      3 C3          6.6540    0.5270    1.2620 c3        1 FNP     -0.120000
      4 C4          5.3710    0.2010    1.8830 c1        1 FNP     -0.296000
      5 C5          4.2080    0.0370    1.1590 c2        1 FNP     -0.232000
      6 C6          3.0600   -0.3030    1.9190 c2        1 FNP      0.073000
      7 C7          1.7460   -0.6010    1.6930 c2        1 FNP     -0.369000
      8 C8          0.9910   -0.6660    0.4900 c2        1 FNP     -0.060000
      9 C9          3.1390    0.2050   -1.0570 c1        1 FNP     -0.078000
     10 C10         4.2270    0.2140   -0.3020 c2        1 FNP     -0.197000
     11 C11         5.5410    0.4030   -0.9270 c2        1 FNP     -0.208000
     12 F1         -1.1610   -1.1450   -0.5870 f         1 FNP     -0.149500
     13 F2         -1.1360   -1.4200    1.4840 f         1 FNP     -0.149500
     14 P1         -3.4930   -1.9580    0.4370 p3        1 FNP      2.477000
     15 OP1        -3.9520   -0.6600   -0.0990 o         1 FNP     -1.181000
     16 OP2        -3.7160   -2.2440    1.8710 o         1 FNP     -1.181000
     17 OP3        -3.2540   -3.0960   -0.4750 o         1 FNP     -1.181000
     18 F3          8.9770   -0.1710   -0.3350 f         1 FNP     -0.231500
     19 F4          8.0680    0.3610   -2.2040 f         1 FNP     -0.231500
     20 P2          9.4710    2.3050   -1.0820 p3        1 FNP      2.477000
     21 OP4        10.5990    1.5780   -1.7450 o         1 FNP     -1.181000
     22 OP5         8.7650    3.3050   -1.9390 o         1 FNP     -1.181000
     23 OP6         9.7180    2.7200    0.3340 o         1 FNP     -1.181000
     24 HC3         7.4320   -0.1950    1.6400 hc        1 FNP      0.108500
     25 HC4         6.9740    1.5480    1.6220 hc        1 FNP      0.108500
     26 HC6         3.3160   -0.3460    3.0060 ha        1 FNP      0.089000
     27 HC7         1.1520   -0.8390    2.5970 ha        1 FNP      0.081000
     28 HC9         1.4680   -0.3990   -0.4830 ha        1 FNP      0.196000
     29 H11         5.5560    0.4260   -2.0270 ha        1 FNP      0.106000
     30 C12         8.0480    0.7050   -0.8670 c2        1 FNP     -0.265000
@<TRIPOS>BOND
     1    1    8 1   
     2    1   12 1   
     3    1   13 1   
     4    2    3 1   
     5    2   11 1   
     6    2   30 1   
     7    3    4 1   
     8    3   24 1   
     9    3   25 1   
    10    4    5 1   
    11    5    6 1   
    12    5   10 1   
    13    6    7 1   
    14    6   26 1   
    15    7    8 1   
    16    7   27 1   
    17    8   28 1   
    18    9   10 1   
    19   10   11 1   
    20   11   29 1   
    21   14   15 1   
    22   14   16 1   
    23   14   17 1   
    24   18   30 1   
    25   19   30 1   
    26   20   21 1   
    27   20   22 1   
    28   20   23 1   
@<TRIPOS>SUBSTRUCTURE
     1 FNP         1 TEMP              0 ****  ****    0 ROOT
