@<TRIPOS>MOLECULE
FNR
   52    54     1     0     0
SMALL
bcc


@<TRIPOS>ATOM
      1 C9A         2.6520    1.0920    0.4670 ca        1 FNR      0.018700
      2 N10         1.8150   -0.0260    0.7340 na        1 FNR     -0.132100
      3 CAA         2.3190   -1.2710    0.3410 cc        1 FNR      0.236300
      4 N1          1.4670   -2.3560    0.1170 n         1 FNR     -0.451100
      5 C2          1.9720   -3.6190   -0.2300 c         1 FNR      0.810500
      6 O2          1.2080   -4.6000   -0.3760 o         1 FNR     -0.654500
      7 N3          3.3540   -3.7710   -0.4180 n         1 FNR     -0.590500
      8 C4          4.2650   -2.7180   -0.2480 c         1 FNR      0.737100
      9 O4          5.4730   -2.9350   -0.4950 o         1 FNR     -0.686500
     10 C4A         3.7120   -1.4480    0.2030 cd        1 FNR     -0.347900
     11 N5          4.6180   -0.4050    0.5710 na        1 FNR     -0.150100
     12 C5A         4.0690    0.8950    0.3770 ca        1 FNR     -0.026300
     13 C6          4.9000    2.0050    0.1750 ca        1 FNR     -0.167000
     14 C7          4.3700    3.2950    0.0730 ca        1 FNR     -0.092300
     15 C7M         5.2770    4.4510   -0.1130 c3        1 FNR     -0.038800
     16 C8          2.9840    3.4820    0.1300 ca        1 FNR     -0.085300
     17 C8M         2.3980    4.8360   -0.0050 c3        1 FNR     -0.046800
     18 C9          2.1330    2.3840    0.3080 ca        1 FNR     -0.117000
     19 C1'         0.4120    0.1560    1.0540 c3        1 FNR     -0.027700
     20 C2'        -0.5690    0.2560   -0.1490 c3        1 FNR      0.166100
     21 O2'        -0.7760    1.6220   -0.4160 oh        1 FNR     -0.657800
     22 C3'        -1.8600   -0.4830    0.2140 c3        1 FNR      0.031100
     23 O3'        -1.5060   -1.8190    0.5800 oh        1 FNR     -0.675800
     24 C4'        -2.9010   -0.5300   -0.9260 c3        1 FNR      0.100100
     25 O4'        -2.8710    0.6630   -1.6750 oh        1 FNR     -0.647800
     26 C5'        -4.3090   -0.7510   -0.2930 c3        1 FNR      0.196400
     27 O5'        -4.9720    0.4230   -0.0490 os        1 FNR     -0.572200
     28 P          -4.5780    1.2720    1.4120 p5        1 FNR      1.335900
     29 O1P        -3.3950    2.0270    0.8290 o         1 FNR     -0.926500
     30 O2P        -4.1110    0.1500    2.3040 o         1 FNR     -0.926500
     31 O3P        -5.8120    2.0260    1.7760 o         1 FNR     -0.926500
     32 HN1         0.4630   -2.2630    0.1960 hn        1 FNR      0.410500
     33 H3          3.6820   -4.6660   -0.7020 hn        1 FNR      0.338500
     34 H5          5.4900   -0.5200    0.0790 hn        1 FNR      0.228700
     35 H7          5.9890    1.8640    0.1020 ha        1 FNR      0.121000
     36 H7M1        5.0880    4.9340   -1.1050 hc        1 FNR      0.031033
     37 H7M2        5.0960    5.2170    0.6830 hc        1 FNR      0.031033
     38 H7M3        6.3490    4.1420   -0.0690 hc        1 FNR      0.031033
     39 H8M1        2.7190    5.4820    0.8510 hc        1 FNR      0.041367
     40 H8M2        2.7490    5.3180   -0.9530 hc        1 FNR      0.041367
     41 H8M3        1.2810    4.7960   -0.0200 hc        1 FNR      0.041367
     42 H9          1.0350    2.5470    0.2960 ha        1 FNR      0.204000
     43 H1'1        0.1030   -0.6960    1.7260 h1        1 FNR      0.084700
     44 H1'2        0.3190    1.1040    1.6570 h1        1 FNR      0.084700
     45 H6         -0.1150   -0.1840   -1.0800 h1        1 FNR      0.034700
     46 H2'        -1.6510    1.8940   -0.0510 ho        1 FNR      0.507000
     47 H4         -2.3570    0.0560    1.0970 h1        1 FNR      0.168700
     48 H3'        -2.2070   -2.1110    1.1780 ho        1 FNR      0.433000
     49 H2         -2.6470   -1.3550   -1.6430 h1        1 FNR      0.019700
     50 H4'        -3.3220    1.3390   -1.1130 ho        1 FNR      0.474000
     51 H5'1       -4.9130   -1.3520   -1.0330 h1        1 FNR     -0.006300
     52 H5'2       -4.1930   -1.3460    0.6560 h1        1 FNR     -0.006300
@<TRIPOS>BOND
     1    1    2 1   
     2    1   12 ar  
     3    1   18 ar  
     4    2    3 1   
     5    2   19 1   
     6    3    4 1   
     7    3   10 2   
     8    4    5 1   
     9    4   32 1   
    10    5    6 2   
    11    5    7 1   
    12    7    8 1   
    13    7   33 1   
    14    8    9 2   
    15    8   10 1   
    16   10   11 1   
    17   11   12 1   
    18   11   34 1   
    19   12   13 ar  
    20   13   14 ar  
    21   13   35 1   
    22   14   15 1   
    23   14   16 ar  
    24   15   36 1   
    25   15   37 1   
    26   15   38 1   
    27   16   17 1   
    28   16   18 ar  
    29   17   39 1   
    30   17   40 1   
    31   17   41 1   
    32   18   42 1   
    33   19   20 1   
    34   19   43 1   
    35   19   44 1   
    36   20   21 1   
    37   20   22 1   
    38   20   45 1   
    39   21   46 1   
    40   22   23 1   
    41   22   24 1   
    42   22   47 1   
    43   23   48 1   
    44   24   25 1   
    45   24   26 1   
    46   24   49 1   
    47   25   50 1   
    48   26   27 1   
    49   26   51 1   
    50   26   52 1   
    51   27   28 1   
    52   28   29 1   
    53   28   30 1   
    54   28   31 1   
@<TRIPOS>SUBSTRUCTURE
     1 FNR         1 TEMP              0 ****  ****    0 ROOT
