@<TRIPOS>MOLECULE
FNR
   52    54     1     0     0
SMALL
bcc


@<TRIPOS>ATOM
      1 C9A         0.0560    0.0170   -0.2450 ca        1 FNR      0.018700
      2 N10         1.4740   -0.0380   -0.3230 na        1 FNR     -0.132100
      3 CAA         2.1520   -0.0560    0.9000 cc        1 FNR      0.236300
      4 N1          3.4880    0.3450    0.9900 n         1 FNR     -0.451100
      5 C2          4.1860    0.2830    2.2060 c         1 FNR      0.810500
      6 O2          5.3980    0.5900    2.2700 o         1 FNR     -0.654500
      7 N3          3.5050   -0.1250    3.3620 n         1 FNR     -0.590500
      8 C4          2.1540   -0.5040    3.3550 c         1 FNR      0.737100
      9 O4          1.6160   -0.7970    4.4460 o         1 FNR     -0.686500
     10 C4A         1.4900   -0.5160    2.0580 cd        1 FNR     -0.347900
     11 N5          0.1770   -1.0740    1.9720 na        1 FNR     -0.150100
     12 C5A        -0.5970   -0.5010    0.9230 ca        1 FNR     -0.026300
     13 C6         -1.9960   -0.5020    0.9760 ca        1 FNR     -0.167000
     14 C7         -2.7610   -0.0210   -0.0920 ca        1 FNR     -0.092300
     15 C7M        -4.2400   -0.0620   -0.0170 c3        1 FNR     -0.038800
     16 C8         -2.1220    0.5120   -1.2180 ca        1 FNR     -0.085300
     17 C8M        -2.9120    1.0550   -2.3480 c3        1 FNR     -0.046800
     18 C9         -0.7240    0.5450   -1.2820 ca        1 FNR     -0.117000
     19 C1'         2.1610    0.2630   -1.5650 c3        1 FNR     -0.027700
     20 C2'         2.4770    1.7610   -1.8400 c3        1 FNR      0.166100
     21 O2'         1.4480    2.2710   -2.6510 oh        1 FNR     -0.657800
     22 C3'         3.8570    1.8530   -2.4990 c3        1 FNR      0.031100
     23 O3'         4.7930    1.1980   -1.6390 oh        1 FNR     -0.675800
     24 C4'         4.3350    3.2990   -2.7590 c3        1 FNR      0.100100
     25 O4'         3.2490    4.1260   -3.1070 oh        1 FNR     -0.647800
     26 C5'         5.3930    3.2650   -3.9040 c3        1 FNR      0.196400
     27 O5'         4.8440    3.4700   -5.1430 os        1 FNR     -0.572200
     28 P           4.1200    2.1040   -5.9290 p5        1 FNR      1.335900
     29 O1P         2.7610    2.2570   -5.2680 o         1 FNR     -0.926500
     30 O2P         4.8860    0.9570   -5.3220 o         1 FNR     -0.926500
     31 O3P         4.2510    2.3760   -7.3910 o         1 FNR     -0.926500
     32 HN1         3.9900    0.6910    0.1840 hn        1 FNR      0.410500
     33 H3          4.0110   -0.1220    4.2180 hn        1 FNR      0.338500
     34 H5         -0.2870   -0.9960    2.8630 hn        1 FNR      0.228700
     35 H7         -2.5070   -0.8950    1.8680 ha        1 FNR      0.121000
     36 H7M1       -4.6560    0.9770   -0.0230 hc        1 FNR      0.031033
     37 H7M2       -4.6570   -0.6060   -0.9010 hc        1 FNR      0.031033
     38 H7M3       -4.5880   -0.5770    0.9120 hc        1 FNR      0.031033
     39 H8M1       -3.5080    0.2380   -2.8280 hc        1 FNR      0.041367
     40 H8M2       -3.6250    1.8360   -1.9830 hc        1 FNR      0.041367
     41 H8M3       -2.2490    1.5140   -3.1230 hc        1 FNR      0.041367
     42 H9         -0.2370    1.0220   -2.1590 ha        1 FNR      0.204000
     43 H1'1        3.1170   -0.3360   -1.5800 h1        1 FNR      0.084700
     44 H1'2        1.5200   -0.1160   -2.4120 h1        1 FNR      0.084700
     45 H6          2.4580    2.3600   -0.8880 h1        1 FNR      0.034700
     46 H2'         1.7680    2.3310   -3.5820 ho        1 FNR      0.507000
     47 H4          3.8140    1.3280   -3.5190 h1        1 FNR      0.168700
     48 H3'         5.5040    0.9010   -2.2210 ho        1 FNR      0.433000
     49 H2          4.7700    3.7330   -1.8200 h1        1 FNR      0.019700
     50 H4'         3.0270    3.8920   -4.0400 ho        1 FNR      0.474000
     51 H5'1        6.1280    4.0970   -3.6990 h1        1 FNR     -0.006300
     52 H5'2        5.9360    2.2780   -3.8690 h1        1 FNR     -0.006300
@<TRIPOS>BOND
     1    1    2 1   
     2    1   12 ar  
     3    1   18 ar  
     4    2    3 1   
     5    2   19 1   
     6    3    4 1   
     7    3   10 2   
     8    4    5 1   
     9    4   32 1   
    10    5    6 2   
    11    5    7 1   
    12    7    8 1   
    13    7   33 1   
    14    8    9 2   
    15    8   10 1   
    16   10   11 1   
    17   11   12 1   
    18   11   34 1   
    19   12   13 ar  
    20   13   14 ar  
    21   13   35 1   
    22   14   15 1   
    23   14   16 ar  
    24   15   36 1   
    25   15   37 1   
    26   15   38 1   
    27   16   17 1   
    28   16   18 ar  
    29   17   39 1   
    30   17   40 1   
    31   17   41 1   
    32   18   42 1   
    33   19   20 1   
    34   19   43 1   
    35   19   44 1   
    36   20   21 1   
    37   20   22 1   
    38   20   45 1   
    39   21   46 1   
    40   22   23 1   
    41   22   24 1   
    42   22   47 1   
    43   23   48 1   
    44   24   25 1   
    45   24   26 1   
    46   24   49 1   
    47   25   50 1   
    48   26   27 1   
    49   26   51 1   
    50   26   52 1   
    51   27   28 1   
    52   28   29 1   
    53   28   30 1   
    54   28   31 1   
@<TRIPOS>SUBSTRUCTURE
     1 FNR         1 TEMP              0 ****  ****    0 ROOT
