@<TRIPOS>MOLECULE
FNR
   52    54     1     0     0
SMALL
bcc


@<TRIPOS>ATOM
      1 C9A         0.2920    0.2210   -0.2590 ca        1 FNR      0.009700
      2 N10         1.7060    0.1420   -0.1220 na        1 FNR     -0.115100
      3 CAA         2.2270    0.0800    1.1660 cc        1 FNR      0.229300
      4 N1          3.6010    0.2780    1.3820 ns        1 FNR     -0.458100
      5 C2          4.1780    0.1140    2.6480 c         1 FNR      0.811500
      6 O2          5.4080    0.2940    2.8170 o         1 FNR     -0.678500
      7 N3          3.3630   -0.2700    3.7170 ns        1 FNR     -0.594500
      8 C4          1.9740   -0.4700    3.5860 c         1 FNR      0.743100
      9 O4          1.3610   -0.8600    4.6040 o         1 FNR     -0.680500
     10 C4A         1.4030   -0.2490    2.2640 cd        1 FNR     -0.348900
     11 N5         -0.0180   -0.3140    2.1640 na        1 FNR     -0.156100
     12 C5A        -0.5420   -0.0970    0.8570 ca        1 FNR     -0.043300
     13 C6         -1.9350   -0.1200    0.6790 ca        1 FNR     -0.156000
     14 C7         -2.5130    0.1870   -0.5550 ca        1 FNR     -0.105300
     15 C7M        -3.9850    0.1420   -0.7130 c3        1 FNR     -0.033800
     16 C8         -1.6940    0.5430   -1.6330 ca        1 FNR     -0.071300
     17 C8M        -2.2650    0.8960   -2.9550 c3        1 FNR     -0.058800
     18 C9         -0.3030    0.5730   -1.4810 ca        1 FNR     -0.106000
     19 C1'         2.5690    0.3970   -1.2600 c3        1 FNR     -0.066700
     20 C2'         3.0640    1.8540   -1.4330 c3        1 FNR      0.176100
     21 O2'         2.0310    2.6750   -1.9040 oh        1 FNR     -0.655800
     22 C3'         4.2660    1.7780   -2.3940 c3        1 FNR      0.034100
     23 O3'         5.3460    1.2610   -1.6100 oh        1 FNR     -0.646800
     24 C4'         4.6540    3.1120   -3.0520 c3        1 FNR      0.098100
     25 O4'         4.1700    4.2410   -2.3500 oh        1 FNR     -0.640800
     26 C5'         4.1870    3.1310   -4.5320 c3        1 FNR      0.182400
     27 O5'         2.8390    2.9050   -4.6510 os        1 FNR     -0.584200
     28 P           2.3300    1.3640   -5.2530 p5        1 FNR      1.334900
     29 O1P         1.4440    1.0200   -4.0670 o         1 FNR     -0.919833
     30 O2P         3.6150    0.5790   -5.2350 o         1 FNR     -0.919833
     31 O3P         1.6770    1.6470   -6.5640 o         1 FNR     -0.919833
     32 HN1         4.2040    0.5870    0.6370 hn        1 FNR      0.389500
     33 H3          3.7940   -0.3840    4.6050 hn        1 FNR      0.334500
     34 H5         -0.3400   -1.1950    2.5340 hn        1 FNR      0.209700
     35 H7         -2.5850   -0.3760    1.5290 ha        1 FNR      0.117000
     36 H7M1       -4.2690   -0.6570   -1.4440 hc        1 FNR      0.027033
     37 H7M2       -4.4960   -0.0690    0.2580 hc        1 FNR      0.027033
     38 H7M3       -4.3610    1.1190   -1.1090 hc        1 FNR      0.027033
     39 H8M1       -2.8580    1.8410   -2.8780 hc        1 FNR      0.050367
     40 H8M2       -2.9490    0.0850   -3.3120 hc        1 FNR      0.050367
     41 H8M3       -1.4490    1.0420   -3.7130 hc        1 FNR      0.050367
     42 H9          0.3090    0.8860   -2.3700 ha        1 FNR      0.267000
     43 H1'1        3.4610   -0.2890   -1.1810 h1        1 FNR      0.115700
     44 H1'2        2.0230    0.1160   -2.2210 h1        1 FNR      0.115700
     45 H6          3.3860    2.3180   -0.4590 h1        1 FNR      0.038700
     46 H2'         1.8300    2.4080   -2.8410 ho        1 FNR      0.498000
     47 H4          4.0080    1.0540   -3.2440 h1        1 FNR      0.150700
     48 H3'         5.9880    0.9280   -2.2450 ho        1 FNR      0.397000
     49 H2          5.7750    3.2230   -3.0130 h1        1 FNR      0.025700
     50 H4'         3.2190    4.2870   -2.5340 ho        1 FNR      0.432000
     51 H5'1        4.7820    2.3630   -5.1010 h1        1 FNR      0.010700
     52 H5'2        4.4240    4.1630   -4.9280 h1        1 FNR      0.010700
@<TRIPOS>BOND
     1    1    2 1   
     2    1   12 ar  
     3    1   18 ar  
     4    2    3 1   
     5    2   19 1   
     6    3    4 1   
     7    3   10 2   
     8    4    5 1   
     9    4   32 1   
    10    5    6 2   
    11    5    7 1   
    12    7    8 1   
    13    7   33 1   
    14    8    9 2   
    15    8   10 1   
    16   10   11 1   
    17   11   12 1   
    18   11   34 1   
    19   12   13 ar  
    20   13   14 ar  
    21   13   35 1   
    22   14   15 1   
    23   14   16 ar  
    24   15   36 1   
    25   15   37 1   
    26   15   38 1   
    27   16   17 1   
    28   16   18 ar  
    29   17   39 1   
    30   17   40 1   
    31   17   41 1   
    32   18   42 1   
    33   19   20 1   
    34   19   43 1   
    35   19   44 1   
    36   20   21 1   
    37   20   22 1   
    38   20   45 1   
    39   21   46 1   
    40   22   23 1   
    41   22   24 1   
    42   22   47 1   
    43   23   48 1   
    44   24   25 1   
    45   24   26 1   
    46   24   49 1   
    47   25   50 1   
    48   26   27 1   
    49   26   51 1   
    50   26   52 1   
    51   27   28 1   
    52   28   29 1   
    53   28   30 1   
    54   28   31 1   
@<TRIPOS>SUBSTRUCTURE
     1 FNR         1 TEMP              0 ****  ****    0 ROOT
