@<TRIPOS>MOLECULE
FNR
   52    54     1     0     0
SMALL
bcc


@<TRIPOS>ATOM
      1 C9A        -0.1230    0.1790    0.0140 ca        1 FNR      0.049700
      2 N10         1.2840    0.1870   -0.0430 na        1 FNR     -0.168100
      3 CAA         2.0240    0.1370    1.1670 cc        1 FNR      0.365100
      4 N1          3.3720    0.3270    1.1150 nc        1 FNR     -0.512400
      5 C2          4.0960    0.1890    2.2910 cd        1 FNR      0.422000
      6 O2          5.3430    0.3720    2.3520 o         1 FNR     -0.453000
      7 N3          3.4640   -0.1870    3.5070 n         1 FNR     -0.609500
      8 C4          2.0820   -0.3730    3.5940 c         1 FNR      0.728100
      9 O4          1.5890   -0.7460    4.6940 o         1 FNR     -0.761500
     10 C4A         1.3260   -0.1440    2.3770 cd        1 FNR     -0.424900
     11 N5         -0.0930   -0.1240    2.4700 na        1 FNR     -0.156100
     12 C5A        -0.7890   -0.1500    1.2510 ca        1 FNR      0.010700
     13 C6         -2.1770   -0.3550    1.2380 ca        1 FNR     -0.192000
     14 C7         -2.9370   -0.1530    0.0810 ca        1 FNR     -0.100300
     15 C7M        -4.4010   -0.3770    0.1110 c3        1 FNR     -0.030800
     16 C8         -2.3060    0.2760   -1.0880 ca        1 FNR     -0.109300
     17 C8M        -3.0940    0.5490   -2.3130 c3        1 FNR     -0.032800
     18 C9         -0.9150    0.4460   -1.1120 ca        1 FNR     -0.159000
     19 C1'         1.9730    0.3000   -1.3070 c3        1 FNR      0.054300
     20 C2'         2.3930    1.7300   -1.7140 c3        1 FNR      0.103100
     21 O2'         1.2700    2.2940   -2.3740 oh        1 FNR     -0.624800
     22 C3'         3.6070    1.7070   -2.6680 c3        1 FNR      0.076100
     23 O3'         4.5740    0.7550   -2.2670 oh        1 FNR     -0.602800
     24 C4'         4.2670    3.1000   -2.7510 c3        1 FNR      0.095100
     25 O4'         3.2960    4.0930   -3.0280 oh        1 FNR     -0.632800
     26 C5'         5.4070    3.1250   -3.7870 c3        1 FNR      0.165400
     27 O5'         4.8950    3.4500   -5.0400 os        1 FNR     -0.587200
     28 P           5.3670    2.5010   -6.3190 p5        1 FNR      1.432800
     29 O1P         4.4750    1.1910   -5.9300 oh        1 FNR     -0.786400
     30 O2P         6.7550    2.0750   -6.0430 o         1 FNR     -0.836000
     31 O3P         4.8620    3.1400   -7.5460 o         1 FNR     -0.836000
     32 HN1         4.7710    0.9150   -1.3320 ho        1 FNR      0.422000
     33 H3          4.0210   -0.3100    4.3180 hn        1 FNR      0.307500
     34 H5         -0.4220   -0.8030    3.1340 hn        1 FNR      0.230700
     35 H7         -2.6870   -0.6630    2.1640 ha        1 FNR      0.116000
     36 H7M1       -4.7340   -0.7660    1.1040 hc        1 FNR      0.023367
     37 H7M2       -4.6990   -1.1140   -0.6760 hc        1 FNR      0.023367
     38 H7M3       -4.9430    0.5810   -0.0920 hc        1 FNR      0.023367
     39 H8M1       -3.8880    1.3090   -2.1040 hc        1 FNR      0.027700
     40 H8M2       -3.5970   -0.3860   -2.6680 hc        1 FNR      0.027700
     41 H8M3       -2.4450    0.9350   -3.1370 hc        1 FNR      0.027700
     42 H9         -0.4500    0.8180   -2.0410 ha        1 FNR      0.162000
     43 H1'1        2.9010   -0.3400   -1.2610 h1        1 FNR      0.073200
     44 H1'2        1.3180   -0.1190   -2.1220 h1        1 FNR      0.073200
     45 H6          2.6550    2.3440   -0.8080 h1        1 FNR      0.058700
     46 H2'         1.4860    3.2160   -2.5650 ho        1 FNR      0.419000
     47 H4          3.2850    1.3770   -3.6970 h1        1 FNR      0.104700
     48 H3'         4.9330    0.5960   -5.3460 ho        1 FNR      0.433000
     49 H2          4.6760    3.3680   -1.7360 h1        1 FNR      0.053700
     50 H4'         3.2120    4.1550   -3.9920 ho        1 FNR      0.436000
     51 H5'1        6.1370    3.9250   -3.4740 h1        1 FNR      0.038200
     52 H5'2        5.9300    2.1300   -3.8120 h1        1 FNR      0.038200
@<TRIPOS>BOND
     1    1    2 1   
     2    1   12 ar  
     3    1   18 ar  
     4    2    3 1   
     5    2   19 1   
     6    3    4 1   
     7    3   10 2   
     8    4    5 2   
     9    5    6 1   
    10    5    7 1   
    11    7    8 1   
    12    7   33 1   
    13    8    9 2   
    14    8   10 1   
    15   10   11 1   
    16   11   12 1   
    17   11   34 1   
    18   12   13 ar  
    19   13   14 ar  
    20   13   35 1   
    21   14   15 1   
    22   14   16 ar  
    23   15   36 1   
    24   15   37 1   
    25   15   38 1   
    26   16   17 1   
    27   16   18 ar  
    28   17   39 1   
    29   17   40 1   
    30   17   41 1   
    31   18   42 1   
    32   19   20 1   
    33   19   43 1   
    34   19   44 1   
    35   20   21 1   
    36   20   22 1   
    37   20   45 1   
    38   21   46 1   
    39   22   23 1   
    40   22   24 1   
    41   22   47 1   
    42   23   32 1   
    43   24   25 1   
    44   24   26 1   
    45   24   49 1   
    46   25   50 1   
    47   26   27 1   
    48   26   51 1   
    49   26   52 1   
    50   27   28 1   
    51   28   29 1   
    52   28   30 1   
    53   28   31 1   
    54   29   48 1   
@<TRIPOS>SUBSTRUCTURE
     1 FNR         1 TEMP              0 ****  ****    0 ROOT
