@<TRIPOS>MOLECULE
FNR
   52    49     1     0     0
SMALL
bcc


@<TRIPOS>ATOM
      1 C9A        -1.1750   -0.3270    1.5430 c1        1 FNR      0.016000
      2 N10         0.3010   -0.3790    1.5320 n2        1 FNR     -0.192000
      3 CAA         1.0420   -0.2760    2.7820 c2        1 FNR      0.241000
      4 N1          2.4120   -0.3680    2.7810 n2        1 FNR     -0.307000
      5 C2          3.1220   -0.3170    4.0010 c1        1 FNR      0.399000
      6 O2          4.3140   -0.2920    3.9950 o         1 FNR     -0.406000
      7 N3          2.4360   -0.1740    5.1960 n2        1 FNR     -0.377000
      8 C4          1.0800   -0.0820    5.1960 c1        1 FNR      0.384000
      9 O4          0.4610   -0.0960    6.2730 o         1 FNR     -0.390000
     10 C4A         0.3650   -0.1340    3.9710 c2        1 FNR     -0.290000
     11 N5         -1.0980   -0.0840    3.9820 n3        1 FNR     -0.150000
     12 C5A        -1.8450   -0.1770    2.7240 c2        1 FNR     -0.037000
     13 C6         -3.2650   -0.1160    2.7280 c1        1 FNR     -0.131000
     14 C7         -3.9600   -0.2080    1.5440 c1        1 FNR     -0.103000
     15 C7M        -5.3910   -0.5740    1.7290 c3        1 FNR     -0.163000
     16 C8         -3.2700   -0.3610    0.3330 c1        1 FNR     -0.046000
     17 C8M        -3.9850    0.0770   -0.9270 c2        1 FNR     -0.196000
     18 C9         -1.8960   -0.4210    0.3240 c2        1 FNR     -0.131000
     19 C1'         0.8170    0.6140    0.5780 c3        1 FNR     -0.072000
     20 C2'         1.6710   -0.1120   -0.5280 c3        1 FNR     -0.074000
     21 O2'         2.9720   -0.2440   -0.0920 oh        1 FNR     -0.407000
     22 C3'         1.6480    0.7010   -1.8080 c3        1 FNR      0.183000
     23 O3'         0.3400    1.1750   -2.0410 oh        1 FNR     -0.720000
     24 C4'         2.0760   -0.1650   -2.9490 c3        1 FNR     -0.069000
     25 O4'         3.4460   -0.3910   -2.8740 oh        1 FNR     -0.381000
     26 C5'         1.7360    0.5410   -4.2970 c3        1 FNR      0.008000
     27 O5'         1.9130   -0.3910   -5.3870 os        1 FNR     -0.758000
     28 P           1.7720    0.1440   -6.8530 p5        1 FNR      1.585500
     29 O1P         2.7330    1.2450   -7.0660 o         1 FNR     -0.742833
     30 O2P         0.3890    0.6420   -7.0680 o         1 FNR     -0.742833
     31 O3P         2.0700   -0.9940   -7.8490 o         1 FNR     -0.742833
     32 HN1         2.8610   -0.5410    1.9910 hn        1 FNR      0.311000
     33 H3          2.9210   -0.1030    6.0220 hn        1 FNR      0.247000
     34 H5         -1.3630    0.6260    4.4270 hn        1 FNR      0.153000
     35 H7         -3.7410   -0.0510    3.5560 ha        1 FNR      0.123000
     36 H7M1       -5.5640   -0.7170    2.6550 hc        1 FNR      0.070000
     37 H7M2       -5.9410    0.1280    1.4090 hc        1 FNR      0.070000
     38 H7M3       -5.5890   -1.4130    1.2180 hc        1 FNR      0.070000
     39 H8M1       -4.4020   -0.7140   -1.3630 ha        1 FNR      0.099667
     40 H8M2       -3.3590    0.4820   -1.5260 ha        1 FNR      0.099667
     41 H8M3       -4.6760    0.7210   -0.6970 ha        1 FNR      0.099667
     42 H9         -1.4410   -0.6310   -0.4750 ha        1 FNR      0.246000
     43 H1'1        0.1190    1.0510    0.1850 h1        1 FNR      0.131500
     44 H1'2        1.3720    1.2500    1.0490 h1        1 FNR      0.131500
     45 H6          1.2860   -1.0200   -0.7050 h1        1 FNR      0.071000
     46 H2'         3.2590   -1.0880   -0.2510 ho        1 FNR      0.235000
     47 H4          2.2910    1.4970   -1.7230 h1        1 FNR     -0.026000
     48 H3'         0.3730    2.0180   -2.2930 ho        1 FNR      0.266000
     49 H2          1.6080   -1.0080   -2.9020 h1        1 FNR      0.078000
     50 H4'         3.6550   -1.1160   -3.3510 ho        1 FNR      0.188000
     51 H5'1        2.3310    1.3110   -4.4230 h1        1 FNR      0.074000
     52 H5'2        0.7680    0.8610   -4.2770 h1        1 FNR      0.074000
@<TRIPOS>BOND
     1    1   12 1   
     2    1   18 1   
     3    2    3 1   
     4    2   19 1   
     5    3    4 1   
     6    3   10 1   
     7    4   32 1   
     8    5    6 1   
     9    5    7 1   
    10    7   33 1   
    11    8    9 1   
    12    8   10 1   
    13   10   11 1   
    14   11   12 1   
    15   11   34 1   
    16   12   13 1   
    17   13   35 1   
    18   14   15 1   
    19   14   16 1   
    20   15   36 1   
    21   15   37 1   
    22   15   38 1   
    23   16   18 1   
    24   17   39 1   
    25   17   40 1   
    26   17   41 1   
    27   18   42 1   
    28   19   20 1   
    29   19   43 1   
    30   19   44 1   
    31   20   21 1   
    32   20   22 1   
    33   20   45 1   
    34   21   46 1   
    35   22   23 1   
    36   22   24 1   
    37   22   47 1   
    38   23   48 1   
    39   24   25 1   
    40   24   26 1   
    41   24   49 1   
    42   25   50 1   
    43   26   27 1   
    44   26   51 1   
    45   26   52 1   
    46   27   28 1   
    47   28   29 1   
    48   28   30 1   
    49   28   31 1   
@<TRIPOS>SUBSTRUCTURE
     1 FNR         1 TEMP              0 ****  ****    0 ROOT
