@<TRIPOS>MOLECULE
FNS
   54    56     1     0     0
SMALL
bcc


@<TRIPOS>ATOM
      1 N1          0.0000    0.0000    0.0000 nc        1 FNS     -0.438400
      2 C2          1.3690    0.0000    0.0000 cd        1 FNS      0.379000
      3 O2          1.9860    0.0080   -1.0530 o         1 FNS     -0.419000
      4 N3          1.9720    0.0000    1.2920 ns        1 FNS     -0.280500
      5 C4          1.3190    0.1120    2.5300 c         1 FNS      0.692100
      6 O4          1.9490   -0.0240    3.5870 o         1 FNS     -0.650500
      7 C4A        -0.0720    0.4330    2.3250 cd        1 FNS     -0.316900
      8 N5         -0.7930    1.0530    3.2750 na        1 FNS      0.293400
      9 S          -0.2070    2.6160    4.0780 s6        1 FNS      0.711800
     10 O1S         1.3190    2.8300    3.8130 o         1 FNS     -0.500200
     11 O2S        -0.4370    2.5570    5.6150 o         1 FNS     -0.500200
     12 O3S        -1.0070    3.8260    3.5050 o         1 FNS     -0.500200
     13 C5A        -1.9990    0.5310    3.5600 ca        1 FNS     -0.090300
     14 C6         -2.5100    0.4910    4.8350 ca        1 FNS     -0.098000
     15 C7         -3.8740    0.3760    5.0150 ca        1 FNS     -0.086300
     16 C7M        -4.4040    0.2850    6.4330 c3        1 FNS      0.069200
     17 C8         -4.7110    0.2840    3.9070 ca        1 FNS     -0.049300
     18 C8M        -6.1940    0.1350    4.0810 c3        1 FNS      0.051200
     19 C9         -4.1790    0.2380    2.6410 ca        1 FNS     -0.131000
     20 C9A        -2.8180    0.3330    2.4700 ca        1 FNS     -0.150300
     21 N10        -2.1560    0.2900    1.2280 na        1 FNS      0.429900
     22 C10        -0.7730    0.2190    1.1310 cc        1 FNS      0.129100
     23 C1'        -2.8410    0.2700    0.0910 c3        1 FNS     -0.115700
     24 C2'        -3.0340   -1.1580   -0.3540 c3        1 FNS      0.133100
     25 O2'        -1.7990   -1.6750   -0.9010 oh        1 FNS     -0.537800
     26 C3'        -4.1930   -1.2070   -1.3270 c3        1 FNS      0.126100
     27 O3'        -3.8950   -0.3200   -2.4260 oh        1 FNS     -0.570800
     28 C4'        -5.4970   -0.7880   -0.6940 c3        1 FNS      0.115100
     29 O4'        -5.7900   -1.2910    0.6010 oh        1 FNS     -0.545800
     30 C5'        -6.5000   -1.2630   -1.6440 c3        1 FNS      0.249400
     31 O5'        -7.7160   -0.6460   -1.3650 os        1 FNS     -0.479200
     32 P          -8.9060   -1.4270   -0.6500 p5        1 FNS      0.916900
     33 O1P        -8.4640   -1.5090    0.7570 o         1 FNS     -0.563833
     34 O2P        -9.0150   -2.7210   -1.3960 o         1 FNS     -0.563833
     35 O3P        -9.9930   -0.4540   -0.9060 o         1 FNS     -0.563833
     36 HN3         2.9730   -0.0040    1.3160 hn        1 FNS      0.168500
     37 H6         -1.8430    0.4040    5.6840 ha        1 FNS      0.144000
     38 HM71       -5.0110    1.1560    6.6480 hc        1 FNS      0.004033
     39 HM72       -3.5740    0.2430    7.1270 hc        1 FNS      0.004033
     40 HM73       -5.0070   -0.6090    6.5360 hc        1 FNS      0.004033
     41 HM81       -6.5110    0.6780    4.9630 hc        1 FNS      0.017700
     42 HM82       -6.7010    0.5320    3.2100 hc        1 FNS      0.017700
     43 HM83       -6.4400   -0.9140    4.1950 hc        1 FNS      0.017700
     44 H9         -4.8320    0.1670    1.7790 ha        1 FNS      0.169000
     45 H1'1       -3.8070    0.7350    0.2440 h1        1 FNS      0.078700
     46 H1'2       -2.2940    0.8150   -0.6690 h1        1 FNS      0.078700
     47 H2'        -3.2940   -1.7520    0.5130 h1        1 FNS      0.008700
     48 HO2'       -1.8730   -2.6070   -1.0200 ho        1 FNS      0.362000
     49 H3'        -4.2930   -2.2170   -1.7050 h1        1 FNS     -0.005300
     50 HO3'       -3.7430   -0.8270   -3.2060 ho        1 FNS      0.383000
     51 H4'        -5.5340    0.2940   -0.6610 h1        1 FNS      0.062700
     52 HO4'       -5.7380   -2.2320    0.5910 ho        1 FNS      0.383000
     53 H5'1       -6.6090   -2.3370   -1.5520 h1        1 FNS     -0.021800
     54 H5'2       -6.1910   -1.0160   -2.6530 h1        1 FNS     -0.021800
@<TRIPOS>BOND
     1    1    2 2   
     2    1   22 1   
     3    2    3 1   
     4    2    4 1   
     5    4    5 1   
     6    4   36 1   
     7    5    6 2   
     8    5    7 1   
     9    7    8 1   
    10    7   22 2   
    11    8    9 1   
    12    8   13 1   
    13    9   10 1   
    14    9   11 1   
    15    9   12 1   
    16   13   14 ar  
    17   13   20 ar  
    18   14   15 ar  
    19   14   37 1   
    20   15   16 1   
    21   15   17 ar  
    22   16   38 1   
    23   16   39 1   
    24   16   40 1   
    25   17   18 1   
    26   17   19 ar  
    27   18   41 1   
    28   18   42 1   
    29   18   43 1   
    30   19   20 ar  
    31   19   44 1   
    32   20   21 1   
    33   21   22 1   
    34   21   23 1   
    35   23   24 1   
    36   23   45 1   
    37   23   46 1   
    38   24   25 1   
    39   24   26 1   
    40   24   47 1   
    41   25   48 1   
    42   26   27 1   
    43   26   28 1   
    44   26   49 1   
    45   27   50 1   
    46   28   29 1   
    47   28   30 1   
    48   28   51 1   
    49   29   52 1   
    50   30   31 1   
    51   30   53 1   
    52   30   54 1   
    53   31   32 1   
    54   32   33 1   
    55   32   34 1   
    56   32   35 1   
@<TRIPOS>SUBSTRUCTURE
     1 FNS         1 TEMP              0 ****  ****    0 ROOT
