@<TRIPOS>MOLECULE
FNT
   31    32     1     0     0
SMALL
bcc


@<TRIPOS>ATOM
      1 C1         -0.0570   -0.1610    0.0310 ca        1 FNT     -0.102000
      2 CL1         1.2650   -1.0870   -2.5590 cl        1 FNT     -0.119000
      3 C2          1.3510   -0.2930    0.0410 ca        1 FNT     -0.093300
      4 C3          2.0690    0.0070    1.2280 ca        1 FNT     -0.081000
      5 C4          1.3560    0.4300    2.3770 ca        1 FNT     -0.118000
      6 C5         -0.0160    0.5510    2.3420 ca        1 FNT     -0.099000
      7 C6         -0.7270    0.2540    1.1610 ca        1 FNT     -0.098000
      8 C7          2.1110   -0.7220   -1.1160 ca        1 FNT      0.500300
      9 N8          3.4280   -0.8480   -1.1260 nb        1 FNT     -0.638000
     10 C9          4.1240   -0.5650    0.0250 ca        1 FNT      0.251800
     11 C08         8.4680   -1.2780   -1.9980 c3        1 FNT     -0.104100
     12 C10         3.4990   -0.1390    1.2050 ca        1 FNT      0.131800
     13 C12         5.6000   -0.7470   -0.0000 c         1 FNT      0.474600
     14 O13         6.2670   -1.1860    0.9290 o         1 FNT     -0.429100
     15 N14         6.2590   -0.3440   -1.2680 n4        1 FNT     -0.647800
     16 C15         7.7520   -0.1980   -1.2220 c3        1 FNT     -0.061500
     17 C16         8.1490    1.2450   -1.7990 c         1 FNT      0.933600
     18 O17         9.3680    1.4680   -1.8720 o         1 FNT     -0.763300
     19 O18         7.1750    1.9920   -2.0920 o         1 FNT     -0.763300
     20 O19         4.3100    0.1300    2.2640 oh        1 FNT     -0.454100
     21 H1         -0.6160   -0.3920   -0.8910 ha        1 FNT      0.162000
     22 H4          1.8930    0.6670    3.3080 ha        1 FNT      0.138000
     23 H5         -0.5680    0.8820    3.2360 ha        1 FNT      0.152000
     24 H6         -1.8240    0.3580    1.1510 ha        1 FNT      0.153000
     25 HN14        5.9940   -1.0080   -2.0010 hn        1 FNT      0.475800
     26 H15         8.0790   -0.2130   -0.1450 hx        1 FNT      0.105700
     27 HO19        3.7770    0.4330    3.0160 ho        1 FNT      0.444000
     28 H08         9.5580   -1.0120   -1.9950 hc        1 FNT      0.057700
     29 H08A        8.3370   -2.2830   -1.5320 hc        1 FNT      0.057700
     30 H142        5.8990    0.6100   -1.5500 hn        1 FNT      0.475800
     31 H08B        8.1290   -1.3200   -3.0620 hc        1 FNT      0.057700
@<TRIPOS>BOND
     1    1    3 ar  
     2    1    7 ar  
     3    1   21 1   
     4    2    8 1   
     5    3    4 ar  
     6    3    8 ar  
     7    4    5 ar  
     8    4   12 ar  
     9    5    6 ar  
    10    5   22 1   
    11    6    7 ar  
    12    6   23 1   
    13    7   24 1   
    14    8    9 ar  
    15    9   10 ar  
    16   10   12 ar  
    17   10   13 1   
    18   11   16 1   
    19   11   28 1   
    20   11   29 1   
    21   11   31 1   
    22   12   20 1   
    23   13   14 2   
    24   13   15 1   
    25   15   16 1   
    26   15   25 1   
    27   15   30 1   
    28   16   17 1   
    29   16   26 1   
    30   17   18 1   
    31   17   19 1   
    32   20   27 1   
@<TRIPOS>SUBSTRUCTURE
     1 FNT         1 TEMP              0 ****  ****    0 ROOT
