@<TRIPOS>MOLECULE
FNT
   31    32     1     0     0
SMALL
bcc


@<TRIPOS>ATOM
      1 C1         -0.0840   -0.1660   -0.0100 ca        1 FNT     -0.111000
      2 CL1         1.4030   -0.7690   -2.6200 cl        1 FNT     -0.119000
      3 C2          1.3260   -0.1620    0.0310 ca        1 FNT     -0.097300
      4 C3          1.9800    0.1100    1.2580 ca        1 FNT     -0.065000
      5 C4          1.2160    0.3700    2.4180 ca        1 FNT     -0.080000
      6 C5         -0.1640    0.3610    2.3540 ca        1 FNT     -0.117000
      7 C6         -0.8140    0.0920    1.1350 ca        1 FNT     -0.090000
      8 C7          2.1650   -0.4220   -1.1260 ca        1 FNT      0.508300
      9 N8          3.4820   -0.4090   -1.0930 nb        1 FNT     -0.649000
     10 C9          4.1290   -0.1390    0.0990 ca        1 FNT      0.183800
     11 C08         8.3390   -1.4820   -1.6820 c3        1 FNT     -0.105100
     12 C10         3.4250    0.1150    1.2860 ca        1 FNT      0.177800
     13 C12         5.6090   -0.1310    0.0760 c         1 FNT      0.477600
     14 O13         6.3030   -0.1040    1.0970 o         1 FNT     -0.505100
     15 N14         6.2690   -0.1360   -1.2470 n4        1 FNT     -0.638800
     16 C15         7.7710   -0.1520   -1.2470 c3        1 FNT     -0.065500
     17 C16         8.2960    1.0180   -2.2150 c         1 FNT      0.935600
     18 O17         9.5250    1.0520   -2.3820 o         1 FNT     -0.759300
     19 O18         7.3950    1.7750   -2.6700 o         1 FNT     -0.759300
     20 O19         3.9600    0.3740    2.5020 oh        1 FNT     -0.471100
     21 H1         -0.6010   -0.3740   -0.9610 ha        1 FNT      0.161000
     22 H4          1.7400    0.5810    3.3650 ha        1 FNT      0.165000
     23 H5         -0.7620    0.5650    3.2550 ha        1 FNT      0.152000
     24 H6         -1.9150    0.0890    1.0990 ha        1 FNT      0.151000
     25 HN14        5.9160   -0.9240   -1.7980 hn        1 FNT      0.482300
     26 H15         8.1350    0.1090   -0.2140 hx        1 FNT      0.108700
     27 HO19        4.9340    0.3950    2.4670 ho        1 FNT      0.473000
     28 H08         8.1230   -2.2900   -0.9440 hc        1 FNT      0.058033
     29 H08A        7.9560   -1.7900   -2.6850 hc        1 FNT      0.058033
     30 H142        6.0060    0.7560   -1.7570 hn        1 FNT      0.482300
     31 H08B        9.4500   -1.3470   -1.7660 hc        1 FNT      0.058033
@<TRIPOS>BOND
     1    1    3 ar  
     2    1    7 ar  
     3    1   21 1   
     4    2    8 1   
     5    3    4 ar  
     6    3    8 ar  
     7    4    5 ar  
     8    4   12 ar  
     9    5    6 ar  
    10    5   22 1   
    11    6    7 ar  
    12    6   23 1   
    13    7   24 1   
    14    8    9 ar  
    15    9   10 ar  
    16   10   12 ar  
    17   10   13 1   
    18   11   16 1   
    19   11   28 1   
    20   11   29 1   
    21   11   31 1   
    22   12   20 1   
    23   13   14 2   
    24   13   15 1   
    25   15   16 1   
    26   15   25 1   
    27   15   30 1   
    28   16   17 1   
    29   16   26 1   
    30   17   18 1   
    31   17   19 1   
    32   20   27 1   
@<TRIPOS>SUBSTRUCTURE
     1 FNT         1 TEMP              0 ****  ****    0 ROOT
