@<TRIPOS>MOLECULE
FNT
   30    31     1     0     0
SMALL
bcc


@<TRIPOS>ATOM
      1 C1          4.1000   -0.9240   -0.0660 ca        1 FNT     -0.113000
      2 CL1         1.9220   -2.9070   -0.9110 cl        1 FNT     -0.171000
      3 C2          2.7750   -0.4340   -0.1810 ca        1 FNT     -0.108300
      4 C3          2.5230    0.9350    0.0860 ca        1 FNT     -0.049000
      5 C4          3.5970    1.7840    0.4590 ca        1 FNT     -0.089000
      6 C5          4.8730    1.2840    0.5620 ca        1 FNT     -0.140000
      7 C6          5.1250   -0.0820    0.2980 ca        1 FNT     -0.124000
      8 C7          1.6450   -1.2460   -0.5570 ca        1 FNT      0.466300
      9 N8          0.4010   -0.7950   -0.6500 nb        1 FNT     -0.595000
     10 C9          0.1530    0.5250   -0.3850 ca        1 FNT      0.272800
     11 C08        -4.3170    0.6100   -1.5440 c3        1 FNT     -0.089100
     12 C10         1.1760    1.4190   -0.0340 ca        1 FNT      0.102800
     13 C12        -1.2710    1.0290   -0.5090 c         1 FNT      0.560600
     14 O13        -1.4320    2.2190   -0.9030 o         1 FNT     -0.700100
     15 N14        -2.2870    0.2130   -0.1600 n         1 FNT     -0.472900
     16 C15        -3.6790    0.6240   -0.1600 c3        1 FNT     -0.049300
     17 C16        -4.5470   -0.2860    0.7890 c         1 FNT      0.917600
     18 O17        -4.0800   -1.4000    1.1520 o         1 FNT     -0.825800
     19 O18        -5.6680    0.1830    1.1150 o         1 FNT     -0.825800
     20 O19         1.0130    2.7450    0.2260 oh        1 FNT     -0.509100
     21 H1          4.2990   -1.9870   -0.2700 ha        1 FNT      0.144000
     22 H4          3.3760    2.8450    0.6610 ha        1 FNT      0.154000
     23 H5          5.7080    1.9380    0.8520 ha        1 FNT      0.129000
     24 H6          6.1530   -0.4640    0.3880 ha        1 FNT      0.127000
     25 H08B       -5.3880    0.9060   -1.4260 hc        1 FNT      0.031700
     26 HN14       -2.1260   -0.7220    0.1600 hn        1 FNT      0.355500
     27 H15        -3.7280    1.6790    0.2400 h1        1 FNT      0.057700
     28 HO19        0.0900    3.0100    0.0360 ho        1 FNT      0.480000
     29 H08        -3.8070    1.3290   -2.2280 hc        1 FNT      0.031700
     30 H08A       -4.2760   -0.4100   -1.9940 hc        1 FNT      0.031700
@<TRIPOS>BOND
     1    1    3 ar  
     2    1    7 ar  
     3    1   21 1   
     4    2    8 1   
     5    3    4 ar  
     6    3    8 ar  
     7    4    5 ar  
     8    4   12 ar  
     9    5    6 ar  
    10    5   22 1   
    11    6    7 ar  
    12    6   23 1   
    13    7   24 1   
    14    8    9 ar  
    15    9   10 ar  
    16   10   12 ar  
    17   10   13 1   
    18   11   16 1   
    19   11   25 1   
    20   11   29 1   
    21   11   30 1   
    22   12   20 1   
    23   13   14 2   
    24   13   15 1   
    25   15   16 1   
    26   15   26 1   
    27   16   17 1   
    28   16   27 1   
    29   17   18 1   
    30   17   19 1   
    31   20   28 1   
@<TRIPOS>SUBSTRUCTURE
     1 FNT         1 TEMP              0 ****  ****    0 ROOT
