@<TRIPOS>MOLECULE
FNT
   31    32     1     0     0
SMALL
bcc


@<TRIPOS>ATOM
      1 C1         -0.0830   -0.1470    0.0090 ca        1 FNT     -0.111000
      2 Cl1         1.3880   -0.7220   -2.6160 cl        1 FNT     -0.119000
      3 C2          1.3260   -0.1510    0.0430 ca        1 FNT     -0.097300
      4 C3          1.9870    0.1010    1.2710 ca        1 FNT     -0.065000
      5 C4          1.2300    0.3490    2.4380 ca        1 FNT     -0.080000
      6 C5         -0.1500    0.3470    2.3800 ca        1 FNT     -0.117000
      7 C6         -0.8070    0.0980    1.1610 ca        1 FNT     -0.090000
      8 C7          2.1590   -0.3990   -1.1210 ca        1 FNT      0.508300
      9 N8          3.4760   -0.3920   -1.0940 nb        1 FNT     -0.649000
     10 C9          4.1300   -0.1420    0.0990 ca        1 FNT      0.183800
     11 C08         8.3260   -1.4790   -1.7200 c3        1 FNT     -0.105100
     12 C10         3.4330    0.0980    1.2920 ca        1 FNT      0.177800
     13 C12         5.6090   -0.1400    0.0690 c         1 FNT      0.477600
     14 O13         6.3090   -0.1310    1.0870 o         1 FNT     -0.505100
     15 N14         6.2640   -0.1310   -1.2570 ny        1 FNT     -0.638800
     16 C15         7.7650   -0.1520   -1.2640 c3        1 FNT     -0.065500
     17 C16         8.2910    1.0280   -2.2180 c         1 FNT      0.935600
     18 O17         9.5190    1.0580   -2.3910 o         1 FNT     -0.759300
     19 O18         7.3920    1.7950   -2.6590 o         1 FNT     -0.759300
     20 O19         3.9740    0.3380    2.5090 oh        1 FNT     -0.471100
     21 H1         -0.6060   -0.3400   -0.9420 ha        1 FNT      0.161000
     22 H4          1.7600    0.5430    3.3850 ha        1 FNT      0.165000
     23 H5         -0.7440    0.5410    3.2870 ha        1 FNT      0.152000
     24 H6         -1.9090    0.1010    1.1300 ha        1 FNT      0.151000
     25 HN14        6.0030    0.7700   -1.7540 hn        1 FNT      0.482300
     26 H15         8.1360    0.0920   -0.2300 hx        1 FNT      0.108700
     27 HO19        4.9480    0.3550    2.4700 ho        1 FNT      0.473000
     28 H08         9.4360   -1.3480   -1.8070 hc        1 FNT      0.058033
     29 H08A        8.1100   -2.2960   -0.9920 hc        1 FNT      0.058033
     30 H142        5.9050   -0.9090   -1.8180 hn        1 FNT      0.482300
     31 H08B        7.9370   -1.7720   -2.7250 hc        1 FNT      0.058033
@<TRIPOS>BOND
     1    1    3 ar  
     2    1    7 ar  
     3    1   21 1   
     4    2    8 1   
     5    3    4 ar  
     6    3    8 ar  
     7    4    5 ar  
     8    4   12 ar  
     9    5    6 ar  
    10    5   22 1   
    11    6    7 ar  
    12    6   23 1   
    13    7   24 1   
    14    8    9 ar  
    15    9   10 ar  
    16   10   12 ar  
    17   10   13 1   
    18   11   16 1   
    19   11   28 1   
    20   11   29 1   
    21   11   31 1   
    22   12   20 1   
    23   13   14 2   
    24   13   15 1   
    25   15   16 1   
    26   15   25 1   
    27   15   30 1   
    28   16   17 1   
    29   16   26 1   
    30   17   18 1   
    31   17   19 1   
    32   20   27 1   
@<TRIPOS>SUBSTRUCTURE
     1 FNT         1 TEMP              0 ****  ****    0 ROOT
