@<TRIPOS>MOLECULE
FNT
   30    27     1     0     0
SMALL
bcc


@<TRIPOS>ATOM
      1 C1         -4.1020   -0.1580    0.1670 c1        1 FNT     -0.116500
      2 CL1        -2.8870   -0.2690   -2.4700 cl        1 FNT     -0.005000
      3 C2         -2.6910   -0.1420    0.1960 c1        1 FNT     -0.043000
      4 C3         -2.0350   -0.1870    1.3840 c1        1 FNT     -0.049000
      5 C4         -2.7660   -0.2490    2.5910 c1        1 FNT     -0.116500
      6 C5         -4.1510   -0.2640    2.5630 c1        1 FNT     -0.116500
      7 C6         -4.8180   -0.2180    1.3520 c1        1 FNT     -0.116500
      8 C7         -1.9630   -0.0720   -1.0050 c2        1 FNT     -0.028000
      9 N8         -0.5960   -0.0490   -0.9760 n2        1 FNT     -0.069000
     10 C9          0.0660   -0.0940    0.2220 c1        1 FNT     -0.145000
     11 C08         4.3620   -0.5660   -2.1050 c3        1 FNT     -0.207000
     12 C10        -0.6500   -0.1630    1.4110 c1        1 FNT      0.123000
     13 C12         1.5760   -0.1170    0.1450 c2        1 FNT      0.344000
     14 O13         2.2350   -0.1570    1.1650 o         1 FNT     -0.461000
     15 N14         2.2210   -0.1490   -1.1160 n         1 FNT     -0.282000
     16 C15         3.5350    0.3720   -1.2560 c3        1 FNT     -0.076000
     17 C16         3.4710    1.7280   -1.9200 c2        1 FNT      0.337000
     18 O17         3.9120    2.7440   -1.3220 o         1 FNT     -0.560500
     19 O18         2.9920    1.8390   -3.0790 o         1 FNT     -0.560500
     20 O19         0.0820    0.1000    2.5830 oh        1 FNT     -0.263000
     21 H1         -4.5730   -0.1260   -0.6870 ha        1 FNT      0.138500
     22 H4         -2.2950   -0.2810    3.4450 ha        1 FNT      0.138500
     23 H5         -4.6560   -0.3070    3.3980 ha        1 FNT      0.138500
     24 H6         -5.7940   -0.2050    1.3330 ha        1 FNT      0.138500
     25 H08         4.4700   -0.1850   -3.0030 hc        1 FNT      0.071000
     26 H08A        5.2430   -0.6880   -1.6940 hc        1 FNT      0.071000
     27 H08B        3.9100   -1.4320   -2.1700 hc        1 FNT      0.071000
     28 HN14        1.7990   -0.5190   -1.8350 hn        1 FNT      0.269000
     29 H15         3.9460    0.4610   -0.3730 h1        1 FNT      0.097000
     30 HO19        0.1570   -0.6480    3.0600 ho        1 FNT      0.279000
@<TRIPOS>BOND
     1    1    7 1   
     2    1   21 1   
     3    2    8 1   
     4    3    4 1   
     5    3    8 1   
     6    4   12 1   
     7    5    6 1   
     8    5   22 1   
     9    6   23 1   
    10    7   24 1   
    11    8    9 1   
    12    9   10 1   
    13   10   13 1   
    14   11   16 1   
    15   11   25 1   
    16   11   26 1   
    17   11   27 1   
    18   12   20 1   
    19   13   14 1   
    20   13   15 1   
    21   15   16 1   
    22   15   28 1   
    23   16   17 1   
    24   16   29 1   
    25   17   18 1   
    26   17   19 1   
    27   20   30 1   
@<TRIPOS>SUBSTRUCTURE
     1 FNT         1 TEMP              0 ****  ****    0 ROOT
