@<TRIPOS>MOLECULE
FNU
   34    34     1     0     0
SMALL
bcc


@<TRIPOS>ATOM
      1 P           0.2020    3.2470    2.8020 p4        1 FNU      1.712200
      2 N1         -0.5830   -0.7380   -1.1920 n         1 FNU     -0.380000
      3 C2          0.6710   -0.7670   -1.9760 c         1 FNU      0.821500
      4 N2          0.7960    0.0430   -3.1900 n         1 FNU     -0.595500
      5 O2          1.5640   -1.5100   -1.6550 o         1 FNU     -0.688500
      6 N3         -2.9850   -0.1180   -1.0030 nh        1 FNU     -0.786600
      7 C4         -0.3110    0.8300   -3.6440 c         1 FNU      0.732700
      8 O4         -0.2210    1.4660   -4.6720 o         1 FNU     -0.695500
      9 C5         -1.5790    0.8210   -2.8900 cc        1 FNU     -0.269700
     10 C6         -1.6990    0.0130   -1.6600 cd        1 FNU      0.371600
     11 C1'        -0.6910   -1.5030    0.0200 c3        1 FNU      0.260500
     12 O1P         1.0180    3.9720    1.7350 o         1 FNU     -0.923500
     13 C2'         0.7640   -2.0540    0.4600 c3        1 FNU      0.104100
     14 O2'         0.6180   -3.1910    1.3600 oh        1 FNU     -0.615800
     15 F24        -2.6220    1.5260   -3.3290 f         1 FNU     -0.171500
     16 O2P         1.0950    2.8940    3.9680 os        1 FNU     -1.247000
     17 C3'         1.3460   -1.0770    1.0720 c3        1 FNU      0.071100
     18 O3'         2.2060   -1.5950    2.1730 oh        1 FNU     -0.662800
     19 O3P        -0.9160    4.1480    3.2790 o         1 FNU     -0.972300
     20 C4'         0.1970   -0.2340    1.6480 c3        1 FNU      0.065100
     21 O4'        -1.0960   -0.7610    0.9700 os        1 FNU     -0.444600
     22 C5'         0.3900    1.1200    1.3450 c3        1 FNU      0.234400
     23 O5'        -0.4200    1.9090    2.1820 os        1 FNU     -0.566200
     24 HN2         1.5700    0.0240   -3.6730 hn        1 FNU      0.330500
     25 HN3        -3.3540   -0.9490   -0.8800 hn        1 FNU      0.500800
     26 H1'        -1.3100   -2.2520   -0.1080 h2        1 FNU      0.104700
     27 H2'         1.2830   -2.3140   -0.3340 h1        1 FNU      0.077700
     28 HO2'        0.9810   -3.9290    0.9760 ho        1 FNU      0.425000
     29 H3'         1.8740   -0.5500    0.4460 h1        1 FNU      0.166700
     30 HO3'        3.0540   -1.3880    2.0090 ho        1 FNU      0.497000
     31 H4'         0.1410   -0.3580    2.6190 h1        1 FNU      0.040700
     32 H5'         0.1530    1.2810    0.4190 h1        1 FNU      0.000200
     33 H5'A        1.3240    1.3540    1.4850 h1        1 FNU      0.000200
     34 H14        -3.4620    0.6410   -0.7650 hn        1 FNU      0.500800
@<TRIPOS>BOND
     1    1   12 1   
     2    1   19 2   
     3    1   23 1   
     4    2    3 1   
     5    2   10 1   
     6    2   11 1   
     7    3    4 1   
     8    3    5 2   
     9    4    7 1   
    10    4   24 1   
    11    6   10 1   
    12    6   25 1   
    13    6   34 1   
    14    7    8 2   
    15    7    9 1   
    16    9   10 2   
    17    9   15 1   
    18   11   13 1   
    19   11   21 1   
    20   11   26 1   
    21   13   14 1   
    22   13   17 1   
    23   13   27 1   
    24   14   28 1   
    25   17   18 1   
    26   17   20 1   
    27   17   29 1   
    28   18   30 1   
    29   20   21 1   
    30   20   22 1   
    31   20   31 1   
    32   22   23 1   
    33   22   32 1   
    34   22   33 1   
@<TRIPOS>SUBSTRUCTURE
     1 FNU         1 TEMP              0 ****  ****    0 ROOT
