@<TRIPOS>MOLECULE
FNU
   34    35     1     0     0
SMALL
bcc


@<TRIPOS>ATOM
      1 P           3.2330    0.4990    2.0670 p5        1 FNU      1.900000
      2 N1         -2.1630   -0.6230   -0.1610 n         1 FNU     -0.273000
      3 C2         -3.2740   -0.7420   -1.0250 c2        1 FNU      0.402000
      4 N2         -4.0800    0.3700   -1.3070 n         1 FNU     -0.375000
      5 O2         -3.6020   -1.8390   -1.5460 o         1 FNU     -0.421000
      6 C4         -3.8460    1.6410   -0.7580 c2        1 FNU      0.368000
      7 O4         -4.5950    2.5800   -1.1100 o         1 FNU     -0.420000
      8 C5         -2.7600    1.7150    0.1920 c2        1 FNU     -0.294000
      9 C6         -1.9500    0.5880    0.5200 c2        1 FNU      0.276000
     10 C1'        -1.2460   -1.8110   -0.2050 c3        1 FNU      0.096000
     11 O1P         3.6790   -1.0550    2.3070 oh        1 FNU     -0.814000
     12 C2'        -0.5910   -2.0570   -1.6390 c3        1 FNU      0.137000
     13 O2'        -1.0970   -3.2620   -2.1870 oh        1 FNU     -0.334000
     14 F24        -2.5460    2.9170    0.7930 f         1 FNU     -0.111000
     15 O2P         3.0380    1.1810    3.3620 o         1 FNU     -0.846000
     16 C3'         0.8590   -2.1020   -1.3670 c2        1 FNU     -0.561000
     17 O3'         1.5750   -3.2080   -1.7980 oh        1 FNU     -0.273000
     18 O3P         4.1220    0.9630    0.9790 o         1 FNU     -0.846000
     19 C4'         1.1040   -1.6810    0.0340 c3        1 FNU      0.102000
     20 O4'        -0.1970   -1.7420    0.7260 os        1 FNU     -0.301000
     21 C5'         1.6610   -0.2540    0.1160 c3        1 FNU      0.011000
     22 O5'         1.7380    0.2220    1.4310 os        1 FNU     -0.776000
     23 HN2        -4.8220    0.2410   -1.9560 hn        1 FNU      0.242000
     24 HN3        -0.3510    0.0020    1.7060 hn        1 FNU      0.261500
     25 H1'        -1.9030   -2.6790    0.0980 h2        1 FNU      0.104000
     26 H2'        -0.8780   -1.2050   -2.3200 h1        1 FNU      0.028000
     27 HO2'       -2.0290   -3.1020   -2.3820 ho        1 FNU      0.175000
     28 H3'         3.8900   -1.4970    1.4930 ho        1 FNU      0.222000
     29 HO3'        2.0990   -2.8670   -2.5360 ho        1 FNU      0.138000
     30 H4'         1.7530   -2.3820    0.6250 h1        1 FNU      0.077000
     31 H5'         2.6800   -0.2430   -0.3600 h1        1 FNU      0.075000
     32 H5'A        0.9810    0.4360   -0.4590 h1        1 FNU      0.075000
     33 H14        -0.8070    1.6210    1.8100 hn        1 FNU      0.261500
     34 N3         -1.0800    0.6890    1.5790 nh        1 FNU     -0.303000
@<TRIPOS>BOND
     1    1   11 1   
     2    1   15 1   
     3    1   18 1   
     4    1   22 1   
     5    2    3 1   
     6    2    9 1   
     7    2   10 1   
     8    3    4 1   
     9    3    5 1   
    10    4    6 1   
    11    4   23 1   
    12    6    7 1   
    13    6    8 1   
    14    8    9 1   
    15    8   14 1   
    16    9   34 1   
    17   10   12 1   
    18   10   20 1   
    19   10   25 1   
    20   11   28 1   
    21   12   13 1   
    22   12   16 1   
    23   12   26 1   
    24   13   27 1   
    25   16   17 1   
    26   16   19 1   
    27   17   29 1   
    28   19   20 1   
    29   19   21 1   
    30   19   30 1   
    31   21   22 1   
    32   21   31 1   
    33   21   32 1   
    34   24   34 1   
    35   33   34 1   
@<TRIPOS>SUBSTRUCTURE
     1 FNU         1 TEMP              0 ****  ****    0 ROOT
