@<TRIPOS>MOLECULE
FNZ
   39    41     1     0     0
SMALL
bcc


@<TRIPOS>ATOM
      1 C1          1.4460    0.1530    0.0870 c3        1 FNZ      0.079300
      2 C2         -0.1010   -0.0480    0.0840 c3        1 FNZ      0.131100
      3 C3         -0.5950   -0.3580   -1.3310 c3        1 FNZ     -0.066100
      4 C4         -2.0260    0.0040   -1.5260 ca        1 FNZ     -0.105300
      5 C5         -2.4120    0.7540   -2.6430 ca        1 FNZ     -0.099500
      6 C6         -3.7480    1.0760   -2.8560 ca        1 FNZ     -0.165500
      7 C7         -4.7200    0.6420   -1.9360 ca        1 FNZ      0.127900
      8 C8         -4.3400   -0.1100   -0.8090 ca        1 FNZ     -0.165500
      9 C9         -3.0000   -0.4220   -0.6150 ca        1 FNZ     -0.099500
     10 C10         2.0510    0.0070    1.4630 ca        1 FNZ     -0.099300
     11 C11         3.3610   -0.4770    1.5630 ca        1 FNZ     -0.106500
     12 C12         3.9650   -0.6240    2.8090 ca        1 FNZ     -0.095500
     13 C13         3.2580   -0.2810    3.9710 ca        1 FNZ     -0.001000
     14 C14         1.9480    0.2070    3.8740 ca        1 FNZ     -0.095500
     15 C15         1.3520    0.3530    2.6230 ca        1 FNZ     -0.106500
     16 C16         3.8700   -0.4300    5.2450 cg        1 FNZ      0.227800
     17 C17         2.6400    2.9160   -1.8190 cc        1 FNZ      0.506900
     18 C18         1.5450    2.7130    0.0370 cd        1 FNZ      0.413400
     19 O2         -0.4610   -1.0750    0.9880 oh        1 FNZ     -0.587800
     20 F7         -6.0240    0.9500   -2.1350 f         1 FNZ     -0.139900
     21 N1          4.3700   -0.5530    6.2880 n1        1 FNZ     -0.350800
     22 N2          1.8170    1.4360   -0.5040 na        1 FNZ     -0.061400
     23 N3          2.5010    1.5710   -1.6580 nd        1 FNZ     -0.525800
     24 N4          2.0530    3.6590   -0.7770 nc        1 FNZ     -0.680000
     25 H1          1.8810   -0.6680   -0.5660 h1        1 FNZ      0.092700
     26 H2         -0.6210    0.8660    0.4920 h1        1 FNZ      0.091700
     27 H3C1        0.0360    0.1850   -2.0840 hc        1 FNZ      0.065700
     28 H3C2       -0.4690   -1.4580   -1.5270 hc        1 FNZ      0.065700
     29 H5         -1.6530    1.0960   -3.3640 ha        1 FNZ      0.147000
     30 H6         -4.0520    1.6650   -3.7330 ha        1 FNZ      0.150500
     31 H8         -5.1060   -0.4440   -0.0930 ha        1 FNZ      0.150500
     32 H9         -2.6930   -1.0050    0.2700 ha        1 FNZ      0.147000
     33 H11         3.9220   -0.7390    0.6520 ha        1 FNZ      0.149500
     34 H12         4.9950   -1.0050    2.8820 ha        1 FNZ      0.151000
     35 H14         1.3890    0.4740    4.7840 ha        1 FNZ      0.151000
     36 H15         0.3140    0.7160    2.5550 ha        1 FNZ      0.149500
     37 H18         1.0080    2.8650    0.9790 h5        1 FNZ      0.073100
     38 HA         -0.0520   -1.8950    0.6840 ho        1 FNZ      0.406000
     39 H17         3.1530    3.3830   -2.6660 h5        1 FNZ      0.074100
@<TRIPOS>BOND
     1    1    2 1   
     2    1   10 1   
     3    1   22 1   
     4    1   25 1   
     5    2    3 1   
     6    2   19 1   
     7    2   26 1   
     8    3    4 1   
     9    3   27 1   
    10    3   28 1   
    11    4    5 ar  
    12    4    9 ar  
    13    5    6 ar  
    14    5   29 1   
    15    6    7 ar  
    16    6   30 1   
    17    7    8 ar  
    18    7   20 1   
    19    8    9 ar  
    20    8   31 1   
    21    9   32 1   
    22   10   11 ar  
    23   10   15 ar  
    24   11   12 ar  
    25   11   33 1   
    26   12   13 ar  
    27   12   34 1   
    28   13   14 ar  
    29   13   16 1   
    30   14   15 ar  
    31   14   35 1   
    32   15   36 1   
    33   16   21 3   
    34   17   23 2   
    35   17   24 1   
    36   17   39 1   
    37   18   22 1   
    38   18   24 2   
    39   18   37 1   
    40   19   38 1   
    41   22   23 1   
@<TRIPOS>SUBSTRUCTURE
     1 FNZ         1 TEMP              0 ****  ****    0 ROOT
