@<TRIPOS>MOLECULE
FNZ
   39    41     1     0     0
SMALL
bcc


@<TRIPOS>ATOM
      1 C1          1.4300    0.1230    0.0930 c3        1 FNZ      0.079300
      2 C2         -0.1210   -0.0400    0.0920 c3        1 FNZ      0.131100
      3 C3         -0.6230   -0.3520   -1.3210 c3        1 FNZ     -0.066100
      4 C4         -2.0440    0.0420   -1.5200 ca        1 FNZ     -0.105300
      5 C5         -2.4120    0.7890   -2.6450 ca        1 FNZ     -0.099500
      6 C6         -3.7400    1.1400   -2.8620 ca        1 FNZ     -0.165500
      7 C7         -4.7220    0.7390   -1.9380 ca        1 FNZ      0.127900
      8 C8         -4.3610   -0.0100   -0.8020 ca        1 FNZ     -0.165500
      9 C9         -3.0280   -0.3520   -0.6050 ca        1 FNZ     -0.099500
     10 C10         2.0310   -0.0250    1.4710 ca        1 FNZ     -0.099300
     11 C11         3.3290   -0.5410    1.5770 ca        1 FNZ     -0.106500
     12 C12         3.9280   -0.6900    2.8250 ca        1 FNZ     -0.095500
     13 C13         3.2290   -0.3180    3.9820 ca        1 FNZ     -0.001000
     14 C14         1.9320    0.2020    3.8800 ca        1 FNZ     -0.095500
     15 C15         1.3400    0.3510    2.6270 ca        1 FNZ     -0.106500
     16 C16         3.8370   -0.4690    5.2590 cg        1 FNZ      0.227800
     17 C17         2.6910    2.8370   -1.8400 cc        1 FNZ      0.506900
     18 C18         1.5920    2.6780    0.0190 cd        1 FNZ      0.413400
     19 O2         -0.5060   -1.0490    1.0060 oh        1 FNZ     -0.587800
     20 F7         -6.0180    1.0760   -2.1400 f         1 FNZ     -0.139900
     21 N1          4.3340   -0.5940    6.3030 n1        1 FNZ     -0.350800
     22 N2          1.8330    1.3910   -0.5100 na        1 FNZ     -0.061400
     23 N3          2.5190    1.4970   -1.6650 nd        1 FNZ     -0.525800
     24 N4          2.1230    3.6040   -0.8050 nc        1 FNZ     -0.680000
     25 H1          1.8460   -0.7150   -0.5520 h1        1 FNZ      0.092700
     26 H2         -0.6190    0.8900    0.4900 h1        1 FNZ      0.091700
     27 H3C1       -0.5230   -1.4580   -1.5060 hc        1 FNZ      0.065700
     28 H3C2        0.0210    0.1680   -2.0780 hc        1 FNZ      0.065700
     29 H5         -1.6450    1.1050   -3.3690 ha        1 FNZ      0.147000
     30 H6         -4.0300    1.7270   -3.7450 ha        1 FNZ      0.150500
     31 H8         -5.1340   -0.3180   -0.0840 ha        1 FNZ      0.150500
     32 H9         -2.7360   -0.9330    0.2860 ha        1 FNZ      0.147000
     33 H11         3.8840   -0.8260    0.6690 ha        1 FNZ      0.149500
     34 H12         4.9490   -1.0950    2.9020 ha        1 FNZ      0.151000
     35 H14         1.3800    0.4930    4.7870 ha        1 FNZ      0.151000
     36 H15         0.3120    0.7390    2.5550 ha        1 FNZ      0.149500
     37 H18         1.0590    2.8530    0.9590 h5        1 FNZ      0.073100
     38 HA         -0.1170   -1.8820    0.7100 ho        1 FNZ      0.406000
     39 H17         3.2160    3.2830   -2.6910 h5        1 FNZ      0.074100
@<TRIPOS>BOND
     1    1    2 1   
     2    1   10 1   
     3    1   22 1   
     4    1   25 1   
     5    2    3 1   
     6    2   19 1   
     7    2   26 1   
     8    3    4 1   
     9    3   27 1   
    10    3   28 1   
    11    4    5 ar  
    12    4    9 ar  
    13    5    6 ar  
    14    5   29 1   
    15    6    7 ar  
    16    6   30 1   
    17    7    8 ar  
    18    7   20 1   
    19    8    9 ar  
    20    8   31 1   
    21    9   32 1   
    22   10   11 ar  
    23   10   15 ar  
    24   11   12 ar  
    25   11   33 1   
    26   12   13 ar  
    27   12   34 1   
    28   13   14 ar  
    29   13   16 1   
    30   14   15 ar  
    31   14   35 1   
    32   15   36 1   
    33   16   21 3   
    34   17   23 2   
    35   17   24 1   
    36   17   39 1   
    37   18   22 1   
    38   18   24 2   
    39   18   37 1   
    40   19   38 1   
    41   22   23 1   
@<TRIPOS>SUBSTRUCTURE
     1 FNZ         1 TEMP              0 ****  ****    0 ROOT
