@<TRIPOS>MOLECULE
FNZ
   39    41     1     0     0
SMALL
bcc


@<TRIPOS>ATOM
      1 C1         -0.8050   -0.6610   -0.7260 c3        1 FNZ      0.079300
      2 C2          0.4760    0.1960   -0.4840 c3        1 FNZ      0.131100
      3 C3          1.6800   -0.4340   -1.1880 c3        1 FNZ     -0.066100
      4 C4          2.9720   -0.0440   -0.5610 ca        1 FNZ     -0.105300
      5 C5          3.9210   -1.0240   -0.2470 ca        1 FNZ     -0.099500
      6 C6          5.1460   -0.6750    0.3120 ca        1 FNZ     -0.165500
      7 C7          5.4310    0.6800    0.5620 ca        1 FNZ      0.127900
      8 C8          4.4820    1.6720    0.2520 ca        1 FNZ     -0.165500
      9 C9          3.2640    1.3010   -0.3070 ca        1 FNZ     -0.099500
     10 C10        -2.0790    0.1070   -0.4680 ca        1 FNZ     -0.099300
     11 C11        -3.2200   -0.2340   -1.2060 ca        1 FNZ     -0.106500
     12 C12        -4.4200    0.4410   -1.0000 ca        1 FNZ     -0.095500
     13 C13        -4.4890    1.4650   -0.0440 ca        1 FNZ     -0.001000
     14 C14        -3.3500    1.8060    0.6990 ca        1 FNZ     -0.095500
     15 C15        -2.1530    1.1240    0.4880 ca        1 FNZ     -0.106500
     16 C16        -5.7120    2.1570    0.1690 cg        1 FNZ      0.227800
     17 C17        -0.7160   -3.9630    0.6080 cc        1 FNZ      0.506900
     18 C18        -0.8550   -1.9820    1.4690 cd        1 FNZ      0.413400
     19 O2          0.2630    1.5240   -0.9250 oh        1 FNZ     -0.587800
     20 F7          6.6220    1.0300    1.1050 f         1 FNZ     -0.139900
     21 N1         -6.7130    2.7240    0.3440 n1        1 FNZ     -0.350800
     22 N2         -0.7780   -1.8920    0.0610 na        1 FNZ     -0.061400
     23 N3         -0.6940   -3.1280   -0.4680 nd        1 FNZ     -0.525800
     24 N4         -0.8160   -3.2790    1.8340 nc        1 FNZ     -0.680000
     25 H1         -0.7980   -0.9530   -1.8240 h1        1 FNZ      0.092700
     26 H2          0.6770    0.3070    0.6200 h1        1 FNZ      0.091700
     27 H3C1        1.5820   -1.5520   -1.1830 hc        1 FNZ      0.065700
     28 H3C2        1.6850   -0.1070   -2.2640 hc        1 FNZ      0.065700
     29 H5          3.7000   -2.0860   -0.4410 ha        1 FNZ      0.147000
     30 H6          5.8920   -1.4440    0.5590 ha        1 FNZ      0.150500
     31 H8          4.7120    2.7280    0.4520 ha        1 FNZ      0.150500
     32 H9          2.5130    2.0720   -0.5470 ha        1 FNZ      0.147000
     33 H11        -3.1720   -1.0440   -1.9510 ha        1 FNZ      0.149500
     34 H12        -5.3140    0.1690   -1.5820 ha        1 FNZ      0.151000
     35 H14        -3.4000    2.6110    1.4480 ha        1 FNZ      0.151000
     36 H15        -1.2570    1.4110    1.0600 ha        1 FNZ      0.149500
     37 H18        -0.9400   -1.1090    2.1240 h5        1 FNZ      0.073100
     38 HA          0.0950    1.4980   -1.8750 ho        1 FNZ      0.406000
     39 H17        -0.6630   -5.0550    0.5400 h5        1 FNZ      0.074100
@<TRIPOS>BOND
     1    1    2 1   
     2    1   10 1   
     3    1   22 1   
     4    1   25 1   
     5    2    3 1   
     6    2   19 1   
     7    2   26 1   
     8    3    4 1   
     9    3   27 1   
    10    3   28 1   
    11    4    5 ar  
    12    4    9 ar  
    13    5    6 ar  
    14    5   29 1   
    15    6    7 ar  
    16    6   30 1   
    17    7    8 ar  
    18    7   20 1   
    19    8    9 ar  
    20    8   31 1   
    21    9   32 1   
    22   10   11 ar  
    23   10   15 ar  
    24   11   12 ar  
    25   11   33 1   
    26   12   13 ar  
    27   12   34 1   
    28   13   14 ar  
    29   13   16 1   
    30   14   15 ar  
    31   14   35 1   
    32   15   36 1   
    33   16   21 3   
    34   17   23 2   
    35   17   24 1   
    36   17   39 1   
    37   18   22 1   
    38   18   24 2   
    39   18   37 1   
    40   19   38 1   
    41   22   23 1   
@<TRIPOS>SUBSTRUCTURE
     1 FNZ         1 TEMP              0 ****  ****    0 ROOT
