@<TRIPOS>MOLECULE
FO1
   43    45     1     0     0
SMALL
bcc


@<TRIPOS>ATOM
      1 N1         -0.1610    0.5930    0.0400 nc        1 FO1     -0.431400
      2 C1          1.2490    0.6680   -0.0270 c         1 FO1      0.849900
      3 O1          1.8360    1.0040   -1.0740 o         1 FO1     -0.598500
      4 N2          2.0530    0.3610    1.1050 n         1 FO1     -0.609500
      5 C2          1.5030    0.0070    2.3300 c         1 FO1      0.723100
      6 O2          2.2380   -0.2540    3.3020 o         1 FO1     -0.630500
      7 C3          0.0250   -0.0380    2.4150 cd        1 FO1     -0.263600
      8 C4         -0.5960   -0.3240    3.5900 cc        1 FO1      0.060000
      9 C5         -2.0230   -0.3180    3.6630 ca        1 FO1     -0.181000
     10 C6         -2.6800   -0.5520    4.8880 ca        1 FO1     -0.025000
     11 C7         -4.0530   -0.5010    4.9830 ca        1 FO1     -0.242000
     12 C9         -4.8010   -0.1820    3.8270 ca        1 FO1      0.183100
     13 O10        -6.1700   -0.0830    3.8530 oh        1 FO1     -0.486100
     14 C11        -4.1910    0.0560    2.5980 ca        1 FO1     -0.208000
     15 C12        -2.7810   -0.0440    2.4840 ca        1 FO1      0.138700
     16 N3         -2.1390    0.1030    1.2490 na        1 FO1     -0.106100
     17 C13        -0.7380    0.2410    1.1850 cd        1 FO1      0.198700
     18 C14        -2.9130    0.1400    0.0170 c3        1 FO1      0.038300
     19 C15        -3.2560    1.5480   -0.5040 c3        1 FO1      0.144100
     20 O3         -4.1050    2.1600    0.4520 oh        1 FO1     -0.614800
     21 C16        -4.0160    1.4550   -1.8490 c3        1 FO1      0.110100
     22 O4         -3.5540    0.3070   -2.5380 oh        1 FO1     -0.588800
     23 C17        -3.7580    2.7220   -2.6880 c3        1 FO1      0.107100
     24 O5         -3.9990    3.8320   -1.8370 oh        1 FO1     -0.616800
     25 C18        -4.6910    2.7760   -3.9030 c3        1 FO1      0.089400
     26 O6         -4.4420    4.0240   -4.5290 oh        1 FO1     -0.606800
     27 HN3         3.0430    0.4110    1.0100 hn        1 FO1      0.344500
     28 HC6        -2.0700   -0.7760    5.7790 ha        1 FO1      0.145000
     29 HC82       -6.4670   -0.2380    4.7630 ho        1 FO1      0.427000
     30 HC9        -4.8200    0.3710    1.7480 ha        1 FO1      0.186000
     31 HC11       -3.8670   -0.4380    0.1690 h1        1 FO1      0.093200
     32 HC12       -2.3220   -0.3840   -0.7930 h1        1 FO1      0.093200
     33 HC2'       -2.3210    2.1560   -0.6480 h1        1 FO1      0.082700
     34 HO2'       -4.2130    3.0840    0.1870 ho        1 FO1      0.431000
     35 HC3'       -5.1180    1.3610   -1.6380 h1        1 FO1      0.054700
     36 HO3'       -4.0400    0.2600   -3.3700 ho        1 FO1      0.405000
     37 HC4'       -2.6870    2.7370   -3.0370 h1        1 FO1      0.075700
     38 HO4'       -3.8920    4.6250   -2.3790 ho        1 FO1      0.435000
     39 HC51       -5.7640    2.7140   -3.5770 h1        1 FO1      0.034200
     40 HC52       -4.4620    1.9370   -4.6120 h1        1 FO1      0.034200
     41 HO5'       -5.0630    4.0990   -5.2630 ho        1 FO1      0.413000
     42 H21        -0.0050   -0.5470    4.4970 ha        1 FO1      0.170000
     43 HC7        -4.5640   -0.6900    5.9370 ha        1 FO1      0.144000
@<TRIPOS>BOND
     1    1    2 1   
     2    1   17 2   
     3    2    3 2   
     4    2    4 1   
     5    4    5 1   
     6    4   27 1   
     7    5    6 2   
     8    5    7 1   
     9    7    8 2   
    10    7   17 1   
    11    8    9 1   
    12    8   42 1   
    13    9   10 ar  
    14    9   15 ar  
    15   10   11 ar  
    16   10   28 1   
    17   11   12 ar  
    18   11   43 1   
    19   12   13 1   
    20   12   14 ar  
    21   13   29 1   
    22   14   15 ar  
    23   14   30 1   
    24   15   16 1   
    25   16   17 1   
    26   16   18 1   
    27   18   19 1   
    28   18   31 1   
    29   18   32 1   
    30   19   20 1   
    31   19   21 1   
    32   19   33 1   
    33   20   34 1   
    34   21   22 1   
    35   21   23 1   
    36   21   35 1   
    37   22   36 1   
    38   23   24 1   
    39   23   25 1   
    40   23   37 1   
    41   24   38 1   
    42   25   26 1   
    43   25   39 1   
    44   25   40 1   
    45   26   41 1   
@<TRIPOS>SUBSTRUCTURE
     1 FO1         1 TEMP              0 ****  ****    0 ROOT
