@<TRIPOS>MOLECULE
FO1
   43    45     1     0     0
SMALL
bcc


@<TRIPOS>ATOM
      1 N1          0.4600   -1.8120    0.2040 nc        1 FO1     -0.455400
      2 C1          1.0810   -3.0470   -0.0940 c         1 FO1      0.850900
      3 O1          0.4350   -4.1130   -0.0800 o         1 FO1     -0.603500
      4 N2          2.4620   -3.1120   -0.4180 n         1 FO1     -0.607500
      5 C2          3.2590   -1.9770   -0.4970 c         1 FO1      0.723100
      6 O2          4.4670   -2.0710   -0.7870 o         1 FO1     -0.625500
      7 C3          2.6030   -0.6750   -0.2320 cd        1 FO1     -0.265600
      8 C4          3.2900    0.4930   -0.3510 cc        1 FO1      0.064000
      9 C5          2.6220    1.7390   -0.1410 ca        1 FO1     -0.181000
     10 C6          3.2990    2.9590   -0.3360 ca        1 FO1     -0.024000
     11 C7          2.6500    4.1660   -0.1920 ca        1 FO1     -0.240000
     12 C9          1.2750    4.1630    0.1360 ca        1 FO1      0.187100
     13 O10         0.5570    5.3250    0.2630 oh        1 FO1     -0.481100
     14 C11         0.5690    2.9790    0.3410 ca        1 FO1     -0.215000
     15 C12         1.2460    1.7380    0.2410 ca        1 FO1      0.132700
     16 N3          0.5930    0.5310    0.5170 na        1 FO1     -0.110100
     17 C13         1.1840   -0.6960    0.1610 cd        1 FO1      0.203700
     18 C14        -0.7240    0.5200    1.1360 c3        1 FO1      0.025300
     19 C15        -1.8970    0.3820    0.1430 c3        1 FO1      0.112100
     20 O3         -2.3050    1.7130   -0.1320 oh        1 FO1     -0.617800
     21 C16        -3.0610   -0.4180    0.7640 c3        1 FO1      0.114100
     22 O4         -2.6160   -1.4910    1.5670 oh        1 FO1     -0.595800
     23 C17        -3.9920   -0.9590   -0.3400 c3        1 FO1      0.109100
     24 O5         -4.4510    0.1530   -1.0930 oh        1 FO1     -0.622800
     25 C18        -5.1670   -1.7120    0.2910 c3        1 FO1      0.094400
     26 O6         -5.9610   -2.1770   -0.7900 oh        1 FO1     -0.616800
     27 HN3         2.8640   -4.0050   -0.5990 hn        1 FO1      0.346500
     28 HC6         4.3660    2.9330   -0.6130 ha        1 FO1      0.147000
     29 HC82        1.1490    6.0700    0.0760 ho        1 FO1      0.428000
     30 HC9        -0.5160    3.0370    0.5340 ha        1 FO1      0.194000
     31 HC11       -0.7580   -0.3370    1.8720 h1        1 FO1      0.096700
     32 HC12       -0.8600    1.4720    1.7260 h1        1 FO1      0.096700
     33 HC2'       -1.5760   -0.1240   -0.8100 h1        1 FO1      0.060700
     34 HO2'       -3.0410    1.6730   -0.7570 ho        1 FO1      0.435000
     35 HC3'       -3.6410    0.2480    1.4630 h1        1 FO1      0.093700
     36 HO3'       -2.0680   -2.0700    1.0170 ho        1 FO1      0.431000
     37 HC4'       -3.4240   -1.6570   -1.0180 h1        1 FO1      0.057700
     38 HO4'       -5.1410   -0.1780   -1.6840 ho        1 FO1      0.434000
     39 HC51       -4.7820   -2.5680    0.9040 h1        1 FO1      0.047200
     40 HC52       -5.7710   -1.0220    0.9370 h1        1 FO1      0.047200
     41 HO5'       -6.6600   -2.7200   -0.4090 ho        1 FO1      0.412000
     42 H21         4.3600    0.4890   -0.6280 ha        1 FO1      0.171000
     43 HC7         3.1810    5.1170   -0.3380 ha        1 FO1      0.146000
@<TRIPOS>BOND
     1    1    2 1   
     2    1   17 2   
     3    2    3 2   
     4    2    4 1   
     5    4    5 1   
     6    4   27 1   
     7    5    6 2   
     8    5    7 1   
     9    7    8 2   
    10    7   17 1   
    11    8    9 1   
    12    8   42 1   
    13    9   10 ar  
    14    9   15 ar  
    15   10   11 ar  
    16   10   28 1   
    17   11   12 ar  
    18   11   43 1   
    19   12   13 1   
    20   12   14 ar  
    21   13   29 1   
    22   14   15 ar  
    23   14   30 1   
    24   15   16 1   
    25   16   17 1   
    26   16   18 1   
    27   18   19 1   
    28   18   31 1   
    29   18   32 1   
    30   19   20 1   
    31   19   21 1   
    32   19   33 1   
    33   20   34 1   
    34   21   22 1   
    35   21   23 1   
    36   21   35 1   
    37   22   36 1   
    38   23   24 1   
    39   23   25 1   
    40   23   37 1   
    41   24   38 1   
    42   25   26 1   
    43   25   39 1   
    44   25   40 1   
    45   26   41 1   
@<TRIPOS>SUBSTRUCTURE
     1 FO1         1 TEMP              0 ****  ****    0 ROOT
