@<TRIPOS>MOLECULE
FO1
   43    45     1     0     0
SMALL
bcc


@<TRIPOS>ATOM
      1 N1         -0.1620    0.5880    0.0390 nc        1 FO1     -0.431400
      2 C1          1.2480    0.6600   -0.0280 c         1 FO1      0.849900
      3 O1          1.8350    0.9940   -1.0750 o         1 FO1     -0.598500
      4 N2          2.0510    0.3530    1.1040 n         1 FO1     -0.609500
      5 C2          1.5020    0.0000    2.3290 c         1 FO1      0.723100
      6 O2          2.2360   -0.2620    3.3010 o         1 FO1     -0.630500
      7 C3          0.0230   -0.0410    2.4150 cd        1 FO1     -0.263600
      8 C4         -0.5980   -0.3260    3.5900 cc        1 FO1      0.060000
      9 C5         -2.0250   -0.3170    3.6640 ca        1 FO1     -0.181000
     10 C6         -2.6810   -0.5480    4.8890 ca        1 FO1     -0.025000
     11 C7         -4.0550   -0.4940    4.9850 ca        1 FO1     -0.242000
     12 C9         -4.8030   -0.1750    3.8290 ca        1 FO1      0.183100
     13 O10        -6.1710   -0.0730    3.8550 oh        1 FO1     -0.486100
     14 C11        -4.1920    0.0600    2.5990 ca        1 FO1     -0.208000
     15 C12        -2.7830   -0.0430    2.4850 ca        1 FO1      0.138700
     16 N3         -2.1410    0.1030    1.2500 na        1 FO1     -0.106100
     17 C13        -0.7400    0.2380    1.1850 cd        1 FO1      0.198700
     18 C14        -2.9150    0.1400    0.0180 c3        1 FO1      0.038300
     19 C15        -3.2560    1.5480   -0.5050 c3        1 FO1      0.144100
     20 O3         -4.1030    2.1620    0.4510 oh        1 FO1     -0.614800
     21 C16        -4.0160    1.4560   -1.8490 c3        1 FO1      0.110100
     22 O4         -3.5560    0.3060   -2.5370 oh        1 FO1     -0.588800
     23 C17        -3.7560    2.7210   -2.6890 c3        1 FO1      0.107100
     24 O5         -3.9950    3.8320   -1.8390 oh        1 FO1     -0.616800
     25 C18        -4.6900    2.7760   -3.9040 c3        1 FO1      0.089400
     26 O6         -4.4390    4.0220   -4.5310 oh        1 FO1     -0.606800
     27 HN3         3.0420    0.4000    1.0080 hn        1 FO1      0.344500
     28 HC6        -2.0720   -0.7730    5.7800 ha        1 FO1      0.145000
     29 HC82       -6.4680   -0.2270    4.7650 ho        1 FO1      0.427000
     30 HC9        -4.8210    0.3760    1.7490 ha        1 FO1      0.186000
     31 HC11       -3.8700   -0.4360    0.1700 h1        1 FO1      0.093200
     32 HC12       -2.3250   -0.3860   -0.7920 h1        1 FO1      0.093200
     33 HC2'       -2.3200    2.1550   -0.6490 h1        1 FO1      0.082700
     34 HO2'       -4.2090    3.0860    0.1860 ho        1 FO1      0.431000
     35 HC3'       -5.1190    1.3640   -1.6380 h1        1 FO1      0.054700
     36 HO3'       -4.0430    0.2590   -3.3690 ho        1 FO1      0.405000
     37 HC4'       -2.6850    2.7340   -3.0380 h1        1 FO1      0.075700
     38 HO4'       -3.8880    4.6250   -2.3820 ho        1 FO1      0.435000
     39 HC51       -5.7620    2.7150   -3.5780 h1        1 FO1      0.034200
     40 HC52       -4.4620    1.9360   -4.6120 h1        1 FO1      0.034200
     41 HO5'       -5.0600    4.0980   -5.2650 ho        1 FO1      0.413000
     42 H21        -0.0070   -0.5490    4.4970 ha        1 FO1      0.170000
     43 HC7        -4.5660   -0.6820    5.9390 ha        1 FO1      0.144000
@<TRIPOS>BOND
     1    1    2 1   
     2    1   17 2   
     3    2    3 2   
     4    2    4 1   
     5    4    5 1   
     6    4   27 1   
     7    5    6 2   
     8    5    7 1   
     9    7    8 2   
    10    7   17 1   
    11    8    9 1   
    12    8   42 1   
    13    9   10 ar  
    14    9   15 ar  
    15   10   11 ar  
    16   10   28 1   
    17   11   12 ar  
    18   11   43 1   
    19   12   13 1   
    20   12   14 ar  
    21   13   29 1   
    22   14   15 ar  
    23   14   30 1   
    24   15   16 1   
    25   16   17 1   
    26   16   18 1   
    27   18   19 1   
    28   18   31 1   
    29   18   32 1   
    30   19   20 1   
    31   19   21 1   
    32   19   33 1   
    33   20   34 1   
    34   21   22 1   
    35   21   23 1   
    36   21   35 1   
    37   22   36 1   
    38   23   24 1   
    39   23   25 1   
    40   23   37 1   
    41   24   38 1   
    42   25   26 1   
    43   25   39 1   
    44   25   40 1   
    45   26   41 1   
@<TRIPOS>SUBSTRUCTURE
     1 FO1         1 TEMP              0 ****  ****    0 ROOT
