@<TRIPOS>MOLECULE
FO1
   43    45     1     0     0
SMALL
bcc


@<TRIPOS>ATOM
      1 N1         -0.1630    0.5850    0.0390 nc        1 FO1     -0.431400
      2 C1          1.2480    0.6580   -0.0300 c         1 FO1      0.849900
      3 O1          1.8340    0.9870   -1.0790 o         1 FO1     -0.598500
      4 N2          2.0520    0.3560    1.1030 ns        1 FO1     -0.609500
      5 C2          1.5030    0.0080    2.3300 c         1 FO1      0.723100
      6 O2          2.2380   -0.2490    3.3040 o         1 FO1     -0.630500
      7 C3          0.0240   -0.0330    2.4170 cd        1 FO1     -0.263600
      8 C4         -0.5960   -0.3120    3.5940 cc        1 FO1      0.060000
      9 C5         -2.0230   -0.3030    3.6690 ca        1 FO1     -0.181000
     10 C6         -2.6790   -0.5290    4.8960 ca        1 FO1     -0.025000
     11 C7         -4.0520   -0.4750    4.9920 ca        1 FO1     -0.242000
     12 C9         -4.8000   -0.1610    3.8350 ca        1 FO1      0.183100
     13 O10        -6.1690   -0.0590    3.8620 oh        1 FO1     -0.486100
     14 C11        -4.1910    0.0690    2.6040 ca        1 FO1     -0.208000
     15 C12        -2.7810   -0.0340    2.4890 ca        1 FO1      0.138700
     16 N3         -2.1410    0.1060    1.2530 na        1 FO1     -0.106100
     17 C13        -0.7390    0.2410    1.1870 cd        1 FO1      0.198700
     18 C14        -2.9150    0.1380    0.0210 c3        1 FO1      0.038300
     19 C15        -3.2560    1.5430   -0.5070 c3        1 FO1      0.144100
     20 O3         -4.1030    2.1620    0.4470 oh        1 FO1     -0.614800
     21 C16        -4.0180    1.4450   -1.8500 c3        1 FO1      0.110100
     22 O4         -3.5580    0.2920   -2.5340 oh        1 FO1     -0.588800
     23 C17        -3.7580    2.7070   -2.6960 c3        1 FO1      0.107100
     24 O5         -3.9960    3.8210   -1.8510 oh        1 FO1     -0.616800
     25 C18        -4.6930    2.7570   -3.9100 c3        1 FO1      0.089400
     26 O6         -4.4420    4.0010   -4.5430 oh        1 FO1     -0.606800
     27 HN3         3.0420    0.4030    1.0070 hn        1 FO1      0.344500
     28 HC6        -2.0690   -0.7500    5.7870 ha        1 FO1      0.145000
     29 HC82       -6.4650   -0.2090    4.7720 ho        1 FO1      0.427000
     30 HC9        -4.8200    0.3810    1.7530 ha        1 FO1      0.186000
     31 HC11       -3.8700   -0.4370    0.1770 h1        1 FO1      0.093200
     32 HC12       -2.3260   -0.3920   -0.7860 h1        1 FO1      0.093200
     33 HC2'       -2.3200    2.1500   -0.6550 h1        1 FO1      0.082700
     34 HO2'       -4.2090    3.0850    0.1770 ho        1 FO1      0.431000
     35 HC3'       -5.1200    1.3540   -1.6380 h1        1 FO1      0.054700
     36 HO3'       -4.0450    0.2420   -3.3650 ho        1 FO1      0.405000
     37 HC4'       -2.6880    2.7180   -3.0460 h1        1 FO1      0.075700
     38 HO4'       -3.8880    4.6120   -2.3970 ho        1 FO1      0.435000
     39 HC51       -4.4670    1.9140   -4.6150 h1        1 FO1      0.034200
     40 HC52       -5.7650    2.6990   -3.5830 h1        1 FO1      0.034200
     41 HO5'       -5.0630    4.0730   -5.2770 ho        1 FO1      0.413000
     42 H21        -0.0050   -0.5310    4.5020 ha        1 FO1      0.170000
     43 HC7        -4.5620   -0.6590    5.9470 ha        1 FO1      0.144000
@<TRIPOS>BOND
     1    1    2 1   
     2    1   17 2   
     3    2    3 2   
     4    2    4 1   
     5    4    5 1   
     6    4   27 1   
     7    5    6 2   
     8    5    7 1   
     9    7    8 2   
    10    7   17 1   
    11    8    9 1   
    12    8   42 1   
    13    9   10 ar  
    14    9   15 ar  
    15   10   11 ar  
    16   10   28 1   
    17   11   12 ar  
    18   11   43 1   
    19   12   13 1   
    20   12   14 ar  
    21   13   29 1   
    22   14   15 ar  
    23   14   30 1   
    24   15   16 1   
    25   16   17 1   
    26   16   18 1   
    27   18   19 1   
    28   18   31 1   
    29   18   32 1   
    30   19   20 1   
    31   19   21 1   
    32   19   33 1   
    33   20   34 1   
    34   21   22 1   
    35   21   23 1   
    36   21   35 1   
    37   22   36 1   
    38   23   24 1   
    39   23   25 1   
    40   23   37 1   
    41   24   38 1   
    42   25   26 1   
    43   25   39 1   
    44   25   40 1   
    45   26   41 1   
@<TRIPOS>SUBSTRUCTURE
     1 FO1         1 TEMP              0 ****  ****    0 ROOT
