@<TRIPOS>MOLECULE
FO1
   43    41     1     0     0
SMALL
bcc


@<TRIPOS>ATOM
      1 N1          2.5940   -0.5220   -0.3850 n1        1 FO1     -0.292000
      2 C1          4.0580   -0.5350   -0.3750 c1        1 FO1      0.368000
      3 O1          4.6730   -0.5370   -1.4260 o         1 FO1     -0.323000
      4 N2          4.7820   -0.5740    0.8930 n         1 FO1     -0.389000
      5 C2          4.0670   -0.5990    2.1190 c2        1 FO1      0.360000
      6 O2          4.6690   -0.7180    3.1710 o         1 FO1     -0.355000
      7 C3          2.5750   -0.5860    2.1110 c2        1 FO1     -0.243000
      8 C4          1.8280   -0.5050    3.3830 c1        1 FO1      0.060000
      9 C5          0.3160   -0.4730    3.3670 c1        1 FO1     -0.181000
     10 C6         -0.3970   -0.5060    4.5750 c1        1 FO1     -0.025000
     11 C7         -1.7900   -0.5860    4.5620 c1        1 FO1     -0.242000
     12 C9         -2.4790   -0.6340    3.3400 c1        1 FO1      0.138000
     13 O10        -3.8040   -0.6790    3.8280 o         1 FO1     -0.240000
     14 C11        -1.7720   -0.6020    2.1350 c2        1 FO1     -0.208000
     15 C12        -0.3730   -0.5220    2.1460 c2        1 FO1      0.163000
     16 N3          0.3930   -0.6050    0.8490 n3        1 FO1     -0.174000
     17 C13         1.8630   -0.5480    0.8600 c2        1 FO1      0.223000
     18 C14        -0.3110   -0.8760   -0.3900 c3        1 FO1     -0.021000
     19 C15        -0.4320    0.4110   -1.1990 c3        1 FO1      0.033000
     20 O3         -1.1190    1.3690   -0.4500 oh        1 FO1     -0.342000
     21 C16        -1.1890    0.1330   -2.4810 c3        1 FO1     -0.001000
     22 O4         -0.6670   -1.0190   -3.0940 oh        1 FO1     -0.316000
     23 C17        -1.0450    1.3120   -3.4180 c3        1 FO1     -0.004000
     24 O5         -1.8570    2.3730   -2.9670 oh        1 FO1     -0.344000
     25 C18        -1.4740    0.9050   -4.8070 c3        1 FO1     -0.061000
     26 O6         -1.4020    2.0250   -5.6690 oh        1 FO1     -0.334000
     27 HN3         5.6980   -0.5820    0.8980 hn        1 FO1      0.258000
     28 HC6         0.0810   -0.4720    5.4250 ha        1 FO1      0.145000
     29 HC82       -4.1530    0.1430    3.8160 ho        1 FO1      0.226000
     30 HC9        -2.2510   -0.6360    1.2880 ha        1 FO1      0.186000
     31 HC11        0.1850   -1.5410   -0.9080 h1        1 FO1      0.132500
     32 HC12       -1.2010   -1.2190   -0.1900 h1        1 FO1      0.132500
     33 HC2'        0.4560    0.7430   -1.4130 h1        1 FO1      0.122000
     34 HO2'       -0.6450    2.1200   -0.4230 ho        1 FO1      0.230000
     35 HC3'       -2.1360   -0.0080   -2.2760 h1        1 FO1      0.094000
     36 HO3'       -1.3280   -1.5730   -3.2930 ho        1 FO1      0.204000
     37 HC4'       -0.1170    1.5990   -3.4360 h1        1 FO1      0.115000
     38 HO4'       -1.6110    3.1310   -3.3740 ho        1 FO1      0.234000
     39 HC51       -0.8830    0.2020   -5.1370 h1        1 FO1      0.073500
     40 HC52       -2.3990    0.5700   -4.7800 h1        1 FO1      0.073500
     41 HO5'       -1.4210    1.7500   -6.5150 ho        1 FO1      0.212000
     42 H21         2.3070   -0.5420    4.2340 ha        1 FO1      0.170000
     43 HC7        -2.2880   -0.5850    5.4050 ha        1 FO1      0.144000
@<TRIPOS>BOND
     1    1   17 1   
     2    2    3 1   
     3    2    4 1   
     4    4    5 1   
     5    4   27 1   
     6    5    6 1   
     7    5    7 1   
     8    7    8 1   
     9    7   17 1   
    10    8   42 1   
    11    9   10 1   
    12    9   15 1   
    13   10   28 1   
    14   11   12 1   
    15   11   43 1   
    16   12   14 1   
    17   13   29 1   
    18   14   15 1   
    19   14   30 1   
    20   15   16 1   
    21   16   17 1   
    22   16   18 1   
    23   18   19 1   
    24   18   31 1   
    25   18   32 1   
    26   19   20 1   
    27   19   21 1   
    28   19   33 1   
    29   20   34 1   
    30   21   22 1   
    31   21   23 1   
    32   21   35 1   
    33   22   36 1   
    34   23   24 1   
    35   23   25 1   
    36   23   37 1   
    37   24   38 1   
    38   25   26 1   
    39   25   39 1   
    40   25   40 1   
    41   26   41 1   
@<TRIPOS>SUBSTRUCTURE
     1 FO1         1 TEMP              0 ****  ****    0 ROOT
