@<TRIPOS>MOLECULE
FO5
   35    37     1     0     0
SMALL
bcc


@<TRIPOS>ATOM
      1 C           0.0420    0.2290   -0.0630 c         1 FO5      0.657100
      2 N           0.9360    0.8250    3.2430 n1        1 FO5     -0.339800
      3 O           1.2600    0.4680   -0.1460 o         1 FO5     -0.571100
      4 S          -4.5460    2.9250   -8.2070 ss        1 FO5      0.119200
      5 C1         -0.6910    0.3270    1.2690 c3        1 FO5     -0.087300
      6 N1         -0.6690   -0.2140   -1.1790 n         1 FO5     -0.460800
      7 O1         -2.4430    3.2820   -3.8290 os        1 FO5     -0.143100
      8 C2          0.2170    0.6040    2.3580 c1        1 FO5      0.215700
      9 N2         -2.9410    4.1300   -4.7010 nc        1 FO5     -0.362300
     10 C3         -0.0270   -0.1870   -2.4800 c3        1 FO5      0.081500
     11 N3         -3.1680    2.0010   -5.5370 nd        1 FO5     -0.687000
     12 C4         -0.5530    0.9060   -3.4120 c3        1 FO5     -0.106400
     13 C5         -2.0730    0.8370   -3.5120 c3        1 FO5     -0.089000
     14 C6         -2.7050    0.8810   -2.1260 c3        1 FO5     -0.106400
     15 C7         -2.1130   -0.2170   -1.2380 c3        1 FO5      0.081500
     16 C8         -2.5820    1.9570   -4.3450 cc        1 FO5      0.506700
     17 C9         -3.3950    3.3990   -5.7580 cd        1 FO5      0.625500
     18 C10        -4.0190    3.9060   -6.9490 cd        1 FO5     -0.194600
     19 C11        -4.2660    5.2480   -7.2160 cc        1 FO5     -0.108000
     20 C12        -4.8960    5.4150   -8.4820 cc        1 FO5     -0.165000
     21 C13        -5.0970    4.2000   -9.1120 cd        1 FO5     -0.180100
     22 H1         -1.4520    1.1550    1.2100 hc        1 FO5      0.095200
     23 H1A        -1.2270   -0.6400    1.4830 hc        1 FO5      0.095200
     24 H3          1.0840   -0.0520   -2.3490 h1        1 FO5      0.065450
     25 H3A        -0.2080   -1.1930   -2.9590 h1        1 FO5      0.065450
     26 H4         -0.2470    1.9170   -3.0370 hc        1 FO5      0.068200
     27 H4A        -0.0970    0.7610   -4.4240 hc        1 FO5      0.068200
     28 H5         -2.3610   -0.1330   -4.0130 hc        1 FO5      0.087700
     29 H6         -3.8110    0.7200   -2.2030 hc        1 FO5      0.068200
     30 H6A        -2.5340    1.8910   -1.6670 hc        1 FO5      0.068200
     31 H7         -2.4250   -1.2200   -1.6540 h1        1 FO5      0.065450
     32 H7A        -2.5580   -0.1240   -0.2100 h1        1 FO5      0.065450
     33 H11        -4.0130    6.0750   -6.5490 ha        1 FO5      0.169000
     34 H12        -5.1780    6.3890   -8.8870 ha        1 FO5      0.158000
     35 H13        -5.5620    4.0750  -10.0890 h4        1 FO5      0.175000
@<TRIPOS>BOND
     1    1    3 2   
     2    1    5 1   
     3    1    6 1   
     4    2    8 3   
     5    4   18 1   
     6    4   21 1   
     7    5    8 1   
     8    5   22 1   
     9    5   23 1   
    10    6   10 1   
    11    6   15 1   
    12    7    9 1   
    13    7   16 1   
    14    9   17 2   
    15   10   12 1   
    16   10   24 1   
    17   10   25 1   
    18   11   16 2   
    19   11   17 1   
    20   12   13 1   
    21   12   26 1   
    22   12   27 1   
    23   13   14 1   
    24   13   16 1   
    25   13   28 1   
    26   14   15 1   
    27   14   29 1   
    28   14   30 1   
    29   15   31 1   
    30   15   32 1   
    31   17   18 1   
    32   18   19 2   
    33   19   20 1   
    34   19   33 1   
    35   20   21 2   
    36   20   34 1   
    37   21   35 1   
@<TRIPOS>SUBSTRUCTURE
     1 FO5         1 TEMP              0 ****  ****    0 ROOT
