@<TRIPOS>MOLECULE
FO5
   35    32     1     0     0
SMALL
bcc


@<TRIPOS>ATOM
      1 C           2.2830   -0.6620    3.3740 c1        1 FO5      0.297000
      2 N           3.2130   -0.5090    6.6910 n1        1 FO5     -0.016000
      3 O           3.5130   -0.6610    3.3690 o         1 FO5     -0.336000
      4 S          -3.7390    1.9310   -3.2910 ss        1 FO5      0.652000
      5 C1          1.5240   -0.7300    4.7000 c2        1 FO5     -0.089000
      6 N1          1.5440   -0.5960    2.1090 n3        1 FO5     -0.314000
      7 O1          0.3550    0.9610   -0.9310 os        1 FO5     -0.088000
      8 C2          2.4950   -0.6020    5.8440 c1        1 FO5     -0.136000
      9 N2         -0.2900    1.8170   -1.7840 n2        1 FO5     -0.026000
     10 C3          2.2000   -0.5270    0.8100 c3        1 FO5     -0.040000
     11 N3         -1.3090   -0.1290   -1.8760 n2        1 FO5     -0.170000
     12 C4          1.6780   -1.5850   -0.1560 c3        1 FO5     -0.180000
     13 C5          0.1910   -1.5770   -0.2530 c3        1 FO5     -0.033000
     14 C6         -0.4570   -1.6460    1.0870 c3        1 FO5     -0.180000
     15 C7          0.0800   -0.5900    2.0380 c3        1 FO5     -0.040000
     16 C8         -0.2730   -0.2370   -0.9890 c2        1 FO5      0.022000
     17 C9         -1.3150    1.1380   -2.3630 c1        1 FO5     -0.007000
     18 C10        -2.2240    1.6630   -3.4350 c1        1 FO5     -0.401500
     19 C11        -1.8210    2.0900   -4.7510 c1        1 FO5     -0.135500
     20 C12        -3.0940    2.6570   -5.5030 c1        1 FO5     -0.135500
     21 C13        -4.2270    2.5540   -4.6160 c1        1 FO5     -0.401500
     22 H1          0.8670    0.0090    4.7420 ha        1 FO5      0.134000
     23 H1A         1.0510   -1.5990    4.7640 ha        1 FO5      0.134000
     24 H3          3.1550   -0.6580    0.9320 h1        1 FO5      0.110000
     25 H3A         2.0520    0.3490    0.4290 h1        1 FO5      0.110000
     26 H4          2.0570   -1.4200   -1.0470 hc        1 FO5      0.105750
     27 H4A         1.9750   -2.4840    0.1610 hc        1 FO5      0.105750
     28 H5         -0.0990   -2.3490   -0.7850 hc        1 FO5      0.126000
     29 H6         -0.2990   -2.5270    1.4710 hc        1 FO5      0.105750
     30 H6A        -1.4170   -1.5160    0.9790 hc        1 FO5      0.105750
     31 H7         -0.2770   -0.7520    2.9220 h1        1 FO5      0.110000
     32 H7A        -0.2200    0.2940    1.7290 h1        1 FO5      0.110000
     33 H11        -0.9010    2.0380   -5.1240 DU        1 FO5      0.167667
     34 H12        -3.1090    3.0190   -6.4220 DU        1 FO5      0.167667
     35 H13        -5.1610    2.8350   -4.8230 DU        1 FO5      0.167667
@<TRIPOS>BOND
     1    1    3 1   
     2    1    6 1   
     3    2    8 1   
     4    4   18 1   
     5    4   21 1   
     6    5    8 1   
     7    5   22 1   
     8    5   23 1   
     9    6   10 1   
    10    6   15 1   
    11    7    9 1   
    12    7   16 1   
    13    9   17 1   
    14   10   12 1   
    15   10   24 1   
    16   10   25 1   
    17   11   16 1   
    18   11   17 1   
    19   12   13 1   
    20   12   26 1   
    21   12   27 1   
    22   13   14 1   
    23   13   16 1   
    24   13   28 1   
    25   14   15 1   
    26   14   29 1   
    27   14   30 1   
    28   15   31 1   
    29   15   32 1   
    30   18   19 1   
    31   19   20 1   
    32   20   21 1   
@<TRIPOS>SUBSTRUCTURE
     1 FO5         1 TEMP              0 ****  ****    0 ROOT
