@<TRIPOS>MOLECULE
FO5
   35    37     1     0     0
SMALL
bcc


@<TRIPOS>ATOM
      1 C           0.0420    0.2440   -0.0570 c         1 FO5      0.657100
      2 N           0.9220    0.8470    3.2520 n1        1 FO5     -0.339800
      3 O           1.2590    0.4930   -0.1370 o         1 FO5     -0.571100
      4 S          -4.5340    2.9130   -8.2160 ss        1 FO5      0.119200
      5 C1         -0.6950    0.3360    1.2730 c3        1 FO5     -0.087300
      6 N1         -0.6620   -0.2040   -1.1760 n         1 FO5     -0.460800
      7 O1         -2.4580    3.2810   -3.8270 os        1 FO5     -0.143100
      8 C2          0.2070    0.6190    2.3640 c1        1 FO5      0.215700
      9 N2         -2.9590    4.1250   -4.6990 nc        1 FO5     -0.362300
     10 C3         -0.0170   -0.1710   -2.4750 c3        1 FO5      0.081500
     11 N3         -3.1630    1.9960   -5.5400 nd        1 FO5     -0.687000
     12 C4         -0.5480    0.9190   -3.4070 c3        1 FO5     -0.106400
     13 C5         -2.0670    0.8380   -3.5120 c3        1 FO5     -0.089000
     14 C6         -2.7030    0.8770   -2.1270 c3        1 FO5     -0.106400
     15 C7         -2.1050   -0.2180   -1.2380 c3        1 FO5      0.081500
     16 C8         -2.5820    1.9550   -4.3460 cc        1 FO5      0.506700
     17 C9         -3.4010    3.3920   -5.7600 cd        1 FO5      0.625500
     18 C10        -4.0230    3.8960   -6.9530 cd        1 FO5     -0.194600
     19 C11        -4.2810    5.2350   -7.2200 cc        1 FO5     -0.108000
     20 C12        -4.9060    5.3990   -8.4890 cc        1 FO5     -0.165000
     21 C13        -5.0930    4.1840   -9.1210 cd        1 FO5     -0.180100
     22 H1         -1.4630    1.1580    1.2120 hc        1 FO5      0.095200
     23 H1A        -1.2240   -0.6360    1.4850 hc        1 FO5      0.095200
     24 H3          1.0940   -0.0270   -2.3410 h1        1 FO5      0.065450
     25 H3A        -0.1880   -1.1780   -2.9550 h1        1 FO5      0.065450
     26 H4         -0.2510    1.9320   -3.0300 hc        1 FO5      0.068200
     27 H4A        -0.0870    0.7780   -4.4180 hc        1 FO5      0.068200
     28 H5         -2.3460   -0.1340   -4.0140 hc        1 FO5      0.087700
     29 H6         -2.5420    1.8870   -1.6680 hc        1 FO5      0.068200
     30 H6A        -3.8070    0.7070   -2.2080 hc        1 FO5      0.068200
     31 H7         -2.5550   -0.1290   -0.2120 h1        1 FO5      0.065450
     32 H7A        -2.4080   -1.2230   -1.6570 h1        1 FO5      0.065450
     33 H11        -4.0390    6.0640   -6.5500 ha        1 FO5      0.169000
     34 H12        -5.1950    6.3710   -8.8940 ha        1 FO5      0.158000
     35 H13        -5.5510    4.0560  -10.1020 h4        1 FO5      0.175000
@<TRIPOS>BOND
     1    1    3 2   
     2    1    5 1   
     3    1    6 1   
     4    2    8 3   
     5    4   18 1   
     6    4   21 1   
     7    5    8 1   
     8    5   22 1   
     9    5   23 1   
    10    6   10 1   
    11    6   15 1   
    12    7    9 1   
    13    7   16 1   
    14    9   17 2   
    15   10   12 1   
    16   10   24 1   
    17   10   25 1   
    18   11   16 2   
    19   11   17 1   
    20   12   13 1   
    21   12   26 1   
    22   12   27 1   
    23   13   14 1   
    24   13   16 1   
    25   13   28 1   
    26   14   15 1   
    27   14   29 1   
    28   14   30 1   
    29   15   31 1   
    30   15   32 1   
    31   17   18 1   
    32   18   19 2   
    33   19   20 1   
    34   19   33 1   
    35   20   21 2   
    36   20   34 1   
    37   21   35 1   
@<TRIPOS>SUBSTRUCTURE
     1 FO5         1 TEMP              0 ****  ****    0 ROOT
