@<TRIPOS>MOLECULE
FO5
   35    37     1     0     0
SMALL
bcc


@<TRIPOS>ATOM
      1 C           4.5490    0.0660    0.3000 c         1 FO5      0.657100
      2 N           7.4310   -1.8490   -0.0360 n1        1 FO5     -0.339800
      3 O           4.9240   -0.0770    1.4780 o         1 FO5     -0.571100
      4 S          -5.1300    0.9380   -0.1300 ss        1 FO5      0.119200
      5 C1          5.2870   -0.6100   -0.8480 c3        1 FO5     -0.087300
      6 N1          3.4870    0.9190   -0.0050 n         1 FO5     -0.460800
      7 O1         -0.7530   -1.1770    0.1460 os        1 FO5     -0.143100
      8 C2          6.4730   -1.2950   -0.3910 c1        1 FO5      0.215700
      9 N2         -1.9980   -1.5910    0.2110 nc        1 FO5     -0.362300
     10 C3          2.6890    1.4660    1.0770 c3        1 FO5      0.081500
     11 N3         -1.9970    0.6840   -0.1150 nd        1 FO5     -0.687000
     12 C4          1.2920    0.8550    1.1900 c3        1 FO5     -0.106400
     13 C5          0.5720    0.9130   -0.1530 c3        1 FO5     -0.089000
     14 C6          1.4190    0.2660   -1.2430 c3        1 FO5     -0.106400
     15 C7          2.8110    0.9020   -1.2810 c3        1 FO5      0.081500
     16 C8         -0.7470    0.2370   -0.0560 cc        1 FO5      0.506700
     17 C9         -2.7930   -0.4940    0.0580 cd        1 FO5      0.625500
     18 C10        -4.2300   -0.4680    0.0620 cd        1 FO5     -0.194600
     19 C11        -5.0530   -1.5770    0.2230 cc        1 FO5     -0.108000
     20 C12        -6.4280   -1.2100    0.1790 cc        1 FO5     -0.165000
     21 C13        -6.5840    0.1500   -0.0110 cd        1 FO5     -0.180100
     22 H1          4.6000   -1.3580   -1.3370 hc        1 FO5      0.095200
     23 H1A         5.5870    0.1580   -1.6160 hc        1 FO5      0.095200
     24 H3          3.2310    1.3220    2.0550 h1        1 FO5      0.065450
     25 H3A         2.5900    2.5740    0.8860 h1        1 FO5      0.065450
     26 H4          1.3600   -0.2100    1.5350 hc        1 FO5      0.068200
     27 H4A         0.7140    1.4300    1.9580 hc        1 FO5      0.068200
     28 H5          0.3940    1.9950   -0.4240 hc        1 FO5      0.087700
     29 H6          1.4960   -0.8370   -1.0540 hc        1 FO5      0.068200
     30 H6A         0.9330    0.4110   -2.2420 hc        1 FO5      0.068200
     31 H7          2.7040    1.9770   -1.6130 h1        1 FO5      0.065450
     32 H7A         3.4260    0.3680   -2.0570 h1        1 FO5      0.065450
     33 H11        -4.7010   -2.6010    0.3660 ha        1 FO5      0.169000
     34 H12        -7.2440   -1.9290    0.2850 ha        1 FO5      0.158000
     35 H13        -7.5430    0.6640   -0.0770 h4        1 FO5      0.175000
@<TRIPOS>BOND
     1    1    3 2   
     2    1    5 1   
     3    1    6 1   
     4    2    8 3   
     5    4   18 1   
     6    4   21 1   
     7    5    8 1   
     8    5   22 1   
     9    5   23 1   
    10    6   10 1   
    11    6   15 1   
    12    7    9 1   
    13    7   16 1   
    14    9   17 2   
    15   10   12 1   
    16   10   24 1   
    17   10   25 1   
    18   11   16 2   
    19   11   17 1   
    20   12   13 1   
    21   12   26 1   
    22   12   27 1   
    23   13   14 1   
    24   13   16 1   
    25   13   28 1   
    26   14   15 1   
    27   14   29 1   
    28   14   30 1   
    29   15   31 1   
    30   15   32 1   
    31   17   18 1   
    32   18   19 2   
    33   19   20 1   
    34   19   33 1   
    35   20   21 2   
    36   20   34 1   
    37   21   35 1   
@<TRIPOS>SUBSTRUCTURE
     1 FO5         1 TEMP              0 ****  ****    0 ROOT
