@<TRIPOS>MOLECULE
FOA
   11    11     1     0     0
SMALL
bcc


@<TRIPOS>ATOM
      1 C1          1.4410   -0.0150   -0.0010 c         1 FOA      0.827100
      2 C2         -0.0710   -0.1220   -0.0000 cc        1 FOA      0.246200
      3 C3         -0.9320   -1.2120   -0.0010 cd        1 FOA     -0.306300
      4 C4         -2.2760   -0.6880    0.0000 cd        1 FOA     -0.282300
      5 C5         -2.1600    0.6890    0.0010 cc        1 FOA      0.169600
      6 O6          2.0710   -1.1080   -0.0010 o         1 FOA     -0.809800
      7 O7          1.9650    1.1280   -0.0000 o         1 FOA     -0.809800
      8 O8         -0.8160    1.0570    0.0000 os        1 FOA     -0.336800
      9 H3         -0.6420   -2.2560   -0.0010 ha        1 FOA      0.154000
     10 H4         -3.1880   -1.2740    0.0000 ha        1 FOA      0.127000
     11 H5         -2.8560    1.5180    0.0010 h4        1 FOA      0.021100
@<TRIPOS>BOND
     1    1    2 1   
     2    1    6 1   
     3    1    7 1   
     4    2    3 2   
     5    2    8 1   
     6    3    4 1   
     7    3    9 1   
     8    4    5 2   
     9    4   10 1   
    10    5    8 1   
    11    5   11 1   
@<TRIPOS>SUBSTRUCTURE
     1 FOA         1 TEMP              0 ****  ****    0 ROOT
