@<TRIPOS>MOLECULE
FOA
   11    11     1     0     0
SMALL
bcc


@<TRIPOS>ATOM
      1 C1         -0.0530    0.0140   -0.0680 c         1 FOA      0.827100
      2 C2          1.4560    0.0170    0.0690 cc        1 FOA      0.246200
      3 C3          2.2950    0.0370    1.1750 cd        1 FOA     -0.306300
      4 C4          3.6500    0.0280    0.6770 cd        1 FOA     -0.282300
      5 C5          3.5610    0.0030   -0.7010 cc        1 FOA      0.169600
      6 O6         -0.7060    0.0320    1.0120 o         1 FOA     -0.809800
      7 O7         -0.5550   -0.0050   -1.2210 o         1 FOA     -0.809800
      8 O8          2.2240   -0.0050   -1.0950 os        1 FOA     -0.336800
      9 H3          1.9850    0.0570    2.2130 ha        1 FOA      0.154000
     10 H4          4.5500    0.0400    1.2810 ha        1 FOA      0.127000
     11 H5          4.2730   -0.0120   -1.5160 h4        1 FOA      0.021100
@<TRIPOS>BOND
     1    1    2 1   
     2    1    6 1   
     3    1    7 1   
     4    2    3 2   
     5    2    8 1   
     6    3    4 1   
     7    3    9 1   
     8    4    5 2   
     9    4   10 1   
    10    5    8 1   
    11    5   11 1   
@<TRIPOS>SUBSTRUCTURE
     1 FOA         1 TEMP              0 ****  ****    0 ROOT
