@<TRIPOS>MOLECULE
FOA
   11     7     1     0     0
SMALL
bcc


@<TRIPOS>ATOM
      1 C1         -2.0900   -0.0020   -0.1870 c1        1 FOA      0.853000
      2 C2         -0.5770   -0.0020   -0.1870 c1        1 FOA     -0.071400
      3 C3          0.2340   -0.0020    0.9290 cg        1 FOA     -0.229000
      4 C4          1.5340   -0.0020    0.5060 cg        1 FOA     -0.229000
      5 C5          1.5320   -0.0020   -0.8740 c1        1 FOA     -0.071400
      6 O6         -2.7190   -1.0910   -0.1330 o         1 FOA     -0.778000
      7 O7         -2.7190    1.0870   -0.2480 o         1 FOA     -0.778000
      8 O8          0.2280   -0.0020   -1.2960 os        1 FOA     -0.135200
      9 H3         -0.0670    0.0210    1.8570 DU        1 FOA      0.146333
     10 H4          2.3240   -0.0020    1.0800 DU        1 FOA      0.146333
     11 H5          2.3210   -0.0020   -1.4480 DU        1 FOA      0.146333
@<TRIPOS>BOND
     1    1    6 2   
     2    1    7 2   
     3    2    3 3   
     4    2    8 1   
     5    3    4 1   
     6    4    5 3   
     7    5    8 1   
@<TRIPOS>SUBSTRUCTURE
     1 FOA         1 TEMP              0 ****  ****    0 ROOT
