@<TRIPOS>MOLECULE
FOB
   31    31     1     0     0
SMALL
bcc


@<TRIPOS>ATOM
      1 CH3      -103.8950 -250.6460 -266.7350 c3        1 FOB     -0.234000
      2 O2       -106.1950 -251.6380 -267.5880 oh        1 FOB     -0.267000
      3 N1       -105.1740 -252.1350 -268.3120 n         1 FOB     -0.163000
      4 C1       -103.9210 -251.7730 -267.7340 c2        1 FOB      0.278000
      5 O1       -102.8680 -252.2980 -268.1400 o         1 FOB     -0.358000
      6 C2       -105.3590 -253.5450 -268.6990 c3        1 FOB     -0.104000
      7 C3       -105.8340 -254.5140 -267.6080 c3        1 FOB     -0.063000
      8 C4       -106.4810 -255.6870 -268.2090 c2        1 FOB     -0.483000
      9 PA1       722.0380    0.9740    0.6890 p2        1 FOB      0.649000
     10 OP1       720.8280    0.2240    0.4920 os        1 FOB     -0.611000
     11 OP2       722.2150    0.6800    0.0060 os        1 FOB     -0.427000
     12 OP3       723.0720    0.0180    0.5700 os        1 FOB     -0.611000
     13 CG       -107.7740 -255.7000 -268.6680 c2        1 FOB      0.120000
     14 CD1      -108.3610 -256.8890 -269.2280 c2        1 FOB     -0.326000
     15 CD2      -108.6470 -254.5590 -268.6410 c2        1 FOB     -0.326000
     16 CE1      -109.6680 -256.8680 -269.6840 c2        1 FOB     -0.047500
     17 CE2      -109.9410 -254.6640 -269.1270 c2        1 FOB     -0.047500
     18 NZ       -110.4870 -255.7850 -269.6530 n2        1 FOB     -0.305000
     19 H1       -104.5010 -250.9280 -265.8390 hc        1 FOB      0.098667
     20 H2       -102.8420 -250.4440 -266.4280 hc        1 FOB      0.098667
     21 H3       -104.3380 -249.7260 -267.1850 hc        1 FOB      0.098667
     22 H4       -106.9890 -251.7740 -268.1420 ho        1 FOB      0.231000
     23 H5       -106.1300 -253.5290 -269.5210 h1        1 FOB      0.111000
     24 H6       -104.3820 -253.8980 -269.1260 h1        1 FOB      0.111000
     25 H7       -104.9480 -254.8240 -266.9930 hc        1 FOB      0.052000
     26 H8       -106.5440 -253.9780 -266.9190 hc        1 FOB      0.052000
     27 H9       -105.8730 -256.5940 -268.2790 ha        1 FOB      0.091000
     28 H12      -107.7580 -257.8000 -269.2840 ha        1 FOB      0.093500
     29 H13      -108.2810 -253.6130 -268.2280 ha        1 FOB      0.093500
     30 H14      -110.1230 -257.7770 -270.1150 h4        1 FOB      0.097000
     31 H15      -110.6150 -253.7880 -269.1040 h4        1 FOB      0.097000
@<TRIPOS>BOND
     1    1    4 1   
     2    1   19 1   
     3    1   20 1   
     4    1   21 1   
     5    2    3 1   
     6    2   22 1   
     7    3    4 1   
     8    3    6 1   
     9    4    5 1   
    10    6    7 1   
    11    6   23 1   
    12    6   24 1   
    13    7    8 1   
    14    7   25 1   
    15    7   26 1   
    16    8   13 1   
    17    8   27 1   
    18    9   10 1   
    19    9   12 1   
    20   10   11 1   
    21   11   12 1   
    22   13   14 1   
    23   13   15 1   
    24   14   16 1   
    25   14   28 1   
    26   15   17 1   
    27   15   29 1   
    28   16   18 1   
    29   16   30 1   
    30   17   18 1   
    31   17   31 1   
@<TRIPOS>SUBSTRUCTURE
     1 FOB         1 TEMP              0 ****  ****    0 ROOT
