@<TRIPOS>MOLECULE
FOB
   32    31     1     0     0
SMALL
bcc


@<TRIPOS>ATOM
      1 CH3         0.9320   -1.7340   -1.2200 c3        1 FOB     -0.182100
      2 O2          0.3530    1.1750   -2.7790 oh        1 FOB     -0.810000
      3 N1          2.3760    0.1740   -0.5600 ne        1 FOB     -0.736100
      4 C1          1.5260   -0.8710   -0.1340 c         1 FOB      0.696500
      5 O1          1.1730   -1.0040    1.0510 o         1 FOB     -0.577100
      6 C2          3.6330    0.2700   -0.3340 c2        1 FOB      0.540200
      7 C3          4.5530   -0.6700    0.3910 c3        1 FOB     -0.163700
      8 C4          5.6160   -1.2280   -0.5310 c3        1 FOB     -0.242600
      9 PA1         7.1110   -0.3670   -0.2260 p5        1 FOB      1.327600
     10 OP1         7.3520   -0.2460    1.2300 o         1 FOB     -0.842500
     11 OP2         8.1050   -0.7590   -1.2410 o         1 FOB     -0.842500
     12 OP3         6.5720    1.1550   -0.5740 oh        1 FOB     -0.805400
     13 CG          5.7810   -2.6880   -0.4110 ca        1 FOB      0.018700
     14 CD1         6.0340   -3.4670   -1.5560 ca        1 FOB     -0.239300
     15 CD2         5.6530   -3.3730    0.8110 ca        1 FOB     -0.239300
     16 CE1         6.1490   -4.8590   -1.4290 ca        1 FOB      0.379200
     17 CE2         5.7820   -4.7700    0.8320 ca        1 FOB      0.379200
     18 NZ          6.0200   -5.5210   -0.2620 nb        1 FOB     -0.695000
     19 H1          0.1870   -2.4330   -0.7710 hc        1 FOB      0.066700
     20 H2          1.7370   -2.3270   -1.7170 hc        1 FOB      0.066700
     21 H3          0.4250   -1.0950   -1.9870 hc        1 FOB      0.066700
     22 H4          1.2900    1.0170   -2.9270 ho        1 FOB      0.405000
     23 H5          6.7250    1.7540    0.1480 ho        1 FOB      0.426000
     24 H6          4.1350    1.1750   -0.7540 h4        1 FOB      0.044800
     25 H7          5.0560   -0.0960    1.2240 hc        1 FOB      0.079200
     26 H8          3.9530   -1.4910    0.8720 hc        1 FOB      0.079200
     27 H9          5.3540   -0.9880   -1.5980 hc        1 FOB      0.083700
     28 H12         6.1730   -2.9860   -2.5340 ha        1 FOB      0.152000
     29 H13         5.4830   -2.8220    1.7480 ha        1 FOB      0.152000
     30 H14         6.3590   -5.4860   -2.3130 h4        1 FOB      0.004100
     31 H15         5.6910   -5.3240    1.7820 h4        1 FOB      0.004100
     32 H11         0.3050    1.3540   -1.8350 ho        1 FOB      0.405000
@<TRIPOS>BOND
     1    1    4 1   
     2    1   19 1   
     3    1   20 1   
     4    1   21 1   
     5    2   22 1   
     6    2   32 1   
     7    3    4 1   
     8    3    6 2   
     9    4    5 2   
    10    6    7 1   
    11    6   24 1   
    12    7    8 1   
    13    7   25 1   
    14    7   26 1   
    15    8    9 1   
    16    8   13 1   
    17    8   27 1   
    18    9   10 1   
    19    9   11 1   
    20    9   12 1   
    21   12   23 1   
    22   13   14 ar  
    23   13   15 ar  
    24   14   16 ar  
    25   14   28 1   
    26   15   17 ar  
    27   15   29 1   
    28   16   18 ar  
    29   16   30 1   
    30   17   18 ar  
    31   17   31 1   
@<TRIPOS>SUBSTRUCTURE
     1 FOB         1 TEMP              0 ****  ****    0 ROOT
