@<TRIPOS>MOLECULE
FOB
   32    31     1     0     0
SMALL
bcc


@<TRIPOS>ATOM
      1 CH3         1.0100   -1.7730   -1.4850 c3        1 FOB     -0.183100
      2 O2          0.4960    1.1720   -3.0000 oh        1 FOB     -0.810000
      3 N1          2.3550    0.1410   -0.6540 ne        1 FOB     -0.736100
      4 C1          1.4970   -0.9330   -0.3290 c         1 FOB      0.696500
      5 O1          1.0530   -1.1100    0.8190 o         1 FOB     -0.577100
      6 C2          3.5880    0.2530   -0.3270 c2        1 FOB      0.540200
      7 C3          4.4670   -0.6920    0.4400 c3        1 FOB     -0.163700
      8 C4          5.6110   -1.2000   -0.4110 c3        1 FOB     -0.242600
      9 PA1         7.0590   -0.3210    0.0370 p5        1 FOB      1.327600
     10 OP1         7.1830   -0.2420    1.5100 o         1 FOB     -0.842500
     11 OP2         8.1380   -0.6620   -0.9080 o         1 FOB     -0.842500
     12 OP3         6.5180    1.2010   -0.3060 oh        1 FOB     -0.805400
     13 CG          5.7960   -2.6600   -0.3230 ca        1 FOB      0.018700
     14 CD1         6.1550   -3.3970   -1.4680 ca        1 FOB     -0.239300
     15 CD2         5.5880   -3.3850    0.8640 ca        1 FOB     -0.239300
     16 CE1         6.2900   -4.7900   -1.3740 ca        1 FOB      0.379200
     17 CE2         5.7450   -4.7800    0.8530 ca        1 FOB      0.379200
     18 NZ          6.0830   -5.4910   -0.2410 nb        1 FOB     -0.695000
     19 H1          0.5530   -1.1190   -2.2710 hc        1 FOB      0.066700
     20 H2          1.8640   -2.3350   -1.9320 hc        1 FOB      0.066700
     21 H3          0.2450   -2.4990   -1.1180 hc        1 FOB      0.066700
     22 H4          1.4450    1.0360   -3.0770 ho        1 FOB      0.405000
     23 H5          6.6010    1.7790    0.4430 ho        1 FOB      0.426000
     24 H6          4.1020    1.1810   -0.6770 h4        1 FOB      0.044800
     25 H7          3.8490   -1.5390    0.8470 hc        1 FOB      0.078700
     26 H8          4.8920   -0.1350    1.3280 hc        1 FOB      0.078700
     27 H9          5.4280   -0.9310   -1.4880 hc        1 FOB      0.083700
     28 H12         6.3600   -2.8830   -2.4170 ha        1 FOB      0.152000
     29 H13         5.3340   -2.8680    1.8010 ha        1 FOB      0.152000
     30 H14         6.5810   -5.3840   -2.2570 h4        1 FOB      0.004100
     31 H15         5.5910   -5.3660    1.7750 h4        1 FOB      0.004100
     32 H11         0.3690    1.3210   -2.0580 ho        1 FOB      0.405000
@<TRIPOS>BOND
     1    1    4 1   
     2    1   19 1   
     3    1   20 1   
     4    1   21 1   
     5    2   22 1   
     6    2   32 1   
     7    3    4 1   
     8    3    6 2   
     9    4    5 2   
    10    6    7 1   
    11    6   24 1   
    12    7    8 1   
    13    7   25 1   
    14    7   26 1   
    15    8    9 1   
    16    8   13 1   
    17    8   27 1   
    18    9   10 1   
    19    9   11 1   
    20    9   12 1   
    21   12   23 1   
    22   13   14 ar  
    23   13   15 ar  
    24   14   16 ar  
    25   14   28 1   
    26   15   17 ar  
    27   15   29 1   
    28   16   18 ar  
    29   16   30 1   
    30   17   18 ar  
    31   17   31 1   
@<TRIPOS>SUBSTRUCTURE
     1 FOB         1 TEMP              0 ****  ****    0 ROOT
