@<TRIPOS>MOLECULE
FOB
   32    31     1     0     0
SMALL
bcc


@<TRIPOS>ATOM
      1 CH3         0.3620   -0.3210    0.0330 c3        1 FOB     -0.184100
      2 O2          0.2070    1.6950   -2.6360 oh        1 FOB     -0.810000
      3 N1          2.2280   -0.5070   -1.5940 ne        1 FOB     -0.741100
      4 C1          1.2410   -1.1810   -0.8430 c         1 FOB      0.696500
      5 O1          1.0070   -2.3950   -0.9830 o         1 FOB     -0.577100
      6 C2          3.4960   -0.5790   -1.4220 c2        1 FOB      0.549200
      7 C3          4.2630   -1.3260   -0.3730 c3        1 FOB     -0.174700
      8 C4          5.7210   -1.5240   -0.7220 c3        1 FOB     -0.242600
      9 PA1         6.6560   -0.2920    0.0980 p5        1 FOB      1.326600
     10 OP1         6.1160   -0.0600    1.4590 o         1 FOB     -0.843500
     11 OP2         8.0800   -0.4350   -0.2510 o         1 FOB     -0.843500
     12 OP3         6.0470    1.0170   -0.7030 oh        1 FOB     -0.804400
     13 CG          6.2050   -2.8840   -0.4130 ca        1 FOB      0.022700
     14 CD1         7.1270   -3.5190   -1.2660 ca        1 FOB     -0.237800
     15 CD2         5.7480   -3.6200    0.6960 ca        1 FOB     -0.237800
     16 CE1         7.5480   -4.8250   -0.9730 ca        1 FOB      0.380700
     17 CE2         6.2290   -4.9240    0.8980 ca        1 FOB      0.380700
     18 NZ          7.1100   -5.5360    0.0850 nb        1 FOB     -0.695000
     19 H1          0.9690    0.1320    0.8530 hc        1 FOB      0.066700
     20 H2         -0.4460   -0.9490    0.4780 hc        1 FOB      0.066700
     21 H3         -0.0990    0.4990   -0.5740 hc        1 FOB      0.066700
     22 H4          0.3170    0.8030   -2.9800 ho        1 FOB      0.405000
     23 H5          4.1060    0.0420   -2.1200 h4        1 FOB      0.037800
     24 H6          5.7130    1.6730   -0.1030 ho        1 FOB      0.425000
     25 H7          4.2060   -0.7390    0.5950 hc        1 FOB      0.087200
     26 H8          3.7520   -2.3130   -0.1930 hc        1 FOB      0.087200
     27 H9          5.8760   -1.3380   -1.8200 hc        1 FOB      0.084700
     28 H12         7.5390   -2.9860   -2.1340 ha        1 FOB      0.148500
     29 H13         5.0430   -3.1770    1.4130 ha        1 FOB      0.148500
     30 H14         8.2790   -5.3350   -1.6230 h4        1 FOB      0.003100
     31 H15         5.8860   -5.5150    1.7660 h4        1 FOB      0.003100
     32 H11         1.0650    1.8890   -2.2480 ho        1 FOB      0.405000
@<TRIPOS>BOND
     1    1    4 1   
     2    1   19 1   
     3    1   20 1   
     4    1   21 1   
     5    2   22 1   
     6    2   32 1   
     7    3    4 1   
     8    3    6 2   
     9    4    5 2   
    10    6    7 1   
    11    6   23 1   
    12    7    8 1   
    13    7   25 1   
    14    7   26 1   
    15    8    9 1   
    16    8   13 1   
    17    8   27 1   
    18    9   10 1   
    19    9   11 1   
    20    9   12 1   
    21   12   24 1   
    22   13   14 ar  
    23   13   15 ar  
    24   14   16 ar  
    25   14   28 1   
    26   15   17 ar  
    27   15   29 1   
    28   16   18 ar  
    29   16   30 1   
    30   17   18 ar  
    31   17   31 1   
@<TRIPOS>SUBSTRUCTURE
     1 FOB         1 TEMP              0 ****  ****    0 ROOT
