@<TRIPOS>MOLECULE
FOC
   25    24     1     0     0
SMALL
bcc


@<TRIPOS>ATOM
      1 C1         -0.0080    0.0810    0.0380 c3        1 FOC      0.093400
      2 O1         -0.3680    1.1430    0.9100 oh        1 FOC     -0.616800
      3 C2          1.5220    0.0720   -0.0150 c3        1 FOC      0.151100
      4 O2          2.0800   -0.1140    1.2760 oh        1 FOC     -0.602800
      5 C3          2.0130   -1.0600   -0.9330 c3        1 FOC      0.157100
      6 O3          1.3860   -2.2600   -0.5230 oh        1 FOC     -0.597800
      7 C4          3.5520   -1.1670   -0.8830 c3        1 FOC      0.073100
      8 O4          4.0190   -0.2810   -1.8960 oh        1 FOC     -0.609800
      9 C5          4.0450   -2.5950   -1.1740 c3        1 FOC      0.104100
     10 O5          3.4880   -3.0760   -2.3880 oh        1 FOC     -0.608800
     11 C6          5.5590   -2.6580   -1.2060 c3        1 FOC     -0.130100
     12 H11        -0.4300    0.2670   -0.9840 h1        1 FOC      0.047200
     13 H12        -0.3820   -0.9010    0.4330 h1        1 FOC      0.047200
     14 HO1        -1.3090    1.0450    1.0930 ho        1 FOC      0.409000
     15 H2          1.8990    1.0500   -0.4320 h1        1 FOC      0.055700
     16 HO2         1.5840    0.4580    1.8770 ho        1 FOC      0.422000
     17 H3          1.7070   -0.8110   -1.9900 h1        1 FOC      0.052700
     18 HO3         1.5710   -2.9200   -1.2070 ho        1 FOC      0.422000
     19 H4          3.9280   -0.8500    0.1280 h1        1 FOC      0.080700
     20 HO4         4.9390   -0.0810   -1.6880 ho        1 FOC      0.407000
     21 H5          3.6420   -3.2930   -0.3850 h1        1 FOC      0.093700
     22 HO5         3.7230   -2.4390   -3.0760 ho        1 FOC      0.412000
     23 H61         5.9790   -2.2890   -0.2410 hc        1 FOC      0.045700
     24 H62         5.9620   -2.0350   -2.0420 hc        1 FOC      0.045700
     25 H63         5.8890   -3.7130   -1.3670 hc        1 FOC      0.045700
@<TRIPOS>BOND
     1    1    2 1   
     2    1    3 1   
     3    1   12 1   
     4    1   13 1   
     5    2   14 1   
     6    3    4 1   
     7    3    5 1   
     8    3   15 1   
     9    4   16 1   
    10    5    6 1   
    11    5    7 1   
    12    5   17 1   
    13    6   18 1   
    14    7    8 1   
    15    7    9 1   
    16    7   19 1   
    17    8   20 1   
    18    9   10 1   
    19    9   11 1   
    20    9   21 1   
    21   10   22 1   
    22   11   23 1   
    23   11   24 1   
    24   11   25 1   
@<TRIPOS>SUBSTRUCTURE
     1 FOC         1 TEMP              0 ****  ****    0 ROOT
