@<TRIPOS>MOLECULE
FOC
   25    24     1     0     0
SMALL
bcc


@<TRIPOS>ATOM
      1 C1         -2.5140    0.9740    0.9780 c3        1 FOC      0.092400
      2 O1         -2.9840    2.1280    1.6390 oh        1 FOC     -0.614800
      3 C2         -1.0020    0.9740    0.9780 c3        1 FOC      0.110100
      4 O2         -0.5330    0.9740    2.3060 oh        1 FOC     -0.618800
      5 C3         -0.4990   -0.2600    0.2660 c3        1 FOC      0.116100
      6 O3         -0.3130   -1.2980    1.1990 oh        1 FOC     -0.596800
      7 C4          0.8170    0.0510   -0.4110 c3        1 FOC      0.121100
      8 O4          0.6320    1.0890   -1.3440 oh        1 FOC     -0.592800
      9 C5          1.3210   -1.1830   -1.1230 c3        1 FOC      0.104100
     10 O5          0.8570   -1.1800   -2.4520 oh        1 FOC     -0.618800
     11 C6          2.8330   -1.1870   -1.1170 c3        1 FOC     -0.129100
     12 H11        -2.8400    0.1790    1.4410 h1        1 FOC      0.041200
     13 H12        -2.8400    0.9710    0.0580 h1        1 FOC      0.041200
     14 HO1        -3.8690    2.1690    1.5710 ho        1 FOC      0.410000
     15 H2         -0.6770    1.7710    0.5180 h1        1 FOC      0.074700
     16 HO2        -0.2840    1.7960    2.5310 ho        1 FOC      0.430000
     17 H3         -1.1510   -0.5380   -0.4050 h1        1 FOC      0.087700
     18 HO3        -0.9770   -1.8820    1.1270 ho        1 FOC      0.419000
     19 H4          1.4700    0.3290    0.2600 h1        1 FOC      0.090700
     20 HO4         1.2890    1.6800   -1.2640 ho        1 FOC      0.417000
     21 H5          0.9920   -1.9800   -0.6650 h1        1 FOC      0.062700
     22 HO5         0.7950   -2.0160   -2.7460 ho        1 FOC      0.410000
     23 H61         3.1620   -0.4140   -1.6150 hc        1 FOC      0.047700
     24 H62         3.1580   -2.0060   -1.5360 hc        1 FOC      0.047700
     25 H63         3.1550   -1.1410   -0.1960 hc        1 FOC      0.047700
@<TRIPOS>BOND
     1    1    2 1   
     2    1    3 1   
     3    1   12 1   
     4    1   13 1   
     5    2   14 1   
     6    3    4 1   
     7    3    5 1   
     8    3   15 1   
     9    4   16 1   
    10    5    6 1   
    11    5    7 1   
    12    5   17 1   
    13    6   18 1   
    14    7    8 1   
    15    7    9 1   
    16    7   19 1   
    17    8   20 1   
    18    9   10 1   
    19    9   11 1   
    20    9   21 1   
    21   10   22 1   
    22   11   23 1   
    23   11   24 1   
    24   11   25 1   
@<TRIPOS>SUBSTRUCTURE
     1 FOC         1 TEMP              0 ****  ****    0 ROOT
