@<TRIPOS>MOLECULE
FOC
   25    24     1     0     0
SMALL
bcc


@<TRIPOS>ATOM
      1 C1         -0.0090    0.0710    0.0500 c3        1 FOC      0.093400
      2 O1         -0.3680    1.1450    0.9080 oh        1 FOC     -0.616800
      3 C2          1.5200    0.0740   -0.0220 c3        1 FOC      0.151100
      4 O2          2.0960   -0.0850    1.2640 oh        1 FOC     -0.602800
      5 C3          2.0090   -1.0700   -0.9260 c3        1 FOC      0.157100
      6 O3          1.3980   -2.2680   -0.4870 oh        1 FOC     -0.597800
      7 C4          3.5490   -1.1630   -0.8940 c3        1 FOC      0.073100
      8 O4          3.9960   -0.2920   -1.9290 oh        1 FOC     -0.609800
      9 C5          4.0510   -2.5910   -1.1660 c3        1 FOC      0.104100
     10 O5          3.4840   -3.0990   -2.3640 oh        1 FOC     -0.608800
     11 C6          5.5660   -2.6430   -1.2160 c3        1 FOC     -0.130100
     12 H11        -0.4450    0.2350   -0.9700 h1        1 FOC      0.047200
     13 H12        -0.3700   -0.9070    0.4660 h1        1 FOC      0.047200
     14 HO1        -1.3060    1.0430    1.1040 ho        1 FOC      0.409000
     15 H2          1.8830    1.0470   -0.4610 h1        1 FOC      0.055700
     16 HO2         1.6020    0.4930    1.8620 ho        1 FOC      0.422000
     17 H3          1.6870   -0.8420   -1.9840 h1        1 FOC      0.052700
     18 HO3         1.5800   -2.9380   -1.1620 ho        1 FOC      0.422000
     19 H4          3.9350   -0.8250    0.1070 h1        1 FOC      0.080700
     20 HO4         4.9170   -0.0800   -1.7360 ho        1 FOC      0.407000
     21 H5          3.6640   -3.2790   -0.3600 h1        1 FOC      0.093700
     22 HO5         3.7040   -2.4730   -3.0660 ho        1 FOC      0.412000
     23 H61         5.9940   -2.2530   -0.2630 hc        1 FOC      0.045700
     24 H62         5.9520   -2.0320   -2.0670 hc        1 FOC      0.045700
     25 H63         5.9030   -3.6970   -1.3620 hc        1 FOC      0.045700
@<TRIPOS>BOND
     1    1    2 1   
     2    1    3 1   
     3    1   12 1   
     4    1   13 1   
     5    2   14 1   
     6    3    4 1   
     7    3    5 1   
     8    3   15 1   
     9    4   16 1   
    10    5    6 1   
    11    5    7 1   
    12    5   17 1   
    13    6   18 1   
    14    7    8 1   
    15    7    9 1   
    16    7   19 1   
    17    8   20 1   
    18    9   10 1   
    19    9   11 1   
    20    9   21 1   
    21   10   22 1   
    22   11   23 1   
    23   11   24 1   
    24   11   25 1   
@<TRIPOS>SUBSTRUCTURE
     1 FOC         1 TEMP              0 ****  ****    0 ROOT
