@<TRIPOS>MOLECULE
FOC
   25    24     1     0     0
SMALL
bcc


@<TRIPOS>ATOM
      1 C1          0.8300    0.2300   -2.6060 c3        1 FOC      0.093400
      2 O1          0.1070    0.0020   -3.8050 oh        1 FOC     -0.613800
      3 C2         -0.1780    0.0860   -1.4620 c3        1 FOC      0.110100
      4 O2         -0.8200   -1.1810   -1.5140 oh        1 FOC     -0.618800
      5 C3          0.5450    0.1510   -0.1060 c3        1 FOC      0.119100
      6 O3          1.3390   -0.9980    0.1080 oh        1 FOC     -0.595800
      7 C4         -0.4860    0.3340    1.0240 c3        1 FOC      0.074100
      8 O4         -1.1070    1.6010    0.9180 oh        1 FOC     -0.596800
      9 C5          0.1670    0.1650    2.4110 c3        1 FOC      0.108100
     10 O5         -0.0550    1.3330    3.1840 oh        1 FOC     -0.602800
     11 C6         -0.3480   -1.0760    3.1120 c3        1 FOC     -0.123100
     12 H11         1.2670    1.2630   -2.6100 h1        1 FOC      0.041700
     13 H12         1.6490   -0.5280   -2.4890 h1        1 FOC      0.041700
     14 HO1         0.7540   -0.0350   -4.5180 ho        1 FOC      0.411000
     15 H2         -0.9520    0.9000   -1.5200 h1        1 FOC      0.073700
     16 HO2        -1.1560   -1.2870   -2.4140 ho        1 FOC      0.431000
     17 H3          1.2730    1.0090   -0.1070 h1        1 FOC      0.076700
     18 HO3         0.7650   -1.7690   -0.0080 ho        1 FOC      0.421000
     19 H4         -1.3270   -0.4030    0.8780 h1        1 FOC      0.094700
     20 HO4        -0.4540    2.2670    1.1780 ho        1 FOC      0.412000
     21 H5          1.2890    0.1140    2.3070 h1        1 FOC      0.093700
     22 HO5        -1.0080    1.4070    3.3270 ho        1 FOC      0.408000
     23 H61         0.1210   -1.1640    4.1210 hc        1 FOC      0.046700
     24 H62        -1.4570   -1.0290    3.2380 hc        1 FOC      0.046700
     25 H63        -0.0900   -1.9800    2.5100 hc        1 FOC      0.046700
@<TRIPOS>BOND
     1    1    2 1   
     2    1    3 1   
     3    1   12 1   
     4    1   13 1   
     5    2   14 1   
     6    3    4 1   
     7    3    5 1   
     8    3   15 1   
     9    4   16 1   
    10    5    6 1   
    11    5    7 1   
    12    5   17 1   
    13    6   18 1   
    14    7    8 1   
    15    7    9 1   
    16    7   19 1   
    17    8   20 1   
    18    9   10 1   
    19    9   11 1   
    20    9   21 1   
    21   10   22 1   
    22   11   23 1   
    23   11   24 1   
    24   11   25 1   
@<TRIPOS>SUBSTRUCTURE
     1 FOC         1 TEMP              0 ****  ****    0 ROOT
