@<TRIPOS>MOLECULE
FOE
   39    39     1     0     0
SMALL
bcc


@<TRIPOS>ATOM
      1 N           0.1240    0.6700    5.1520 n3        1 FOE     -0.879800
      2 CA          0.1300    0.1390    3.7940 c3        1 FOE      0.017500
      3 C           1.3250   -0.8260    3.4950 c         1 FOE      0.885600
      4 O           2.1510   -1.0630    4.4160 o         1 FOE     -0.839300
      5 CB          0.1040    1.2400    2.7360 c3        1 FOE      0.022700
      6 SG         -1.2890    1.1880    1.6320 ss        1 FOE     -0.325200
      7 C1         -1.2130   -0.4140    0.8950 c3        1 FOE     -0.114300
      8 C2         -1.1670   -0.3690   -0.6120 c         1 FOE      0.689100
      9 O3         -2.2180   -0.5770   -1.2580 o         1 FOE     -0.632100
     10 N4          0.0230   -0.1280   -1.3060 n         1 FOE     -0.384000
     11 C6          1.3070    0.0480   -0.6330 c3        1 FOE      0.079700
     12 C7          1.6840    1.5120   -0.3860 c3        1 FOE     -0.107100
     13 C8         -0.6030   -1.2520   -4.8130 ca        1 FOE     -0.161000
     14 C9         -0.5900   -1.2200   -3.4260 ca        1 FOE     -0.115500
     15 C10         0.0020   -0.1430   -2.7250 ca        1 FOE      0.074600
     16 C11         0.5610    0.9130   -3.4780 ca        1 FOE     -0.115500
     17 C12         0.5600    0.8820   -4.8670 ca        1 FOE     -0.161000
     18 C13        -0.0200   -0.2030   -5.5440 ca        1 FOE      0.089900
     19 F14        -0.0220   -0.2350   -6.9010 f         1 FOE     -0.157900
     20 OXT         1.3910   -1.3330    2.3350 o         1 FOE     -0.839300
     21 H           0.9560    1.2190    5.2800 hn        1 FOE      0.334800
     22 H2          0.2070   -0.1140    5.7780 hn        1 FOE      0.334800
     23 HA         -0.8090   -0.4800    3.6890 h1        1 FOE      0.056700
     24 HB2         1.0450    1.1890    2.1340 h1        1 FOE      0.070200
     25 HB3         0.0200    2.2610    3.1860 h1        1 FOE      0.070200
     26 H11A       -2.1660   -0.9390    1.1660 h1        1 FOE      0.129700
     27 H12A       -0.3610   -1.0140    1.3320 h1        1 FOE      0.129700
     28 H51         2.2530   -1.7220   -1.5140 hc        1 FOE      0.039867
     29 H52         2.6640   -0.1630   -2.3500 hc        1 FOE      0.039867
     30 H53         3.3790   -0.5440   -0.7230 hc        1 FOE      0.039867
     31 H6          1.2320   -0.4520    0.3900 h1        1 FOE      0.139700
     32 H71         0.8110    2.0880    0.0090 hc        1 FOE      0.039867
     33 H72         2.5020    1.5360    0.3760 hc        1 FOE      0.039867
     34 H73         2.0580    2.0060   -1.3130 hc        1 FOE      0.039867
     35 H11         1.0040    1.7810   -2.9670 ha        1 FOE      0.151000
     36 H12         1.0040    1.7080   -5.4410 ha        1 FOE      0.137500
     37 H8         -1.0690   -2.0930   -5.3460 ha        1 FOE      0.137500
     38 C5          2.4660   -0.6370   -1.3590 c3        1 FOE     -0.107100
     39 H9         -1.0750   -2.0350   -2.8630 ha        1 FOE      0.151000
@<TRIPOS>BOND
     1    1    2 1   
     2    1   21 1   
     3    1   22 1   
     4    2    3 1   
     5    2    5 1   
     6    2   23 1   
     7    3    4 1   
     8    3   20 1   
     9    5    6 1   
    10    5   24 1   
    11    5   25 1   
    12    6    7 1   
    13    7    8 1   
    14    7   26 1   
    15    7   27 1   
    16    8    9 2   
    17    8   10 1   
    18   10   11 1   
    19   10   15 1   
    20   11   12 1   
    21   11   31 1   
    22   11   38 1   
    23   12   32 1   
    24   12   33 1   
    25   12   34 1   
    26   13   14 ar  
    27   13   18 ar  
    28   13   37 1   
    29   14   15 ar  
    30   14   39 1   
    31   15   16 ar  
    32   16   17 ar  
    33   16   35 1   
    34   17   18 ar  
    35   17   36 1   
    36   18   19 1   
    37   28   38 1   
    38   29   38 1   
    39   30   38 1   
@<TRIPOS>SUBSTRUCTURE
     1 FOE         1 TEMP              0 ****  ****    0 ROOT
