@<TRIPOS>MOLECULE
FOG
   32    32     1     0     0
SMALL
bcc


@<TRIPOS>ATOM
      1 C          -4.4770    0.5720   -0.1390 c         1 FOG      0.908600
      2 O1         -4.0300    1.2290   -1.1290 o         1 FOG     -0.848300
      3 CA1        -3.4810   -0.0660    0.8430 c3        1 FOG     -0.205400
      4 CM         -2.2000   -0.5300    0.1880 c3        1 FOG     -0.090400
      5 CH         -1.0770    0.4950    0.2960 c3        1 FOG      0.154100
      6 OH         -1.2190    1.5800   -0.6020 oh        1 FOG     -0.664800
      7 CA          0.3090   -0.1540    0.0090 c3        1 FOG      0.164500
      8 N           0.4210   -0.6800   -1.3380 n3        1 FOG     -0.901800
      9 CB          1.3860    0.8810    0.3950 c3        1 FOG     -0.075100
     10 CG          2.7680    0.3580    0.2370 ca        1 FOG     -0.057300
     11 CD1         3.5280    0.6830   -0.8940 ca        1 FOG     -0.131000
     12 CD2         3.3310   -0.4640    1.2220 ca        1 FOG     -0.131000
     13 CE1         4.8270    0.1970   -1.0350 ca        1 FOG     -0.132000
     14 CE2         4.6290   -0.9490    1.0790 ca        1 FOG     -0.132000
     15 CZ          5.3810   -0.6190   -0.0490 ca        1 FOG     -0.146000
     16 OXT        -5.7080    0.4230    0.0950 o         1 FOG     -0.848300
     17 HA1        -3.2660    0.6900    1.6420 hc        1 FOG      0.029200
     18 HM         -1.8540   -1.4840    0.6640 hc        1 FOG      0.044700
     19 HA          0.4230   -1.0380    0.7050 h1        1 FOG      0.044700
     20 H          -0.2730   -0.2570   -1.9290 hn        1 FOG      0.348300
     21 H2          1.3260   -0.4770   -1.7180 hn        1 FOG      0.348300
     22 HB2         1.2370    1.8020   -0.2310 hc        1 FOG      0.061200
     23 HB3         1.2180    1.1740    1.4650 hc        1 FOG      0.061200
     24 HD1         3.0940    1.3270   -1.6730 ha        1 FOG      0.133000
     25 HD2         2.7360   -0.7310    2.1080 ha        1 FOG      0.133000
     26 HE1         5.4140    0.4570   -1.9270 ha        1 FOG      0.121000
     27 HE2         5.0610   -1.5950    1.8560 ha        1 FOG      0.121000
     28 HZ          6.4040   -1.0020   -0.1610 ha        1 FOG      0.119000
     29 HCH        -1.0450    0.9160    1.3430 h1        1 FOG      0.019700
     30 HO1        -2.1620    1.6380   -0.8590 ho        1 FOG      0.477000
     31 HM1        -2.3980   -0.7390   -0.8980 hc        1 FOG      0.044700
     32 HA2        -3.9860   -0.9370    1.3320 hc        1 FOG      0.029200
@<TRIPOS>BOND
     1    1    2 1   
     2    1    3 1   
     3    1   16 1   
     4    3    4 1   
     5    3   17 1   
     6    3   32 1   
     7    4    5 1   
     8    4   18 1   
     9    4   31 1   
    10    5    6 1   
    11    5    7 1   
    12    5   29 1   
    13    6   30 1   
    14    7    8 1   
    15    7    9 1   
    16    7   19 1   
    17    8   20 1   
    18    8   21 1   
    19    9   10 1   
    20    9   22 1   
    21    9   23 1   
    22   10   11 ar  
    23   10   12 ar  
    24   11   13 ar  
    25   11   24 1   
    26   12   14 ar  
    27   12   25 1   
    28   13   15 ar  
    29   13   26 1   
    30   14   15 ar  
    31   14   27 1   
    32   15   28 1   
@<TRIPOS>SUBSTRUCTURE
     1 FOG         1 TEMP              0 ****  ****    0 ROOT
