@<TRIPOS>MOLECULE
FOG
   32    29     1     0     0
SMALL
bcc


@<TRIPOS>ATOM
      1 C           3.9590    2.0690   -2.3140 c1        1 FOG      0.327000
      2 O1          5.1180    1.7390   -1.9490 o         1 FOG     -0.585500
      3 CA1         2.8580    2.2270   -1.2880 c2        1 FOG     -0.223000
      4 CM          2.2510    0.8730   -0.9870 c3        1 FOG     -0.179000
      5 CH          1.3750    0.9750    0.2410 c3        1 FOG      0.030000
      6 OH          2.1820    0.9790    1.3940 oh        1 FOG     -0.334000
      7 CA          0.4340   -0.2070    0.2890 c3        1 FOG     -0.059000
      8 N           1.1370   -1.3540    0.7480 n3        1 FOG     -0.353000
      9 CB         -0.7080    0.0960    1.2320 c3        1 FOG     -0.126000
     10 CG         -1.9300   -0.6900    0.8130 c2        1 FOG     -0.059000
     11 CD1        -2.7020   -0.2530   -0.2520 c2        1 FOG     -0.131000
     12 CD2        -2.3140   -1.8100    1.5340 c1        1 FOG     -0.127000
     13 CE1        -3.8590   -0.9350   -0.5950 c1        1 FOG     -0.134000
     14 CE2        -3.4700   -2.4920    1.1900 c1        1 FOG     -0.140000
     15 CZ         -4.2430   -2.0540    0.1260 c1        1 FOG     -0.140000
     16 OXT         3.7220    2.2910   -3.5310 o         1 FOG     -0.585500
     17 HA1         2.1670    2.8230   -1.6400 ha        1 FOG      0.065500
     18 HM          2.9650    0.2250   -0.8250 hc        1 FOG      0.092500
     19 HA          0.0800   -0.3780   -0.6070 h1        1 FOG      0.060000
     20 H           1.2370   -1.9470    0.0570 hn        1 FOG      0.147500
     21 H2          0.6650   -1.7520    1.4250 hn        1 FOG      0.147500
     22 HB2        -0.4540   -0.1570    2.1430 hc        1 FOG      0.100500
     23 HB3        -0.9090    1.0520    1.2040 hc        1 FOG      0.100500
     24 HD1        -2.4300    0.5340   -0.7620 ha        1 FOG      0.133000
     25 HD2        -1.7600   -2.1280    2.2720 ha        1 FOG      0.143000
     26 HE1        -4.4030   -0.6270   -1.3450 ha        1 FOG      0.123000
     27 HE2        -3.7410   -3.2800    1.6980 ha        1 FOG      0.121000
     28 HZ         -5.0570   -2.5350   -0.1160 ha        1 FOG      0.121000
     29 HCH         0.8560    1.8030    0.2040 h1        1 FOG      0.105000
     30 HO1         2.0340    1.7240    1.8570 ho        1 FOG      0.202000
     31 HM1         1.7120    0.5800   -1.7490 hc        1 FOG      0.092500
     32 HA2         3.2290    2.6080   -0.4670 ha        1 FOG      0.065500
@<TRIPOS>BOND
     1    1    2 1   
     2    1   16 1   
     3    3    4 1   
     4    3   17 1   
     5    3   32 1   
     6    4    5 1   
     7    4   18 1   
     8    4   31 1   
     9    5    6 1   
    10    5    7 1   
    11    5   29 1   
    12    6   30 1   
    13    7    8 1   
    14    7    9 1   
    15    7   19 1   
    16    8   20 1   
    17    8   21 1   
    18    9   10 1   
    19    9   22 1   
    20    9   23 1   
    21   10   11 1   
    22   10   12 1   
    23   11   13 1   
    24   11   24 1   
    25   12   25 1   
    26   13   26 1   
    27   14   15 1   
    28   14   27 1   
    29   15   28 1   
@<TRIPOS>SUBSTRUCTURE
     1 FOG         1 TEMP              0 ****  ****    0 ROOT
