@<TRIPOS>MOLECULE
FOH
   42    41     1     0     0
SMALL
bcc


@<TRIPOS>ATOM
      1 C1          0.4090    1.0770    0.8450 c3        1 FOH     -0.057900
      2 C2          1.8270    0.7020    0.6300 c2        1 FOH     -0.123400
      3 C3          2.7710    1.0930    1.7040 c3        1 FOH     -0.057900
      4 C4          2.2260    0.0440   -0.4700 c2        1 FOH     -0.178200
      5 C5          3.6330   -0.3440   -0.7210 c3        1 FOH     -0.040200
      6 C6          3.7740   -1.1970   -1.9700 c3        1 FOH     -0.043200
      7 C7          5.1970   -1.5560   -2.2310 c2        1 FOH     -0.122400
      8 C8          5.9610   -0.5710   -3.0360 c3        1 FOH     -0.057900
      9 C9          5.7630   -2.6890   -1.7880 c2        1 FOH     -0.173200
     10 C10         5.0590   -3.7200   -0.9900 c3        1 FOH     -0.043200
     11 C11         6.0120   -4.7850   -0.4750 c3        1 FOH     -0.044200
     12 C12         5.2930   -5.8240    0.3160 c2        1 FOH     -0.120400
     13 C13         4.7530   -6.9600   -0.4710 c3        1 FOH     -0.057900
     14 C14         5.1410   -5.7630    1.6470 c2        1 FOH     -0.170200
     15 C15         5.6660   -4.6560    2.4900 c3        1 FOH      0.164600
     16 O1          5.2540   -4.9030    3.8290 oh        1 FOH     -0.599800
     17 H11         0.0350    0.6320    1.8010 hc        1 FOH      0.040367
     18 H21         0.3130    2.1900    0.9180 hc        1 FOH      0.040367
     19 H31        -0.2440    0.7210    0.0110 hc        1 FOH      0.040367
     20 H13         3.6470    1.6420    1.2760 hc        1 FOH      0.040367
     21 H23         2.2770    1.7490    2.4620 hc        1 FOH      0.040367
     22 H33         3.1600    0.1810    2.2260 hc        1 FOH      0.040367
     23 H4          1.4990   -0.2360   -1.2490 ha        1 FOH      0.123000
     24 H15         4.0340   -0.9100    0.1650 hc        1 FOH      0.048700
     25 H25         4.2640    0.5820   -0.8270 hc        1 FOH      0.048700
     26 H16         3.3650   -0.6340   -2.8520 hc        1 FOH      0.047200
     27 H26         3.1560   -2.1280   -1.8550 hc        1 FOH      0.047200
     28 H18         7.0430   -0.8420   -3.1050 hc        1 FOH      0.040700
     29 H28         5.5440   -0.5200   -4.0730 hc        1 FOH      0.040700
     30 H38         5.8790    0.4460   -2.5770 hc        1 FOH      0.040700
     31 H9          6.8200   -2.9050   -2.0220 ha        1 FOH      0.121000
     32 H101        4.2660   -4.2070   -1.6220 hc        1 FOH      0.052200
     33 H102        4.5340   -3.2380   -0.1210 hc        1 FOH      0.052200
     34 H111        6.8050   -4.2990    0.1540 hc        1 FOH      0.045700
     35 H112        6.5310   -5.2710   -1.3440 hc        1 FOH      0.045700
     36 H133        5.5930   -7.5500   -0.9170 hc        1 FOH      0.042367
     37 H132        4.1130   -6.5770   -1.3050 hc        1 FOH      0.042367
     38 H131        4.1380   -7.6460    0.1620 hc        1 FOH      0.042367
     39 H14         4.6050   -6.5520    2.2010 ha        1 FOH      0.145000
     40 H151        6.7900   -4.6200    2.4420 h1        1 FOH      0.030200
     41 H152        5.2600   -3.6660    2.1440 h1        1 FOH      0.030200
     42 HO1         5.5970   -4.1730    4.3570 ho        1 FOH      0.399000
@<TRIPOS>BOND
     1    1    2 1   
     2    1   17 1   
     3    1   18 1   
     4    1   19 1   
     5    2    3 1   
     6    2    4 2   
     7    3   20 1   
     8    3   21 1   
     9    3   22 1   
    10    4    5 1   
    11    4   23 1   
    12    5    6 1   
    13    5   24 1   
    14    5   25 1   
    15    6    7 1   
    16    6   26 1   
    17    6   27 1   
    18    7    8 1   
    19    7    9 2   
    20    8   28 1   
    21    8   29 1   
    22    8   30 1   
    23    9   10 1   
    24    9   31 1   
    25   10   11 1   
    26   10   32 1   
    27   10   33 1   
    28   11   12 1   
    29   11   34 1   
    30   11   35 1   
    31   12   13 1   
    32   12   14 2   
    33   13   36 1   
    34   13   37 1   
    35   13   38 1   
    36   14   15 1   
    37   14   39 1   
    38   15   16 1   
    39   15   40 1   
    40   15   41 1   
    41   16   42 1   
@<TRIPOS>SUBSTRUCTURE
     1 FOH         1 TEMP              0 ****  ****    0 ROOT
