@<TRIPOS>MOLECULE
FOH
   42    41     1     0     0
SMALL
bcc


@<TRIPOS>ATOM
      1 C1          2.7830   -0.7780   -4.6120 c3        1 FOH     -0.057900
      2 C2          1.6530   -1.0920   -3.7050 c2        1 FOH     -0.123400
      3 C3          1.4120   -2.5310   -3.4420 c3        1 FOH     -0.057900
      4 C4          0.8940   -0.1280   -3.1600 c2        1 FOH     -0.178200
      5 C5         -0.2380   -0.4000   -2.2450 c3        1 FOH     -0.040200
      6 C6         -1.0360    0.8550   -1.9370 c3        1 FOH     -0.043200
      7 C7         -2.1920    0.5640   -1.0430 c2        1 FOH     -0.122400
      8 C8         -3.4410    0.1580   -1.7350 c3        1 FOH     -0.057900
      9 C9         -2.1340    0.6670    0.2930 c2        1 FOH     -0.173200
     10 C10        -0.9270    1.0760    1.0490 c3        1 FOH     -0.043200
     11 C11        -1.1060    0.8910    2.5460 c3        1 FOH     -0.044200
     12 C12         0.1060    1.3220    3.2990 c2        1 FOH     -0.120400
     13 C13         0.1390    2.7560    3.6790 c3        1 FOH     -0.057900
     14 C14         1.1030    0.4900    3.6290 c2        1 FOH     -0.170200
     15 C15         1.1250   -0.9560    3.2830 c3        1 FOH      0.164600
     16 O1          2.3610   -1.4900    3.7390 oh        1 FOH     -0.599800
     17 H11         2.8750    0.3200   -4.7950 hc        1 FOH      0.040367
     18 H21         3.7430   -1.1440   -4.1680 hc        1 FOH      0.040367
     19 H31         2.6380   -1.2900   -5.5960 hc        1 FOH      0.040367
     20 H13         0.4540   -2.8550   -3.9220 hc        1 FOH      0.040367
     21 H23         2.2410   -3.1620   -3.8470 hc        1 FOH      0.040367
     22 H33         1.3270   -2.7200   -2.3420 hc        1 FOH      0.040367
     23 H4          1.0960    0.9340   -3.3780 ha        1 FOH      0.123000
     24 H15        -0.9170   -1.1740   -2.6990 hc        1 FOH      0.048200
     25 H25         0.1550   -0.8370   -1.2850 hc        1 FOH      0.048200
     26 H16        -0.3610    1.6160   -1.4600 hc        1 FOH      0.047700
     27 H26        -1.4100    1.3010   -2.8980 hc        1 FOH      0.047700
     28 H18        -4.2350   -0.1490   -1.0120 hc        1 FOH      0.040700
     29 H28        -3.8330    1.0100   -2.3470 hc        1 FOH      0.040700
     30 H38        -3.2370   -0.7000   -2.4240 hc        1 FOH      0.040700
     31 H9         -3.0270    0.4470    0.9030 ha        1 FOH      0.121000
     32 H101       -0.0380    0.4810    0.7040 hc        1 FOH      0.052200
     33 H102       -0.7000    2.1570    0.8340 hc        1 FOH      0.052200
     34 H111       -1.9920    1.4880    2.8910 hc        1 FOH      0.045700
     35 H112       -1.3320   -0.1890    2.7610 hc        1 FOH      0.045700
     36 H133        1.1150    3.0380    4.1450 hc        1 FOH      0.042367
     37 H132       -0.0210    3.3960    2.7750 hc        1 FOH      0.042367
     38 H131       -0.6790    2.9760    4.4110 hc        1 FOH      0.042367
     39 H14         1.9850    0.8440    4.1900 ha        1 FOH      0.145000
     40 H151        0.2730   -1.4960    3.7850 h1        1 FOH      0.030200
     41 H152        1.0350   -1.1000    2.1710 h1        1 FOH      0.030200
     42 HO1         2.3610   -2.4210    3.4940 ho        1 FOH      0.400000
@<TRIPOS>BOND
     1    1    2 1   
     2    1   17 1   
     3    1   18 1   
     4    1   19 1   
     5    2    3 1   
     6    2    4 2   
     7    3   20 1   
     8    3   21 1   
     9    3   22 1   
    10    4    5 1   
    11    4   23 1   
    12    5    6 1   
    13    5   24 1   
    14    5   25 1   
    15    6    7 1   
    16    6   26 1   
    17    6   27 1   
    18    7    8 1   
    19    7    9 2   
    20    8   28 1   
    21    8   29 1   
    22    8   30 1   
    23    9   10 1   
    24    9   31 1   
    25   10   11 1   
    26   10   32 1   
    27   10   33 1   
    28   11   12 1   
    29   11   34 1   
    30   11   35 1   
    31   12   13 1   
    32   12   14 2   
    33   13   36 1   
    34   13   37 1   
    35   13   38 1   
    36   14   15 1   
    37   14   39 1   
    38   15   16 1   
    39   15   40 1   
    40   15   41 1   
    41   16   42 1   
@<TRIPOS>SUBSTRUCTURE
     1 FOH         1 TEMP              0 ****  ****    0 ROOT
