@<TRIPOS>MOLECULE
FOH
   42    41     1     0     0
SMALL
bcc


@<TRIPOS>ATOM
      1 C1          0.3200    1.0810    0.7550 c3        1 FOH     -0.057900
      2 C2          1.7520    0.7660    0.5340 c2        1 FOH     -0.123400
      3 C3          2.7130    1.4610    1.4250 c3        1 FOH     -0.057900
      4 C4          2.1500   -0.0930   -0.4170 c2        1 FOH     -0.178200
      5 C5          3.5690   -0.4380   -0.6630 c3        1 FOH     -0.040200
      6 C6          3.7410   -1.2770   -1.9170 c3        1 FOH     -0.043200
      7 C7          5.1760   -1.5890   -2.1740 c2        1 FOH     -0.122400
      8 C8          5.9120   -0.5760   -2.9710 c3        1 FOH     -0.057900
      9 C9          5.7760   -2.7070   -1.7370 c2        1 FOH     -0.173200
     10 C10         5.1020   -3.7650   -0.9490 c3        1 FOH     -0.043200
     11 C11         6.0880   -4.7930   -0.4210 c3        1 FOH     -0.044200
     12 C12         5.3990   -5.8630    0.3550 c2        1 FOH     -0.120400
     13 C13         4.9230   -7.0190   -0.4440 c3        1 FOH     -0.057900
     14 C14         5.2190   -5.8110    1.6820 c2        1 FOH     -0.170200
     15 C15         5.6790   -4.6850    2.5370 c3        1 FOH      0.164600
     16 O1          5.2550   -4.9540    3.8680 oh        1 FOH     -0.599800
     17 H11         0.0140    0.7730    1.7860 hc        1 FOH      0.040367
     18 H21         0.1490    2.1820    0.6550 hc        1 FOH      0.040367
     19 H31        -0.3370    0.5530    0.0210 hc        1 FOH      0.040367
     20 H13         3.3090    2.2070    0.8400 hc        1 FOH      0.040367
     21 H23         2.1860    2.0000    2.2490 hc        1 FOH      0.040367
     22 H33         3.4280    0.7290    1.8780 hc        1 FOH      0.040367
     23 H4          1.4110   -0.5910   -1.0660 ha        1 FOH      0.123000
     24 H15         3.9750   -1.0010    0.2220 hc        1 FOH      0.048200
     25 H25         4.1790    0.5030   -0.7550 hc        1 FOH      0.048200
     26 H16         3.3170   -0.7220   -2.7960 hc        1 FOH      0.047200
     27 H26         3.1530   -2.2280   -1.8110 hc        1 FOH      0.047200
     28 H18         7.0020   -0.8120   -3.0370 hc        1 FOH      0.040700
     29 H28         5.4970   -0.5310   -4.0090 hc        1 FOH      0.040700
     30 H38         5.7960    0.4350   -2.5060 hc        1 FOH      0.040700
     31 H9          6.8400   -2.8880   -1.9670 ha        1 FOH      0.121000
     32 H101        4.3370   -4.2820   -1.5920 hc        1 FOH      0.052200
     33 H102        4.5460   -3.3050   -0.0860 hc        1 FOH      0.052200
     34 H111        6.8510   -4.2780    0.2230 hc        1 FOH      0.045700
     35 H112        6.6410   -5.2540   -1.2830 hc        1 FOH      0.045700
     36 H133        5.7950   -7.5720   -0.8750 hc        1 FOH      0.042367
     37 H132        4.2840   -6.6630   -1.2910 hc        1 FOH      0.042367
     38 H131        4.3250   -7.7320    0.1750 hc        1 FOH      0.042367
     39 H14         4.7070   -6.6240    2.2250 ha        1 FOH      0.145000
     40 H151        6.8020   -4.6000    2.5090 h1        1 FOH      0.030200
     41 H152        5.2360   -3.7120    2.1850 h1        1 FOH      0.030200
     42 HO1         5.5500   -4.2080    4.4020 ho        1 FOH      0.400000
@<TRIPOS>BOND
     1    1    2 1   
     2    1   17 1   
     3    1   18 1   
     4    1   19 1   
     5    2    3 1   
     6    2    4 2   
     7    3   20 1   
     8    3   21 1   
     9    3   22 1   
    10    4    5 1   
    11    4   23 1   
    12    5    6 1   
    13    5   24 1   
    14    5   25 1   
    15    6    7 1   
    16    6   26 1   
    17    6   27 1   
    18    7    8 1   
    19    7    9 2   
    20    8   28 1   
    21    8   29 1   
    22    8   30 1   
    23    9   10 1   
    24    9   31 1   
    25   10   11 1   
    26   10   32 1   
    27   10   33 1   
    28   11   12 1   
    29   11   34 1   
    30   11   35 1   
    31   12   13 1   
    32   12   14 2   
    33   13   36 1   
    34   13   37 1   
    35   13   38 1   
    36   14   15 1   
    37   14   39 1   
    38   15   16 1   
    39   15   40 1   
    40   15   41 1   
    41   16   42 1   
@<TRIPOS>SUBSTRUCTURE
     1 FOH         1 TEMP              0 ****  ****    0 ROOT
