@<TRIPOS>MOLECULE
FOH
   42    38     1     0     0
SMALL
bcc


@<TRIPOS>ATOM
      1 C1         -2.3510    2.3820    4.3270 c3        1 FOH     -0.180000
      2 C2         -0.9350    1.8500    4.3330 c2        1 FOH     -0.115000
      3 C3         -0.1650    1.7630    5.6330 c3        1 FOH     -0.180000
      4 C4         -0.3590    1.4530    3.1810 c1        1 FOH     -0.174000
      5 C5         -1.1280    1.5410    1.8820 c2        1 FOH     -0.124500
      6 C6         -0.2870    0.9750    0.7590 c3        1 FOH     -0.126500
      7 C7         -0.9850    1.2110   -0.5620 c2        1 FOH     -0.113000
      8 C8         -2.1050    2.2240   -0.6560 c3        1 FOH     -0.180000
      9 C9         -0.6100    0.5200   -1.6560 c1        1 FOH     -0.167500
     10 C10         0.5100   -0.4930   -1.5630 c2        1 FOH     -0.124500
     11 C11         0.5550   -1.3130   -2.8340 c3        1 FOH     -0.126500
     12 C12         1.9530   -1.8570   -3.0340 c2        1 FOH     -0.113000
     13 C13         3.1450   -0.9290   -2.9460 c3        1 FOH     -0.180000
     14 C14         2.1360   -3.1670   -3.2890 c1        1 FOH     -0.167500
     15 C15         0.9440   -4.0940   -3.3770 c2        1 FOH      0.010000
     16 O1          1.3830   -5.3950   -3.7010 oh        1 FOH     -0.327000
     17 H11        -2.3950    3.1860    3.7680 hc        1 FOH      0.079667
     18 H21        -2.6190    2.6060    5.2430 hc        1 FOH      0.079667
     19 H31        -2.9550    1.7000    3.9670 hc        1 FOH      0.079667
     20 H13         0.5620    1.1130    5.5390 hc        1 FOH      0.079667
     21 H23         0.2090    2.6420    5.8510 hc        1 FOH      0.079667
     22 H33        -0.7680    1.4770    6.3510 hc        1 FOH      0.079667
     23 H4          0.5550    1.1100    3.1850 ha        1 FOH      0.123000
     24 H15        -1.3410    2.4760    1.6910 ha        1 FOH      0.089500
     25 H25        -1.9570    1.0270    1.9590 ha        1 FOH      0.089500
     26 H16        -0.1650    0.0140    0.8950 hc        1 FOH      0.085750
     27 H26         0.5850    1.4170    0.7500 hc        1 FOH      0.085750
     28 H18        -2.8600    1.9290   -0.1040 hc        1 FOH      0.080833
     29 H28        -1.7870    3.0940   -0.3350 hc        1 FOH      0.080833
     30 H38        -2.3950    2.3060   -1.5880 hc        1 FOH      0.080833
     31 H9         -1.0600    0.6730   -2.5090 ha        1 FOH      0.133000
     32 H101        1.3620   -0.0270   -1.4450 ha        1 FOH      0.089500
     33 H102        0.3530   -1.0830   -0.7990 ha        1 FOH      0.089500
     34 H111        0.3130   -0.7480   -3.5950 hc        1 FOH      0.085750
     35 H112       -0.0770   -2.0560   -2.7650 hc        1 FOH      0.085750
     36 H133        2.8620   -0.0130   -3.1520 hc        1 FOH      0.080833
     37 H132        3.8270   -1.2120   -3.5910 hc        1 FOH      0.080833
     38 H131        3.5180   -0.9610   -2.0410 hc        1 FOH      0.080833
     39 H14         3.0380   -3.5180   -3.4180 ha        1 FOH      0.133000
     40 H151        0.3310   -3.7740   -4.0710 h4        1 FOH      0.069500
     41 H152        0.4800   -4.1120   -2.5140 h4        1 FOH      0.069500
     42 HO1         0.6810   -5.9360   -3.7700 ho        1 FOH      0.199000
@<TRIPOS>BOND
     1    1    2 1   
     2    1   17 1   
     3    1   18 1   
     4    1   19 1   
     5    2    3 1   
     6    2    4 1   
     7    3   20 1   
     8    3   21 1   
     9    3   22 1   
    10    4   23 1   
    11    5    6 1   
    12    5   24 1   
    13    5   25 1   
    14    6    7 1   
    15    6   26 1   
    16    6   27 1   
    17    7    8 1   
    18    7    9 1   
    19    8   28 1   
    20    8   29 1   
    21    8   30 1   
    22    9   31 1   
    23   10   11 1   
    24   10   32 1   
    25   10   33 1   
    26   11   12 1   
    27   11   34 1   
    28   11   35 1   
    29   12   13 1   
    30   12   14 1   
    31   13   36 1   
    32   13   37 1   
    33   13   38 1   
    34   14   39 1   
    35   15   16 1   
    36   15   40 1   
    37   15   41 1   
    38   16   42 1   
@<TRIPOS>SUBSTRUCTURE
     1 FOH         1 TEMP              0 ****  ****    0 ROOT
