@<TRIPOS>MOLECULE
FOI
   42    45     1     0     0
SMALL
bcc


@<TRIPOS>ATOM
      1 C1          0.7910    0.1110   -0.0550 ca        1 FOI      0.438200
      2 N2          2.1330    0.1430    0.1480 nb        1 FOI     -0.601000
      3 C3          2.6130    0.1250    1.3960 ca        1 FOI      0.476200
      4 C4          1.7130    0.0780    2.4810 ca        1 FOI     -0.060200
      5 C5          0.2970    0.0500    2.2750 ca        1 FOI     -0.075800
      6 C6         -0.1770    0.0660    0.9630 ca        1 FOI     -0.226300
      7 C7         -0.2620   -0.0040    3.6150 cc        1 FOI     -0.107200
      8 C8          0.8160   -0.0120    4.5070 cd        1 FOI      0.083900
      9 O9          2.0240    0.0410    3.8460 os        1 FOI     -0.075200
     10 C10         0.7550   -0.0870    5.9730 c         1 FOI      0.670300
     11 O11        -0.3310   -0.0790    6.5770 o         1 FOI     -0.587000
     12 O12         1.9310   -0.1710    6.6070 os        1 FOI     -0.353900
     13 C13         1.8980   -0.2770    8.0470 c3        1 FOI      0.120700
     14 N14        -1.6490   -0.0880    3.9830 n4        1 FOI     -0.595800
     15 C15        -2.3370    1.2700    4.0440 c3        1 FOI      0.178900
     16 C16        -3.3610    1.4080    2.9540 c2        1 FOI     -0.184200
     17 C17        -4.5810    1.9420    3.1530 ce        1 FOI     -0.046200
     18 C18        -5.0020    2.3250    4.4710 cc        1 FOI      0.002200
     19 C19        -4.0710    2.0760    5.6080 cc        1 FOI     -0.059000
     20 C20        -2.8560    1.5400    5.4330 c2        1 FOI     -0.079200
     21 C21        -4.7700    2.5210    6.8250 cc        1 FOI     -0.058000
     22 C22        -6.0000    3.0020    6.4770 cd        1 FOI     -0.139000
     23 C23        -6.1410    2.8840    5.0050 cd        1 FOI     -0.044400
     24 N24        -7.3580    3.3390    4.3420 n4        1 FOI     -0.385900
     25 O25        -7.4340    2.8130    3.0910 oh        1 FOI     -0.364300
     26 H1          0.4860    0.1210   -1.1220 h4        1 FOI      0.064100
     27 H3          3.7120    0.1460    1.5360 h4        1 FOI      0.083100
     28 H6         -1.2460    0.0350    0.7200 ha        1 FOI      0.148000
     29 H13         1.4240    0.6380    8.4750 h1        1 FOI      0.083033
     30 H13A        2.9850   -0.3490    8.3060 h1        1 FOI      0.083033
     31 H13B        1.3350   -1.1950    8.3400 h1        1 FOI      0.083033
     32 HN14       -1.7030   -0.5300    4.9240 hn        1 FOI      0.481800
     33 H16        -3.0330    1.1210    1.9390 ha        1 FOI      0.173000
     34 H17        -5.2860    2.0890    2.3130 ha        1 FOI      0.182000
     35 H20        -2.1700    1.3330    6.2800 ha        1 FOI      0.207000
     36 H21        -4.3380    2.4620    7.8280 ha        1 FOI      0.202000
     37 H22        -6.7680    3.4100    7.1380 ha        1 FOI      0.190000
     38 HN24       -8.1700    3.0370    4.9210 hn        1 FOI      0.482800
     39 HO25       -8.3130    3.0410    2.7050 ho        1 FOI      0.485000
     40 H15        -1.5370    2.0630    3.8430 hx        1 FOI      0.160700
     41 H142       -2.1320   -0.6860    3.2990 hn        1 FOI      0.481800
     42 H242       -7.3280    4.3810    4.2890 hn        1 FOI      0.482800
@<TRIPOS>BOND
     1    1    2 ar  
     2    1    6 ar  
     3    1   26 1   
     4    2    3 ar  
     5    3    4 ar  
     6    3   27 1   
     7    4    5 ar  
     8    4    9 1   
     9    5    6 ar  
    10    5    7 1   
    11    6   28 1   
    12    7    8 2   
    13    7   14 1   
    14    8    9 1   
    15    8   10 1   
    16   10   11 2   
    17   10   12 1   
    18   12   13 1   
    19   13   29 1   
    20   13   30 1   
    21   13   31 1   
    22   14   15 1   
    23   14   32 1   
    24   14   41 1   
    25   15   16 1   
    26   15   20 1   
    27   15   40 1   
    28   16   17 2   
    29   16   33 1   
    30   17   18 1   
    31   17   34 1   
    32   18   19 1   
    33   18   23 2   
    34   19   20 2   
    35   19   21 1   
    36   20   35 1   
    37   21   22 2   
    38   21   36 1   
    39   22   23 1   
    40   22   37 1   
    41   23   24 1   
    42   24   25 1   
    43   24   38 1   
    44   24   42 1   
    45   25   39 1   
@<TRIPOS>SUBSTRUCTURE
     1 FOI         1 TEMP              0 ****  ****    0 ROOT
