@<TRIPOS>MOLECULE
FOI
   41    44     1     0     0
SMALL
bcc


@<TRIPOS>ATOM
      1 C1          0.7720   -0.8930   -0.0690 ca        1 FOI      0.385200
      2 N2          2.1110   -0.8020    0.1320 nb        1 FOI     -0.622000
      3 C3          2.5700   -0.4570    1.3410 ca        1 FOI      0.430200
      4 C4          1.6610   -0.1930    2.3850 ca        1 FOI     -0.031200
      5 C5          0.2550   -0.2820    2.1750 ca        1 FOI     -0.128800
      6 C6         -0.2050   -0.6490    0.9090 ca        1 FOI     -0.195300
      7 C7         -0.3570    0.0570    3.4640 cc        1 FOI      0.133800
      8 C8          0.7020    0.3080    4.3360 cd        1 FOI     -0.054100
      9 O9          1.9500    0.1730    3.6910 os        1 FOI     -0.132200
     10 C10         0.7710    0.6450    5.7490 c         1 FOI      0.685300
     11 O11        -0.1630    1.0310    6.4670 o         1 FOI     -0.577000
     12 O12         2.0080    0.5070    6.2910 os        1 FOI     -0.389900
     13 C13         2.1340    0.8110    7.6870 c3        1 FOI      0.122700
     14 N14        -1.7210   -0.0320    3.7280 nu        1 FOI     -0.677000
     15 C15        -2.3830    1.0700    4.4090 c3        1 FOI      0.180900
     16 C16        -2.8150    2.2030    3.5190 c2        1 FOI     -0.095200
     17 C17        -3.9770    2.8720    3.6760 ce        1 FOI     -0.160200
     18 C18        -4.9130    2.4470    4.6680 cc        1 FOI      0.062200
     19 C19        -4.6130    1.2490    5.4760 cc        1 FOI     -0.145000
     20 C20        -3.4640    0.5600    5.3220 c2        1 FOI      0.060800
     21 C21        -5.7580    1.0410    6.3660 cc        1 FOI     -0.074000
     22 C22        -6.6810    2.0280    6.1380 cd        1 FOI     -0.147000
     23 C23        -6.1570    2.9090    5.0820 cd        1 FOI     -0.202400
     24 N24        -6.8580    4.0780    4.6080 ny        1 FOI     -0.362900
     25 O25        -7.6950    3.8610    3.5520 oh        1 FOI     -0.385300
     26 H1          0.4780   -1.1890   -1.0930 h4        1 FOI      0.041100
     27 H3          3.6630   -0.3950    1.4840 h4        1 FOI      0.058100
     28 H6         -1.2720   -0.7520    0.6800 ha        1 FOI      0.146000
     29 H13         3.2170    0.6200    7.8890 h1        1 FOI      0.063367
     30 H13A        1.4760    0.1350    8.2830 h1        1 FOI      0.063367
     31 H13B        1.8610    1.8780    7.8680 h1        1 FOI      0.063367
     32 HN14       -2.2360   -0.3430    2.9250 hn        1 FOI      0.413800
     33 H16        -2.0920    2.5060    2.7410 ha        1 FOI      0.165000
     34 H17        -4.2280    3.7330    3.0370 ha        1 FOI      0.147000
     35 H20        -3.2400   -0.3570    5.8980 ha        1 FOI      0.188000
     36 H21        -5.8240    0.2240    7.0860 ha        1 FOI      0.181000
     37 H22        -7.6400    2.1710    6.6360 ha        1 FOI      0.168000
     38 HN24       -7.4240    4.4720    5.3860 hn        1 FOI      0.479300
     39 HO25       -7.9440    2.9090    3.5260 ho        1 FOI      0.483000
     40 H15        -1.6290    1.5480    5.1430 h1        1 FOI      0.178700
     41 H242       -6.1770    4.7910    4.2770 hn        1 FOI      0.479300
@<TRIPOS>BOND
     1    1    2 ar  
     2    1    6 ar  
     3    1   26 1   
     4    2    3 ar  
     5    3    4 ar  
     6    3   27 1   
     7    4    5 ar  
     8    4    9 1   
     9    5    6 ar  
    10    5    7 1   
    11    6   28 1   
    12    7    8 2   
    13    7   14 1   
    14    8    9 1   
    15    8   10 1   
    16   10   11 2   
    17   10   12 1   
    18   12   13 1   
    19   13   29 1   
    20   13   30 1   
    21   13   31 1   
    22   14   15 1   
    23   14   32 1   
    24   15   16 1   
    25   15   20 1   
    26   15   40 1   
    27   16   17 2   
    28   16   33 1   
    29   17   18 1   
    30   17   34 1   
    31   18   19 1   
    32   18   23 2   
    33   19   20 2   
    34   19   21 1   
    35   20   35 1   
    36   21   22 2   
    37   21   36 1   
    38   22   23 1   
    39   22   37 1   
    40   23   24 1   
    41   24   25 1   
    42   24   38 1   
    43   24   41 1   
    44   25   39 1   
@<TRIPOS>SUBSTRUCTURE
     1 FOI         1 TEMP              0 ****  ****    0 ROOT
