@<TRIPOS>MOLECULE
FOI
   40    34     1     0     0
SMALL
bcc


@<TRIPOS>ATOM
      1 C1          1.7750   -2.7060   -3.7220 c1        1 FOI     -0.111000
      2 N2          3.1610   -2.7280   -3.7250 n1        1 FOI     -0.107000
      3 C3          3.8630   -2.2370   -2.6430 c1        1 FOI     -0.060000
      4 C4          3.1710   -1.7130   -1.5340 c1        1 FOI     -0.054000
      5 C5          1.7960   -1.6900   -1.5290 c1        1 FOI     -0.054000
      6 C6          1.0880   -2.1870   -2.6230 c1        1 FOI     -0.111000
      7 C7          1.3800   -1.2210   -0.2880 c1        1 FOI      0.122000
      8 C8          2.5110   -0.9550    0.4710 c1        1 FOI     -0.173000
      9 O9          3.6150   -1.2560   -0.2920 o         1 FOI     -0.052000
     10 C10         3.4060   -0.7710    1.7170 c1        1 FOI      0.386000
     11 O11         3.7130   -1.7350    2.3930 o         1 FOI     -0.381000
     12 O12         3.9400    0.5000    2.0190 os        1 FOI     -0.247000
     13 C13         4.6780    0.5420    3.2370 c3        1 FOI     -0.064000
     14 N14         0.2290   -1.1080    0.5300 n2        1 FOI     -0.265000
     15 C15        -0.8230   -0.1790    0.1760 c3        1 FOI      0.074000
     16 C16        -2.1800   -0.9300    0.0510 c2        1 FOI     -0.194000
     17 C17        -3.5010   -0.1910    0.3330 c1        1 FOI     -0.062000
     18 C18        -3.4720    1.1590    0.9500 c1        1 FOI     -0.144000
     19 C19        -2.1400    1.7260    1.4920 c2        1 FOI     -0.044000
     20 C20        -0.8350    1.0210    1.1710 c2        1 FOI     -0.129000
     21 C21        -2.3180    3.2880    1.1490 c2        1 FOI     -0.124000
     22 C22        -3.6200    3.5150    0.4940 c1        1 FOI     -0.127000
     23 C23        -4.3140    2.2810    0.3640 c1        1 FOI     -0.005000
     24 N24        -5.1340    2.0350   -0.8010 n3        1 FOI     -0.098000
     25 O25        -6.5220    2.1220   -0.7070 oh        1 FOI     -0.262000
     26 H1          1.2760   -3.0560   -4.4930 ha        1 FOI      0.158000
     27 H3          4.8380   -2.2530   -2.6460 ha        1 FOI      0.183000
     28 H6          0.1060   -2.1700   -2.6210 ha        1 FOI      0.158000
     29 H13         5.0110    1.4240    3.3750 h1        1 FOI      0.092333
     30 H13A        5.4490   -0.1020    3.1850 h1        1 FOI      0.092333
     31 H13B        4.0920    0.2930    3.9850 h1        1 FOI      0.092333
     32 HN14        0.1340   -1.6440    1.2500 hn        1 FOI      0.251000
     33 H16        -2.1940   -1.8680   -0.2230 ha        1 FOI      0.144000
     34 H17        -4.3770   -0.6840    0.2490 ha        1 FOI      0.134000
     35 H20         0.0120    1.3720    1.5230 ha        1 FOI      0.143000
     36 H21        -1.5380    3.8270    0.8910 ha        1 FOI      0.153000
     37 H22        -4.1320    4.3670    0.6690 ha        1 FOI      0.155000
     38 HN24       -4.7280    1.8860   -1.6360 hn        1 FOI      0.188000
     39 HO25       -6.8900    1.9140   -1.5000 ho        1 FOI      0.226000
     40 H15        -0.5230    0.1110   -0.6890 h1        1 FOI      0.117000
@<TRIPOS>BOND
     1    1    6 1   
     2    1   26 1   
     3    2    3 1   
     4    3   27 1   
     5    4    5 1   
     6    6   28 1   
     7    7    8 1   
     8    8    9 1   
     9   10   11 1   
    10   10   12 1   
    11   12   13 1   
    12   13   29 1   
    13   13   30 1   
    14   13   31 1   
    15   14   15 1   
    16   14   32 1   
    17   15   16 1   
    18   15   20 1   
    19   15   40 1   
    20   16   17 1   
    21   16   33 1   
    22   17   34 1   
    23   18   19 1   
    24   18   23 1   
    25   19   20 1   
    26   19   21 1   
    27   20   35 1   
    28   21   22 1   
    29   21   36 1   
    30   22   37 1   
    31   23   24 1   
    32   24   25 1   
    33   24   38 1   
    34   25   39 1   
@<TRIPOS>SUBSTRUCTURE
     1 FOI         1 TEMP              0 ****  ****    0 ROOT
