@<TRIPOS>MOLECULE
FOI
   40    43     1     0     0
SMALL
bcc


@<TRIPOS>ATOM
      1 C1          3.0780   -3.7020    1.1320 ca        1 FOI      0.364200
      2 N2          4.2880   -3.4770    0.5620 nb        1 FOI     -0.635000
      3 C3          4.5400   -2.2790    0.0200 ca        1 FOI      0.409200
      4 C4          3.5540   -1.2730    0.0460 ca        1 FOI     -0.022200
      5 C5          2.2830   -1.5110    0.6430 ca        1 FOI     -0.135800
      6 C6          2.0370   -2.7620    1.2050 ca        1 FOI     -0.180300
      7 C7          1.5260   -0.2590    0.4830 cc        1 FOI      0.192800
      8 C8          2.3890    0.6220   -0.1720 cd        1 FOI     -0.099100
      9 O9          3.6370    0.0090   -0.4640 os        1 FOI     -0.148200
     10 C10         2.3030    2.0100   -0.5740 c         1 FOI      0.684300
     11 O11         1.3570    2.7950   -0.4370 o         1 FOI     -0.552000
     12 O12         3.4450    2.4760   -1.1680 os        1 FOI     -0.411900
     13 C13         3.4330    3.8480   -1.5680 c3        1 FOI      0.125700
     14 N14         0.2770   -0.0540    1.0330 nh        1 FOI     -0.682000
     15 C15        -0.7700    0.6210    0.2660 c3        1 FOI      0.237900
     16 C16        -1.3200   -0.2240   -0.8550 c2        1 FOI     -0.230200
     17 C17        -2.6310   -0.4380   -1.0630 ce        1 FOI     -0.047200
     18 C18        -3.6100    0.1080   -0.1710 cc        1 FOI     -0.134800
     19 C19        -3.1280    0.9200    0.9740 cc        1 FOI     -0.071000
     20 C20        -1.8300    1.1410    1.2070 c2        1 FOI     -0.075200
     21 C21        -4.3340    1.3620    1.6930 cc        1 FOI     -0.119000
     22 C22        -5.4310    0.8620    1.0550 cd        1 FOI     -0.141000
     23 C23        -4.9880    0.0650   -0.1220 cd        1 FOI      0.059600
     24 N24        -5.9170   -0.6780   -0.8930 nh        1 FOI     -0.435100
     25 O25        -5.4310   -1.1090   -2.0660 oh        1 FOI     -0.413300
     26 H1          2.9470   -4.7140    1.5570 h4        1 FOI      0.029100
     27 H3          5.5300   -2.1150   -0.4370 h4        1 FOI      0.046100
     28 H6          1.0810   -3.0100    1.6830 ha        1 FOI      0.149000
     29 H13         4.4490    3.9960   -2.0120 h1        1 FOI      0.053700
     30 H13A        2.6270    4.0190   -2.3210 h1        1 FOI      0.053700
     31 H13B        3.2740    4.5040   -0.6790 h1        1 FOI      0.053700
     32 HN14       -0.0710   -0.8760    1.4900 hn        1 FOI      0.405800
     33 H16        -0.5650   -0.6360   -1.5420 ha        1 FOI      0.133000
     34 H17        -2.9920   -1.0210   -1.9250 ha        1 FOI      0.138000
     35 H20        -1.4720    1.7380    2.0600 ha        1 FOI      0.150000
     36 H21        -4.3050    1.9860    2.5850 ha        1 FOI      0.151000
     37 H22        -6.4790    0.9890    1.3250 ha        1 FOI      0.150000
     38 HN24       -6.7140   -0.0770   -1.1090 hn        1 FOI      0.390800
     39 HO25       -5.1940   -2.0440   -1.9110 ho        1 FOI      0.425000
     40 H15        -0.3080    1.5460   -0.2170 h1        1 FOI      0.129700
@<TRIPOS>BOND
     1    1    2 ar  
     2    1    6 ar  
     3    1   26 1   
     4    2    3 ar  
     5    3    4 ar  
     6    3   27 1   
     7    4    5 ar  
     8    4    9 1   
     9    5    6 ar  
    10    5    7 1   
    11    6   28 1   
    12    7    8 2   
    13    7   14 1   
    14    8    9 1   
    15    8   10 1   
    16   10   11 2   
    17   10   12 1   
    18   12   13 1   
    19   13   29 1   
    20   13   30 1   
    21   13   31 1   
    22   14   15 1   
    23   14   32 1   
    24   15   16 1   
    25   15   20 1   
    26   15   40 1   
    27   16   17 2   
    28   16   33 1   
    29   17   18 1   
    30   17   34 1   
    31   18   19 1   
    32   18   23 2   
    33   19   20 2   
    34   19   21 1   
    35   20   35 1   
    36   21   22 2   
    37   21   36 1   
    38   22   23 1   
    39   22   37 1   
    40   23   24 1   
    41   24   25 1   
    42   24   38 1   
    43   25   39 1   
@<TRIPOS>SUBSTRUCTURE
     1 FOI         1 TEMP              0 ****  ****    0 ROOT
