@<TRIPOS>MOLECULE
FOK
   63    65     1     0     0
SMALL
bcc


@<TRIPOS>ATOM
      1 C1          0.0960   -0.0450   -0.1000 c3        1 FOK      0.139100
      2 O2         -0.5200    1.0850    0.5060 oh        1 FOK     -0.574800
      3 C2          1.6150    0.0940   -0.0240 c3        1 FOK     -0.108400
      4 C3          2.1000    0.0640    1.4050 c3        1 FOK     -0.071400
      5 C4          1.6920   -1.2130    2.1510 c3        1 FOK     -0.030000
      6 C5          0.1640   -1.3730    2.0410 c3        1 FOK     -0.045700
      7 C6         -0.3880   -2.5220    2.8970 c3        1 FOK      0.157100
      8 O3          0.1150   -3.7800    2.4850 oh        1 FOK     -0.595800
      9 C7         -1.9300   -2.4980    2.9180 c3        1 FOK      0.113100
     10 O4         -2.3390   -3.6920    3.6000 os        1 FOK     -0.453900
     11 C8         -2.5760   -2.4720    1.5100 c3        1 FOK      0.129800
     12 O1         -3.9490   -2.1560    1.8000 os        1 FOK     -0.430600
     13 C9         -1.9610   -1.2610    0.7410 c3        1 FOK      0.057800
     14 O6         -2.2360   -0.0750    1.4870 oh        1 FOK     -0.559800
     15 C10        -0.4080   -1.3300    0.6100 c3        1 FOK      0.015000
     16 C11        -2.7410   -1.1630   -0.5720 c         1 FOK      0.566100
     17 O7         -2.2450   -1.2070   -1.6980 o         1 FOK     -0.519100
     18 C12        -4.2150   -0.9590   -0.3650 c3        1 FOK     -0.219400
     19 C13        -4.8350   -1.8640    0.7100 c3        1 FOK      0.201000
     20 C14        -6.0000   -1.1270    1.3290 c2        1 FOK     -0.198200
     21 C15        -6.1640   -0.9190    2.6320 c2        1 FOK     -0.182000
     22 C16        -5.3610   -3.1550    0.0840 c3        1 FOK     -0.113100
     23 C17        -2.4780   -3.8100    0.8040 c3        1 FOK     -0.116100
     24 C18         2.0640   -1.0100    3.6220 c3        1 FOK     -0.092100
     25 C19         2.5080   -2.3870    1.6350 c3        1 FOK     -0.092100
     26 C20         0.0030   -2.5160   -0.2550 c3        1 FOK     -0.107100
     27 C21        -3.3140   -3.6000    4.5610 c         1 FOK      0.645100
     28 O5         -3.7480   -2.4920    4.8760 o         1 FOK     -0.530000
     29 C22        -3.6980   -4.9340    5.1030 c3        1 FOK     -0.151100
     30 H1         -0.2240   -0.1000   -1.1810 h1        1 FOK      0.052700
     31 HO2        -0.2050    1.8560    0.0190 ho        1 FOK      0.389000
     32 H21         2.1060   -0.7150   -0.6220 hc        1 FOK      0.044700
     33 H22         1.9090    1.0720   -0.4910 hc        1 FOK      0.044700
     34 H31         3.2170    0.1550    1.4240 hc        1 FOK      0.045200
     35 H32         1.6720    0.9490    1.9480 hc        1 FOK      0.045200
     36 H5         -0.2580   -0.4350    2.5310 hc        1 FOK      0.089700
     37 H6         -0.0600   -2.3490    3.9680 h1        1 FOK      0.042700
     38 HO3        -0.3040   -4.4450    3.0470 ho        1 FOK      0.412000
     39 H7         -2.2760   -1.5820    3.4780 h1        1 FOK      0.106700
     40 HO6        -3.1450   -0.1350    1.8190 ho        1 FOK      0.410000
     41 H121       -4.7620   -1.1170   -1.3320 hc        1 FOK      0.086200
     42 H122       -4.3510    0.1190   -0.0730 hc        1 FOK      0.086200
     43 H14        -6.7280   -0.7720    0.5810 ha        1 FOK      0.123000
     44 H151       -5.4440   -1.2700    3.3890 ha        1 FOK      0.129500
     45 H152       -7.0350   -0.3790    3.0270 ha        1 FOK      0.129500
     46 H161       -6.3260   -2.9530   -0.4400 hc        1 FOK      0.047700
     47 H162       -5.5350   -3.9160    0.8810 hc        1 FOK      0.047700
     48 H163       -4.6380   -3.5660   -0.6590 hc        1 FOK      0.047700
     49 H171       -1.4830   -4.2800    0.9960 hc        1 FOK      0.057700
     50 H172       -2.6190   -3.6950   -0.2970 hc        1 FOK      0.057700
     51 H173       -3.2700   -4.4910    1.2040 hc        1 FOK      0.057700
     52 H181        3.1140   -0.6360    3.6990 hc        1 FOK      0.037700
     53 H182        1.9990   -1.9750    4.1790 hc        1 FOK      0.037700
     54 H183        1.3880   -0.2650    4.1050 hc        1 FOK      0.037700
     55 H191        2.1960   -3.3370    2.1310 hc        1 FOK      0.037700
     56 H192        3.5900   -2.2120    1.8550 hc        1 FOK      0.037700
     57 H193        2.3960   -2.5090    0.5320 hc        1 FOK      0.037700
     58 H201        0.8790   -2.2610   -0.9000 hc        1 FOK      0.052033
     59 H202        0.2870   -3.3930    0.3750 hc        1 FOK      0.052033
     60 H203       -0.8210   -2.8180   -0.9460 hc        1 FOK      0.052033
     61 H221       -3.7090   -4.8830    6.2190 hc        1 FOK      0.076700
     62 H222       -2.9850   -5.7240    4.7690 hc        1 FOK      0.076700
     63 H223       -4.7240   -5.1840    4.7370 hc        1 FOK      0.076700
@<TRIPOS>BOND
     1    1    2 1   
     2    1    3 1   
     3    1   15 1   
     4    1   30 1   
     5    2   31 1   
     6    3    4 1   
     7    3   32 1   
     8    3   33 1   
     9    4    5 1   
    10    4   34 1   
    11    4   35 1   
    12    5    6 1   
    13    5   24 1   
    14    5   25 1   
    15    6    7 1   
    16    6   15 1   
    17    6   36 1   
    18    7    8 1   
    19    7    9 1   
    20    7   37 1   
    21    8   38 1   
    22    9   10 1   
    23    9   11 1   
    24    9   39 1   
    25   10   27 1   
    26   11   12 1   
    27   11   13 1   
    28   11   23 1   
    29   12   19 1   
    30   13   14 1   
    31   13   15 1   
    32   13   16 1   
    33   14   40 1   
    34   15   26 1   
    35   16   17 2   
    36   16   18 1   
    37   18   19 1   
    38   18   41 1   
    39   18   42 1   
    40   19   20 1   
    41   19   22 1   
    42   20   21 2   
    43   20   43 1   
    44   21   44 1   
    45   21   45 1   
    46   22   46 1   
    47   22   47 1   
    48   22   48 1   
    49   23   49 1   
    50   23   50 1   
    51   23   51 1   
    52   24   52 1   
    53   24   53 1   
    54   24   54 1   
    55   25   55 1   
    56   25   56 1   
    57   25   57 1   
    58   26   58 1   
    59   26   59 1   
    60   26   60 1   
    61   27   28 2   
    62   27   29 1   
    63   29   61 1   
    64   29   62 1   
    65   29   63 1   
@<TRIPOS>SUBSTRUCTURE
     1 FOK         1 TEMP              0 ****  ****    0 ROOT
