@<TRIPOS>MOLECULE
FOK
   63    65     1     0     0
SMALL
bcc


@<TRIPOS>ATOM
      1 C1          0.0960   -0.0710   -0.1440 c3        1 FOK      0.137100
      2 O2         -0.5090    1.0950    0.4080 oh        1 FOK     -0.623800
      3 C2          1.6150    0.0450   -0.0440 c3        1 FOK     -0.107400
      4 C3          2.0690    0.0520    1.3950 c3        1 FOK     -0.073400
      5 C4          1.6380   -1.2040    2.1620 c3        1 FOK     -0.031000
      6 C5          0.1120   -1.3640    2.0270 c3        1 FOK     -0.040700
      7 C6         -0.4500   -2.5110    2.8790 c3        1 FOK      0.147100
      8 O3          0.0770   -3.7650    2.4810 oh        1 FOK     -0.599800
      9 C7         -1.9910   -2.5100    2.8800 c3        1 FOK      0.117100
     10 O4         -2.4130   -3.7340    3.5030 os        1 FOK     -0.453900
     11 C8         -2.6280   -2.4660    1.4690 c3        1 FOK      0.178800
     12 O1         -4.0080   -2.1790    1.7460 os        1 FOK     -0.407600
     13 C9         -1.9990   -1.2440    0.7210 c3        1 FOK      0.056800
     14 O6         -2.3570   -0.1480    1.5670 oh        1 FOK     -0.583800
     15 C10        -0.4460   -1.3280    0.5900 c3        1 FOK     -0.017000
     16 C11        -2.7750   -1.1150   -0.5900 c         1 FOK      0.554100
     17 O7         -2.2790   -1.1590   -1.7170 o         1 FOK     -0.519100
     18 C12        -4.2420   -0.8850   -0.3670 c3        1 FOK     -0.205400
     19 C13        -4.8710   -1.8470    0.6520 c3        1 FOK      0.211000
     20 C14        -6.0650   -1.1510    1.2620 c2        1 FOK     -0.189200
     21 C15        -6.1880   -0.8240    2.5450 c2        1 FOK     -0.179000
     22 C16        -5.3610   -3.1150   -0.0490 c3        1 FOK     -0.117100
     23 C17        -2.5140   -3.7960    0.7460 c3        1 FOK     -0.121100
     24 C18         1.9830   -0.9670    3.6350 c3        1 FOK     -0.091600
     25 C19         2.4580   -2.3930    1.6900 c3        1 FOK     -0.091600
     26 C20        -0.0420   -2.5260   -0.2630 c3        1 FOK     -0.107100
     27 C21        -3.0030   -3.6730    4.7390 c         1 FOK      0.641100
     28 O5         -3.0250   -2.6010    5.3430 o         1 FOK     -0.532000
     29 C22        -3.5350   -4.9940    5.1780 c3        1 FOK     -0.151100
     30 H1         -0.2080   -0.1450   -1.2300 h1        1 FOK      0.057700
     31 HO2        -0.0710    1.8560    0.0110 ho        1 FOK      0.408000
     32 H21         1.9370    1.0010   -0.5390 hc        1 FOK      0.048200
     33 H22         2.1040   -0.7920   -0.6040 hc        1 FOK      0.048200
     34 H31         3.1860    0.1410    1.4350 hc        1 FOK      0.045200
     35 H32         1.6340    0.9530    1.9070 hc        1 FOK      0.045200
     36 H5         -0.3180   -0.4260    2.5110 hc        1 FOK      0.084700
     37 H6         -0.1390   -2.3320    3.9530 h1        1 FOK      0.045700
     38 HO3        -0.3860   -4.4400    2.9970 ho        1 FOK      0.411000
     39 H7         -2.3640   -1.6140    3.4570 h1        1 FOK      0.122700
     40 HO6        -2.3250    0.6670    1.0520 ho        1 FOK      0.426000
     41 H121       -4.3520    0.1690    0.0100 hc        1 FOK      0.082200
     42 H122       -4.7970   -0.9660   -1.3380 hc        1 FOK      0.082200
     43 H14        -6.8520   -0.9270    0.5240 ha        1 FOK      0.120000
     44 H151       -5.4060   -1.0360    3.2880 ha        1 FOK      0.124000
     45 H152       -7.0820   -0.3180    2.9320 ha        1 FOK      0.124000
     46 H161       -5.5540   -3.9110    0.7080 hc        1 FOK      0.046033
     47 H162       -4.6060   -3.4860   -0.7820 hc        1 FOK      0.046033
     48 H163       -6.3080   -2.9020   -0.6010 hc        1 FOK      0.046033
     49 H171       -3.3310   -4.4710    1.1050 hc        1 FOK      0.056700
     50 H172       -1.5370   -4.2850    0.9760 hc        1 FOK      0.056700
     51 H173       -2.6080   -3.6680   -0.3580 hc        1 FOK      0.056700
     52 H181        1.3050   -0.2040    4.0850 hc        1 FOK      0.038200
     53 H182        1.8970   -1.9160    4.2150 hc        1 FOK      0.038200
     54 H183        3.0350   -0.6020    3.7230 hc        1 FOK      0.038200
     55 H191        2.3170   -2.5830    0.6010 hc        1 FOK      0.038200
     56 H192        3.5430   -2.1920    1.8710 hc        1 FOK      0.038200
     57 H193        2.1740   -3.3170    2.2490 hc        1 FOK      0.038200
     58 H201       -0.8480   -2.7890   -0.9900 hc        1 FOK      0.052700
     59 H202        0.8700   -2.3060   -0.8710 hc        1 FOK      0.052700
     60 H203        0.1850   -3.4140    0.3730 hc        1 FOK      0.052700
     61 H221       -3.3050   -5.1400    6.2620 hc        1 FOK      0.076033
     62 H222       -3.0880   -5.8240    4.5810 hc        1 FOK      0.076033
     63 H223       -4.6440   -4.9950    5.0340 hc        1 FOK      0.076033
@<TRIPOS>BOND
     1    1    2 1   
     2    1    3 1   
     3    1   15 1   
     4    1   30 1   
     5    2   31 1   
     6    3    4 1   
     7    3   32 1   
     8    3   33 1   
     9    4    5 1   
    10    4   34 1   
    11    4   35 1   
    12    5    6 1   
    13    5   24 1   
    14    5   25 1   
    15    6    7 1   
    16    6   15 1   
    17    6   36 1   
    18    7    8 1   
    19    7    9 1   
    20    7   37 1   
    21    8   38 1   
    22    9   10 1   
    23    9   11 1   
    24    9   39 1   
    25   10   27 1   
    26   11   12 1   
    27   11   13 1   
    28   11   23 1   
    29   12   19 1   
    30   13   14 1   
    31   13   15 1   
    32   13   16 1   
    33   14   40 1   
    34   15   26 1   
    35   16   17 2   
    36   16   18 1   
    37   18   19 1   
    38   18   41 1   
    39   18   42 1   
    40   19   20 1   
    41   19   22 1   
    42   20   21 2   
    43   20   43 1   
    44   21   44 1   
    45   21   45 1   
    46   22   46 1   
    47   22   47 1   
    48   22   48 1   
    49   23   49 1   
    50   23   50 1   
    51   23   51 1   
    52   24   52 1   
    53   24   53 1   
    54   24   54 1   
    55   25   55 1   
    56   25   56 1   
    57   25   57 1   
    58   26   58 1   
    59   26   59 1   
    60   26   60 1   
    61   27   28 2   
    62   27   29 1   
    63   29   61 1   
    64   29   62 1   
    65   29   63 1   
@<TRIPOS>SUBSTRUCTURE
     1 FOK         1 TEMP              0 ****  ****    0 ROOT
