@<TRIPOS>MOLECULE
FOK
   63    65     1     0     0
SMALL
bcc


@<TRIPOS>ATOM
      1 C1         -2.0540    0.2120   -2.2800 c3        1 FOK      0.139100
      2 O2         -2.2550    1.5730   -1.9160 oh        1 FOK     -0.574800
      3 C2         -1.7930    0.1130   -3.7810 c3        1 FOK     -0.108400
      4 C3         -0.5020    0.7970   -4.1610 c3        1 FOK     -0.071400
      5 C4          0.7170    0.2340   -3.4180 c3        1 FOK     -0.030000
      6 C5          0.4370    0.2990   -1.9050 c3        1 FOK     -0.045700
      7 C6          1.6540   -0.0740   -1.0480 c3        1 FOK      0.157100
      8 O3          2.0630   -1.4130   -1.2590 oh        1 FOK     -0.595800
      9 C7          1.3830    0.2150    0.4430 c3        1 FOK      0.113100
     10 O4          2.5050   -0.3150    1.1630 os        1 FOK     -0.453900
     11 C8          0.0840   -0.4340    0.9820 c3        1 FOK      0.129800
     12 O1         -0.0870    0.2140    2.2550 os        1 FOK     -0.430600
     13 C9         -1.0830    0.0280    0.0540 c3        1 FOK      0.057800
     14 O6         -1.1360    1.4550    0.0810 oh        1 FOK     -0.559800
     15 C10        -0.8780   -0.3610   -1.4440 c3        1 FOK      0.015000
     16 C11        -2.3660   -0.4870    0.7100 c         1 FOK      0.566100
     17 O7         -3.1910   -1.2280    0.1750 o         1 FOK     -0.519100
     18 C12        -2.5640    0.0410    2.1030 c3        1 FOK     -0.219400
     19 C13        -1.3060   -0.0010    2.9820 c3        1 FOK      0.201000
     20 C14        -1.3870    1.1390    3.9710 c2        1 FOK     -0.198200
     21 C15        -0.4420    2.0560    4.1560 c2        1 FOK     -0.182000
     22 C16        -1.2410   -1.3130    3.7630 c3        1 FOK     -0.113100
     23 C17         0.2180   -1.9320    1.1650 c3        1 FOK     -0.116100
     24 C18         1.9000    1.1510   -3.7420 c3        1 FOK     -0.092100
     25 C19         1.0510   -1.1460   -3.9600 c3        1 FOK     -0.092100
     26 C20        -0.9010   -1.8760   -1.6100 c3        1 FOK     -0.107100
     27 C21         3.0820    0.4540    2.1430 c         1 FOK      0.645100
     28 O5          2.6840    1.6060    2.3180 o         1 FOK     -0.530000
     29 C22         4.1650   -0.2710    2.8630 c3        1 FOK     -0.151100
     30 H1         -2.9810   -0.3770   -2.0190 h1        1 FOK      0.052700
     31 HO2        -3.0090    1.8810   -2.4330 ho        1 FOK      0.389000
     32 H21        -2.6430    0.6040   -4.3250 hc        1 FOK      0.044700
     33 H22        -1.7770   -0.9600   -4.0990 hc        1 FOK      0.044700
     34 H31        -0.5920    1.8910   -3.9250 hc        1 FOK      0.045200
     35 H32        -0.3350    0.6950   -5.2650 hc        1 FOK      0.045200
     36 H5          0.2750    1.4060   -1.6910 hc        1 FOK      0.089700
     37 H6          2.5130    0.6030   -1.3440 h1        1 FOK      0.042700
     38 HO3         2.8050   -1.5750   -0.6620 ho        1 FOK      0.412000
     39 H7          1.3060    1.3300    0.5940 h1        1 FOK      0.106700
     40 HO6        -0.9900    1.7410    0.9960 ho        1 FOK      0.410000
     41 H121       -2.9130    1.1050    1.9950 hc        1 FOK      0.086200
     42 H122       -3.3830   -0.5310    2.6150 hc        1 FOK      0.086200
     43 H14        -2.3240    1.1360    4.5490 ha        1 FOK      0.123000
     44 H151       -0.5530    2.8610    4.8950 ha        1 FOK      0.129500
     45 H152        0.5000    2.0670    3.5840 ha        1 FOK      0.129500
     46 H161       -0.2080   -1.4640    4.1580 hc        1 FOK      0.047700
     47 H162       -1.9550   -1.2760    4.6200 hc        1 FOK      0.047700
     48 H163       -1.5130   -2.1800    3.1160 hc        1 FOK      0.047700
     49 H171        0.7660   -2.1350    2.1180 hc        1 FOK      0.057700
     50 H172       -0.7840   -2.4230    1.2100 hc        1 FOK      0.057700
     51 H173        0.8020   -2.3770    0.3230 hc        1 FOK      0.057700
     52 H181        1.9540    1.3230   -4.8440 hc        1 FOK      0.037700
     53 H182        1.7880    2.1390   -3.2360 hc        1 FOK      0.037700
     54 H183        2.8590    0.6820   -3.4170 hc        1 FOK      0.037700
     55 H191        1.3350   -1.0620   -5.0380 hc        1 FOK      0.037700
     56 H192        1.9080   -1.5950   -3.4040 hc        1 FOK      0.037700
     57 H193        0.1790   -1.8360   -3.8860 hc        1 FOK      0.037700
     58 H201       -1.4140   -2.1710   -2.5580 hc        1 FOK      0.052033
     59 H202        0.1360   -2.2920   -1.6400 hc        1 FOK      0.052033
     60 H203       -1.4640   -2.3660   -0.7800 hc        1 FOK      0.052033
     61 H221        5.0660    0.3870    2.9240 hc        1 FOK      0.076700
     62 H222        3.8100   -0.5030    3.8980 hc        1 FOK      0.076700
     63 H223        4.4280   -1.2230    2.3420 hc        1 FOK      0.076700
@<TRIPOS>BOND
     1    1    2 1   
     2    1    3 1   
     3    1   15 1   
     4    1   30 1   
     5    2   31 1   
     6    3    4 1   
     7    3   32 1   
     8    3   33 1   
     9    4    5 1   
    10    4   34 1   
    11    4   35 1   
    12    5    6 1   
    13    5   24 1   
    14    5   25 1   
    15    6    7 1   
    16    6   15 1   
    17    6   36 1   
    18    7    8 1   
    19    7    9 1   
    20    7   37 1   
    21    8   38 1   
    22    9   10 1   
    23    9   11 1   
    24    9   39 1   
    25   10   27 1   
    26   11   12 1   
    27   11   13 1   
    28   11   23 1   
    29   12   19 1   
    30   13   14 1   
    31   13   15 1   
    32   13   16 1   
    33   14   40 1   
    34   15   26 1   
    35   16   17 2   
    36   16   18 1   
    37   18   19 1   
    38   18   41 1   
    39   18   42 1   
    40   19   20 1   
    41   19   22 1   
    42   20   21 2   
    43   20   43 1   
    44   21   44 1   
    45   21   45 1   
    46   22   46 1   
    47   22   47 1   
    48   22   48 1   
    49   23   49 1   
    50   23   50 1   
    51   23   51 1   
    52   24   52 1   
    53   24   53 1   
    54   24   54 1   
    55   25   55 1   
    56   25   56 1   
    57   25   57 1   
    58   26   58 1   
    59   26   59 1   
    60   26   60 1   
    61   27   28 2   
    62   27   29 1   
    63   29   61 1   
    64   29   62 1   
    65   29   63 1   
@<TRIPOS>SUBSTRUCTURE
     1 FOK         1 TEMP              0 ****  ****    0 ROOT
