@<TRIPOS>MOLECULE
FOL
   50    50     1     0     0
SMALL
bcc


@<TRIPOS>ATOM
      1 N1         -1.9070    2.4240    4.9890 na        1 FOL     -0.289000
      2 C2         -0.6720    3.0610    4.6810 c2        1 FOL      0.272000
      3 NA2        -0.5230    4.3730    5.1620 nv        1 FOL     -0.343000
      4 N3          0.2710    2.5170    3.9100 n2        1 FOL     -0.329000
      5 C4          0.0910    1.2370    3.3530 c2        1 FOL      0.337000
      6 O4          0.9380    0.7880    2.5670 o         1 FOL     -0.294000
      7 C4A        -1.1260    0.4580    3.7530 c2        1 FOL     -0.206000
      8 N5         -1.2720   -0.8480    3.3590 n2        1 FOL     -0.022000
      9 C6         -2.3760   -1.4830    3.7430 c2        1 FOL     -0.189000
     10 C7         -3.4340   -0.8770    4.5420 c1        1 FOL     -0.095000
     11 N8         -3.2440    0.3880    4.9370 nu        1 FOL     -0.122000
     12 C8A        -2.0920    1.1110    4.5770 c2        1 FOL      0.103000
     13 C9         -2.5800   -2.9450    3.4050 c3        1 FOL      0.002000
     14 N10        -1.6440   -3.8650    4.0300 n7        1 FOL     -0.176000
     15 C11        -3.5740   -2.0520    9.7270 c2        1 FOL     -0.201000
     16 C12        -2.4240   -2.8050    9.3510 c1        1 FOL     -0.064000
     17 C13        -1.8800   -4.1510    6.5640 c1        1 FOL     -0.240000
     18 C14        -1.7530   -3.9780    5.3830 c1        1 FOL     -0.134000
     19 C15        -5.8750   -3.2910    9.9180 c2        1 FOL     -0.208000
     20 C16        -4.7420   -2.6730    9.8300 c1        1 FOL      0.083000
     21 O          -2.4240    0.0330    9.6010 o         1 FOL     -0.452000
     22 N          -4.4970    0.0760   10.5890 ns        1 FOL     -0.325000
     23 CA         -4.4120    1.3880   11.1980 c3        1 FOL     -0.087000
     24 CB         -4.4450    2.5570   10.2080 c3        1 FOL     -0.161000
     25 CG         -3.0630    2.9590    9.7200 c3        1 FOL     -0.206000
     26 CD         -2.9520    2.9640    8.2330 c2        1 FOL      0.345000
     27 OE1        -3.3320    1.8620    7.5190 oh        1 FOL     -0.359000
     28 OE2        -2.5250    3.8650    7.4940 o         1 FOL     -0.410000
     29 CT         -5.5820    1.5920   12.2540 c2        1 FOL      0.341000
     30 O1         -6.3540    0.6230   12.4790 o         1 FOL     -0.548000
     31 O2         -5.6260    2.7210   12.8020 o         1 FOL     -0.548000
     32 HN1        -2.5310    2.8300    5.6650 hn        1 FOL      0.287000
     33 HN21       -1.0270    4.6090    5.9910 hn        1 FOL      0.234500
     34 HN22        0.3980    4.7440    5.0960 hn        1 FOL      0.234500
     35 H7         -3.9140    0.8150    5.5490 hn        1 FOL      0.273000
     36 H91        -2.4780   -3.0920    2.2920 h1        1 FOL      0.114500
     37 H92        -3.6250   -3.2270    3.7170 h1        1 FOL      0.114500
     38 HN0        -0.6930   -3.6530    3.7720 hn        1 FOL      0.189000
     39 H12        -1.9950   -4.2770    7.6170 ha        1 FOL      0.258000
     40 H13        -1.4900   -2.2280    9.2530 ha        1 FOL      0.072000
     41 H15        -6.5560   -3.3940    9.0590 ha        1 FOL      0.170000
     42 H16        -6.2260   -3.7370   10.8620 ha        1 FOL      0.170000
     43 HN         -5.2700   -0.4620   10.9360 hn        1 FOL      0.253000
     44 HA         -5.1190    2.3250    9.3430 hc        1 FOL      0.109000
     45 HB1        -3.4510    1.4500   11.7890 h1        1 FOL      0.091000
     46 HB2        -4.8990    3.4290   10.7580 hc        1 FOL      0.109000
     47 HG1        -2.8000    3.9810   10.1010 hc        1 FOL      0.135000
     48 HG2        -2.2870    2.2350   10.1020 hc        1 FOL      0.135000
     49 H2         -3.5030    1.1200    8.1270 ho        1 FOL      0.277000
     50 C          -3.4570   -0.5740    9.9920 c2        1 FOL      0.300000
@<TRIPOS>BOND
     1    1    2 1   
     2    1   12 1   
     3    1   32 1   
     4    2    3 1   
     5    2    4 1   
     6    3   33 1   
     7    3   34 1   
     8    4    5 1   
     9    5    6 1   
    10    5    7 1   
    11    7    8 1   
    12    7   12 1   
    13    8    9 1   
    14    9   10 1   
    15    9   13 1   
    16   10   11 1   
    17   11   12 1   
    18   11   35 1   
    19   13   14 1   
    20   13   36 1   
    21   13   37 1   
    22   14   18 1   
    23   14   38 1   
    24   15   16 1   
    25   15   20 1   
    26   15   50 1   
    27   16   40 1   
    28   17   18 1   
    29   17   39 1   
    30   19   20 1   
    31   19   41 1   
    32   19   42 1   
    33   21   50 1   
    34   22   23 1   
    35   22   43 1   
    36   22   50 1   
    37   23   24 1   
    38   23   29 1   
    39   23   45 1   
    40   24   25 1   
    41   24   44 1   
    42   24   46 1   
    43   25   26 1   
    44   25   47 1   
    45   25   48 1   
    46   26   27 1   
    47   26   28 1   
    48   27   49 1   
    49   29   30 1   
    50   29   31 1   
@<TRIPOS>SUBSTRUCTURE
     1 FOL         1 TEMP              0 ****  ****    0 ROOT
