@<TRIPOS>MOLECULE
FOL
   49    51     1     0     0
SMALL
bcc


@<TRIPOS>ATOM
      1 N1         -1.2040    1.8080    6.1820 na        1 FOL     -0.826900
      2 C2         -1.3880    1.3910    7.5180 cc        1 FOL      0.838100
      3 NA2        -1.9190    2.3640    8.4100 nh        1 FOL     -0.888800
      4 N3         -1.1260    0.1660    7.9660 nd        1 FOL     -0.755100
      5 C4         -0.7250   -0.8550    7.0800 c         1 FOL      0.621000
      6 O4         -0.4930   -1.9870    7.5280 o         1 FOL     -0.522100
      7 C4A        -0.5900   -0.5060    5.6290 ca        1 FOL      0.181500
      8 N5         -0.2250   -1.4520    4.7220 nb        1 FOL     -0.567000
      9 C6         -0.1320   -1.0710    3.4400 ca        1 FOL      0.271300
     10 C7         -0.3940    0.2860    3.0400 ca        1 FOL      0.377900
     11 N8         -0.7510    1.2340    3.9030 nb        1 FOL     -0.674000
     12 C8A        -0.8550    0.8460    5.2240 ca        1 FOL      0.528900
     13 C9          0.2480   -2.0760    2.3640 c3        1 FOL      0.138500
     14 N10         1.4330   -1.6520    1.6590 nh        1 FOL     -0.739600
     15 C11         1.3270   -0.9850   -2.5110 ca        1 FOL     -0.153600
     16 C12         2.4390   -1.5830   -1.9220 ca        1 FOL     -0.070000
     17 C13         2.4620   -1.8350   -0.5520 ca        1 FOL     -0.198000
     18 C14         1.3580   -1.4820    0.2540 ca        1 FOL      0.099600
     19 C15         0.2340   -0.8880   -0.3590 ca        1 FOL     -0.198000
     20 C16         0.2200   -0.6390   -1.7280 ca        1 FOL     -0.070000
     21 O           1.3670   -1.7090   -4.7830 o         1 FOL     -0.654100
     22 N           1.1730    0.5680   -4.3820 n         1 FOL     -0.486900
     23 CA          0.5500    0.9880   -5.6250 c3        1 FOL     -0.037300
     24 CB         -0.9450    1.3110   -5.4440 c3        1 FOL     -0.075400
     25 CG         -1.7990    0.1060   -5.1130 c3        1 FOL     -0.190400
     26 CD         -2.8510    0.3990   -4.0390 c         1 FOL      0.908600
     27 OE1        -2.4840    0.4950   -2.8240 o         1 FOL     -0.874300
     28 OE2        -4.0670    0.4980   -4.3790 o         1 FOL     -0.874300
     29 CT          1.2540    2.2660   -6.1980 c         1 FOL      0.918600
     30 O1          1.4260    2.3050   -7.4490 o         1 FOL     -0.850800
     31 O2          1.6010    3.1880   -5.4060 o         1 FOL     -0.850800
     32 HN1        -1.5140    2.7030    5.8720 hn        1 FOL      0.464800
     33 HN21       -1.9340    2.0610    9.3610 hn        1 FOL      0.409800
     34 HN22       -1.5370    3.2780    8.2970 hn        1 FOL      0.409800
     35 H7         -0.3000    0.5880    1.9750 h4        1 FOL      0.080100
     36 H91         0.4040   -3.0890    2.8370 h1        1 FOL      0.066700
     37 H92        -0.6400   -2.1600    1.6710 h1        1 FOL      0.066700
     38 HN0         2.2410   -2.1700    1.9370 hn        1 FOL      0.384800
     39 H12         3.2990   -1.8660   -2.5470 ha        1 FOL      0.189500
     40 H13         3.3520   -2.3020   -0.1070 ha        1 FOL      0.117500
     41 H15        -0.6520   -0.6060    0.2290 ha        1 FOL      0.117500
     42 H16        -0.6840   -0.1750   -2.2020 ha        1 FOL      0.189500
     43 HN          1.1240    1.2610   -3.6660 hn        1 FOL      0.309500
     44 HA          0.6650    0.1550   -6.3740 h1        1 FOL      0.066700
     45 HB1        -1.0560    2.0890   -4.6420 hc        1 FOL      0.046700
     46 HB2        -1.2940    1.7740   -6.4040 hc        1 FOL      0.046700
     47 HG1        -2.3200   -0.2510   -6.0380 hc        1 FOL      0.023200
     48 HG2        -1.1630   -0.7400   -4.7430 hc        1 FOL      0.023200
     49 C           1.2680   -0.7410   -3.9930 c         1 FOL      0.661700
@<TRIPOS>BOND
     1    1    2 1   
     2    1   12 1   
     3    1   32 1   
     4    2    3 1   
     5    2    4 2   
     6    3   33 1   
     7    3   34 1   
     8    4    5 1   
     9    5    6 2   
    10    5    7 1   
    11    7    8 ar  
    12    7   12 ar  
    13    8    9 ar  
    14    9   10 ar  
    15    9   13 1   
    16   10   11 ar  
    17   10   35 1   
    18   11   12 ar  
    19   13   14 1   
    20   13   36 1   
    21   13   37 1   
    22   14   18 1   
    23   14   38 1   
    24   15   16 ar  
    25   15   20 ar  
    26   15   49 1   
    27   16   17 ar  
    28   16   39 1   
    29   17   18 ar  
    30   17   40 1   
    31   18   19 ar  
    32   19   20 ar  
    33   19   41 1   
    34   20   42 1   
    35   21   49 2   
    36   22   23 1   
    37   22   43 1   
    38   22   49 1   
    39   23   24 1   
    40   23   29 1   
    41   23   44 1   
    42   24   25 1   
    43   24   45 1   
    44   24   46 1   
    45   25   26 1   
    46   25   47 1   
    47   25   48 1   
    48   26   27 1   
    49   26   28 1   
    50   29   30 1   
    51   29   31 1   
@<TRIPOS>SUBSTRUCTURE
     1 FOL         1 TEMP              0 ****  ****    0 ROOT
