@<TRIPOS>MOLECULE
FOL
   52    54     1     0     0
SMALL
bcc


@<TRIPOS>ATOM
      1 N1         -0.6280   -0.7890    1.7410 na        1 FOL     -0.163500
      2 C2         -1.0550    0.4850    1.2800 cc        1 FOL      0.438700
      3 NA2        -0.5320    0.9420   -0.0710 n4        1 FOL     -0.806600
      4 N3         -1.3870    1.5110    2.0830 nd        1 FOL     -0.776100
      5 C4         -1.6530    1.2790    3.4250 c         1 FOL      0.619000
      6 O4         -2.0720    2.1930    4.1570 o         1 FOL     -0.568100
      7 C4A        -1.4440   -0.1290    3.9620 cc        1 FOL      0.434800
      8 N5         -1.6050   -0.3950    5.2400 nd        1 FOL     -0.715000
      9 C6         -1.4920   -1.7420    5.6170 cd        1 FOL      0.275600
     10 C7         -1.3600   -2.7650    4.7150 cc        1 FOL     -0.155600
     11 N8         -1.1980   -2.5500    3.3340 na        1 FOL     -0.176100
     12 C8A        -1.0890   -1.1530    2.9800 cc        1 FOL     -0.287600
     13 C9         -1.6160   -2.0560    7.0850 c3        1 FOL      0.235800
     14 N10        -1.0120   -1.0730    7.9200 n1        1 FOL     -0.476300
     15 C11        -2.5540    2.1740    9.5720 ce        1 FOL     -0.100200
     16 C12        -1.5430    1.4500   10.0780 c2        1 FOL     -0.091200
     17 C13        -0.3470    1.0530    9.2770 c3        1 FOL      0.014900
     18 C14        -0.6870   -0.1280    8.5040 c1        1 FOL      0.566700
     19 C15        -3.0890    2.1560    7.1620 c2        1 FOL     -0.129000
     20 C16        -2.6030    2.7720    8.2410 ce        1 FOL     -0.244000
     21 O          -3.9610    3.2650   11.2470 o         1 FOL     -0.410100
     22 N          -4.9020    1.4640   10.1070 n4        1 FOL     -0.668800
     23 CA         -4.6580    0.1160   10.7340 c3        1 FOL     -0.006500
     24 CB         -5.9360   -0.7000   10.8750 c3        1 FOL     -0.094400
     25 CG         -6.9060   -0.0930   11.8380 cx        1 FOL      0.004100
     26 CD         -8.3220    0.0130   11.5230 c         1 FOL      0.728600
     27 OE1        -9.4870   -0.2220   11.3480 o         1 FOL     -0.445500
     28 OE2        -7.5600    1.1570   11.3680 os        1 FOL     -0.480900
     29 CT         -3.6680   -0.6910    9.8130 c         1 FOL      0.905600
     30 O1         -2.6550   -1.1860   10.3560 o         1 FOL     -0.796300
     31 O2         -3.9410   -0.7130    8.5820 o         1 FOL     -0.796300
     32 HN1        -0.4970   -1.5210    1.0680 hn        1 FOL      0.269700
     33 HN21       -0.9390    0.3370   -0.7830 hn        1 FOL      0.444133
     34 HN22        0.4880    0.9060   -0.1240 hn        1 FOL      0.444133
     35 H7         -1.9160   -3.0220    2.8020 hn        1 FOL      0.218700
     36 H91        -1.3530   -3.8310    5.0030 h4        1 FOL      0.164000
     37 H92        -2.7180   -2.0530    7.3980 h1        1 FOL      0.140200
     38 HN0        -1.1390   -3.0500    7.3280 h1        1 FOL      0.140200
     39 H12         0.5260    0.8230    9.9530 hc        1 FOL      0.131700
     40 H13        -1.5750    1.0380   11.1040 ha        1 FOL      0.178000
     41 H15        -0.0410    1.8690    8.5560 hc        1 FOL      0.131700
     42 H16        -3.0710    2.6270    6.1630 ha        1 FOL      0.165000
     43 HN         -2.1890    3.7960    8.1920 ha        1 FOL      0.162000
     44 HA         -5.7860    1.8640   10.4490 hn        1 FOL      0.474800
     45 HB1        -4.1870    0.2850   11.7430 hx        1 FOL      0.103700
     46 HB2        -5.6330   -1.7160   11.2590 hc        1 FOL      0.108700
     47 HG1        -6.4040   -0.8540    9.8640 hc        1 FOL      0.108700
     48 HG2        -6.5680   -0.0400   12.8940 h1        1 FOL      0.129700
     49 HA23       -0.8400    1.9100   -0.2340 hn        1 FOL      0.444133
     50 H102       -3.4990    1.1310    7.1840 ha        1 FOL      0.165000
     51 H2         -4.9620    1.3110    9.0850 hn        1 FOL      0.474800
     52 C          -3.7660    2.4090   10.3980 c         1 FOL      0.564300
@<TRIPOS>BOND
     1    1    2 1   
     2    1   12 2   
     3    1   32 1   
     4    2    3 1   
     5    2    4 2   
     6    3   33 1   
     7    3   34 1   
     8    3   49 1   
     9    4    5 1   
    10    5    6 2   
    11    5    7 1   
    12    7    8 2   
    13    7   12 1   
    14    8    9 1   
    15    9   10 2   
    16    9   13 1   
    17   10   11 1   
    18   10   36 1   
    19   11   12 1   
    20   11   35 1   
    21   13   14 1   
    22   13   37 1   
    23   13   38 1   
    24   14   18 3   
    25   15   16 2   
    26   15   20 1   
    27   15   52 1   
    28   16   17 1   
    29   16   40 1   
    30   17   18 1   
    31   17   39 1   
    32   17   41 1   
    33   19   20 2   
    34   19   42 1   
    35   19   50 1   
    36   20   43 1   
    37   21   52 2   
    38   22   23 1   
    39   22   44 1   
    40   22   51 1   
    41   22   52 1   
    42   23   24 1   
    43   23   29 1   
    44   23   45 1   
    45   24   25 1   
    46   24   46 1   
    47   24   47 1   
    48   25   26 1   
    49   25   28 1   
    50   25   48 1   
    51   26   27 2   
    52   26   28 1   
    53   29   30 1   
    54   29   31 1   
@<TRIPOS>SUBSTRUCTURE
     1 FOL         1 TEMP              0 ****  ****    0 ROOT
