@<TRIPOS>MOLECULE
FOM
   19    18     1     0     0
SMALL
bcc


@<TRIPOS>ATOM
      1 O2          0.7660    1.3170    0.0480 oh        1 FOM     -0.450100
      2 N1          1.5850    0.2570   -0.0590 n         1 FOM     -0.307300
      3 C1          1.3070   -0.8140    0.8020 c         1 FOM      0.614900
      4 O1          0.6190   -0.6530    1.8330 o         1 FOM     -0.671100
      5 C2          1.9090   -0.0020   -1.4730 c3        1 FOM      0.073000
      6 C3          2.6310   -1.3190   -1.7420 c3        1 FOM     -0.074400
      7 C4          3.0840   -1.4220   -3.1520 c3        1 FOM     -0.273600
      8 PA1         3.8600   -3.0880   -3.1770 p5        1 FOM      1.211700
      9 OP1         2.7220   -3.9870   -2.7430 o         1 FOM     -0.953833
     10 OP2         4.3070   -3.2480   -4.6090 o         1 FOM     -0.953833
     11 OP3         4.9680   -2.9530   -2.1560 o         1 FOM     -0.953833
     12 HO2         0.8990    1.6570    0.9520 ho        1 FOM      0.400000
     13 H1          1.8540   -1.7560    0.5630 h5        1 FOM      0.092200
     14 H21         0.9630    0.0420   -2.0830 h1        1 FOM      0.029200
     15 H22         2.5620    0.8580   -1.7910 h1        1 FOM      0.029200
     16 H31         1.9540   -2.1980   -1.5450 hc        1 FOM      0.076700
     17 H32         3.5380   -1.4320   -1.0870 hc        1 FOM      0.076700
     18 H41         3.8480   -0.6700   -3.4250 hc        1 FOM      0.017200
     19 H42         2.2560   -1.4030   -3.8840 hc        1 FOM      0.017200
@<TRIPOS>BOND
     1    1    2 1   
     2    1   12 1   
     3    2    3 1   
     4    2    5 1   
     5    3    4 2   
     6    3   13 1   
     7    5    6 1   
     8    5   14 1   
     9    5   15 1   
    10    6    7 1   
    11    6   16 1   
    12    6   17 1   
    13    7    8 1   
    14    7   18 1   
    15    7   19 1   
    16    8    9 1   
    17    8   10 1   
    18    8   11 1   
@<TRIPOS>SUBSTRUCTURE
     1 FOM         1 TEMP              0 ****  ****    0 ROOT
