@<TRIPOS>MOLECULE
FOM
   19    18     1     0     0
SMALL
bcc


@<TRIPOS>ATOM
      1 O2          1.2390    0.4520    3.2680 oh        1 FOM     -0.429100
      2 N1          0.3470   -0.4600    2.8990 n         1 FOM     -0.293300
      3 C1         -1.0000   -0.1670    3.1980 c         1 FOM      0.625900
      4 O1         -1.3560    0.7110    4.0020 o         1 FOM     -0.621100
      5 C2          0.6040   -1.0630    1.5760 c3        1 FOM      0.032000
      6 C3          0.1900   -0.2440    0.3600 c3        1 FOM     -0.089400
      7 C4          0.5050   -0.9380   -0.9130 c3        1 FOM     -0.273600
      8 PA1        -0.1360    0.2420   -2.1630 p5        1 FOM      1.212700
      9 OP1         0.6360    1.5060   -1.8490 o         1 FOM     -0.954500
     10 OP2         0.2030   -0.4160   -3.4780 o         1 FOM     -0.954500
     11 OP3        -1.6100    0.3050   -1.8260 o         1 FOM     -0.954500
     12 HO2         1.2180    1.1910    2.6230 ho        1 FOM      0.399000
     13 H1         -1.7170   -0.8760    2.7230 h5        1 FOM      0.035200
     14 H21         1.7090   -1.2700    1.5330 h1        1 FOM      0.041200
     15 H22         0.0580   -2.0460    1.5780 h1        1 FOM      0.041200
     16 H31        -0.9180   -0.0380    0.3740 hc        1 FOM      0.074200
     17 H32         0.7120    0.7530    0.3440 hc        1 FOM      0.074200
     18 H41         1.5880   -1.0810   -1.0790 hc        1 FOM      0.016200
     19 H42        -0.0260   -1.9010   -1.0310 hc        1 FOM      0.016200
@<TRIPOS>BOND
     1    1    2 1   
     2    1   12 1   
     3    2    3 1   
     4    2    5 1   
     5    3    4 2   
     6    3   13 1   
     7    5    6 1   
     8    5   14 1   
     9    5   15 1   
    10    6    7 1   
    11    6   16 1   
    12    6   17 1   
    13    7    8 1   
    14    7   18 1   
    15    7   19 1   
    16    8    9 1   
    17    8   10 1   
    18    8   11 1   
@<TRIPOS>SUBSTRUCTURE
     1 FOM         1 TEMP              0 ****  ****    0 ROOT
