@<TRIPOS>MOLECULE
FOM
   19    18     1     0     0
SMALL
bcc


@<TRIPOS>ATOM
      1 O2         -1.9640   -1.0310    1.7800 oh        1 FOM     -0.450100
      2 N1         -0.5550   -0.9940    1.7060 n         1 FOM     -0.307300
      3 C1          0.2140   -1.1090    2.8820 c         1 FOM      0.614900
      4 O1         -0.2860   -0.8890    3.9490 o         1 FOM     -0.671100
      5 C2          0.1050   -1.0000    0.4090 c3        1 FOM      0.073000
      6 C3         -0.1130    0.3320   -0.2800 c3        1 FOM     -0.074400
      7 C4          0.6000    0.3310   -1.6150 c3        1 FOM     -0.273600
      8 PA1         0.3720    1.9510   -2.4280 p5        1 FOM      1.211700
      9 OP1         0.9910    3.0330   -1.5780 o         1 FOM     -0.953833
     10 OP2         1.0350    1.9320   -3.7790 o         1 FOM     -0.953833
     11 OP3        -1.1060    2.2240   -2.5950 o         1 FOM     -0.953833
     12 HO2        -2.2260   -1.8190    2.1210 ho        1 FOM      0.400000
     13 H1          1.1590   -1.4180    2.8290 h5        1 FOM      0.092200
     14 H21         1.0750   -1.1500    0.5340 h1        1 FOM      0.029200
     15 H22        -0.2640   -1.7110   -0.1390 h1        1 FOM      0.029200
     16 H31         0.2440    1.0540    0.2820 hc        1 FOM      0.076700
     17 H32        -1.0720    0.4730   -0.4220 hc        1 FOM      0.076700
     18 H41         0.2270   -0.3750   -2.1840 hc        1 FOM      0.017200
     19 H42         1.5620    0.1660   -1.4740 hc        1 FOM      0.017200
@<TRIPOS>BOND
     1    1    2 1   
     2    1   12 1   
     3    2    3 1   
     4    2    5 1   
     5    3    4 2   
     6    3   13 1   
     7    5    6 1   
     8    5   14 1   
     9    5   15 1   
    10    6    7 1   
    11    6   16 1   
    12    6   17 1   
    13    7    8 1   
    14    7   18 1   
    15    7   19 1   
    16    8    9 1   
    17    8   10 1   
    18    8   11 1   
@<TRIPOS>SUBSTRUCTURE
     1 FOM         1 TEMP              0 ****  ****    0 ROOT
