@<TRIPOS>MOLECULE
FON
   58    58     1     0     0
SMALL
bcc


@<TRIPOS>ATOM
      1 N1         -0.6370   -1.9550    0.3200 na        1 FON     -0.700000
      2 C2         -0.3140   -3.2020    0.8710 cc        1 FON      0.753100
      3 NA2        -0.2150   -4.3610   -0.0570 n4        1 FON     -0.844600
      4 N3         -0.0900   -3.4400    2.1470 nd        1 FON     -0.629100
      5 C4         -0.3120   -2.3990    3.0820 c         1 FON      0.704700
      6 O4         -0.0640   -2.6000    4.2830 o         1 FON     -0.558100
      7 C4A        -0.8440   -1.1010    2.5790 cc        1 FON     -0.160600
      8 N5         -1.2270   -0.1160    3.5200 n         1 FON     -0.380000
      9 C6         -2.6580    0.0980    3.7060 c3        1 FON      0.060000
     10 C7         -1.0440    1.4430    0.8440 c2        1 FON      0.546100
     11 N8         -1.4770    0.2660    0.5870 nf        1 FON     -0.617300
     12 C8A        -0.9510   -0.8980    1.2030 cd        1 FON      0.369600
     13 C9         -3.4320   -1.0210    4.3800 c3        1 FON     -0.124100
     14 N10        -1.2320   -2.8480    6.9760 n2        1 FON     -0.661800
     15 C11        -1.4860   -6.4090    5.3560 ce        1 FON     -0.311200
     16 C12        -0.7020   -6.3530    6.4900 cf        1 FON      0.132000
     17 C13        -0.4100   -5.2320    7.2820 cf        1 FON     -0.384100
     18 C14        -0.7840   -3.9590    7.0340 c1        1 FON      0.515500
     19 C15        -3.5160   -5.1410    4.7450 c2        1 FON     -0.211000
     20 C16        -2.1900   -5.2450    4.8420 ce        1 FON     -0.136000
     21 O          -1.0500   -8.7530    4.9970 o         1 FON     -0.507100
     22 N          -2.3130   -7.7150    3.3540 n4        1 FON     -0.668800
     23 CA         -1.4490   -8.1650    2.2090 c3        1 FON      0.039500
     24 CB         -2.1080   -9.2500    1.3560 c3        1 FON     -0.096400
     25 CG         -2.4300  -10.4740    2.1520 cx        1 FON      0.001100
     26 CD         -3.6340  -11.2490    1.8890 c         1 FON      0.727600
     27 OE1        -4.4340  -12.0090    1.4150 o         1 FON     -0.448500
     28 OE2        -3.6770  -10.3770    2.9580 os        1 FON     -0.469900
     29 CT         -1.1200   -6.9730    1.2830 c         1 FON      0.909600
     30 O1         -0.0080   -6.9470    0.6910 o         1 FON     -0.818800
     31 O2         -1.9790   -6.0440    1.1420 o         1 FON     -0.818800
     32 CP1        -0.3920   -0.0270    4.6630 c         1 FON      0.664900
     33 O3         -0.8390    0.1580    5.8010 o         1 FON     -0.562100
     34 HN1        -0.8370   -1.8420   -0.6530 hn        1 FON      0.480800
     35 HN21       -1.1530   -4.8620   -0.0510 hn        1 FON      0.503800
     36 HN22        0.4540   -5.0840    0.3220 hn        1 FON      0.503800
     37 H61        -3.1130    0.3030    2.6970 h1        1 FON      0.072700
     38 H7         -2.7540    1.0320    4.3340 h1        1 FON      0.072700
     39 HC72       -0.2150    1.7210    1.5240 h4        1 FON      0.024300
     40 HN8        -1.5610    2.2790    0.3270 h4        1 FON      0.024300
     41 H91        -4.5090   -0.7300    4.4360 hc        1 FON      0.050033
     42 H92        -3.3510   -1.9770    3.8090 hc        1 FON      0.050033
     43 HN0        -3.0560   -1.1900    5.4190 hc        1 FON      0.050033
     44 H12         0.1970   -5.3910    8.1950 ha        1 FON      0.187000
     45 H13        -0.2260   -7.3000    6.8300 ha        1 FON      0.161000
     46 H15        -4.2080   -5.9330    5.0600 ha        1 FON      0.124500
     47 H16        -3.9990   -4.2310    4.3610 ha        1 FON      0.124500
     48 HN         -1.5280   -4.4090    4.5400 ha        1 FON      0.141000
     49 HA         -2.6840   -6.7760    3.1260 hn        1 FON      0.471300
     50 HB1        -0.4810   -8.5660    2.6370 hx        1 FON      0.129700
     51 HB2        -1.3740   -9.5230    0.5460 hc        1 FON      0.103200
     52 HG1        -3.0290   -8.8410    0.8590 hc        1 FON      0.103200
     53 HG2        -1.5820  -10.9270    2.7080 h1        1 FON      0.137700
     54 HCP1       -0.9870   -1.9810    6.5590 hn        1 FON      0.560400
     55 HA23        0.0610   -4.0860   -0.9960 hn        1 FON      0.503800
     56 H102        0.6950   -0.1010    4.4300 h5        1 FON      0.057200
     57 H2         -3.1030   -8.3630    3.4650 hn        1 FON      0.471300
     58 C          -1.5510   -7.6760    4.6660 c         1 FON      0.577300
@<TRIPOS>BOND
     1    1    2 1   
     2    1   12 1   
     3    1   34 1   
     4    2    3 1   
     5    2    4 2   
     6    3   35 1   
     7    3   36 1   
     8    3   55 1   
     9    4    5 1   
    10    5    6 2   
    11    5    7 1   
    12    7    8 1   
    13    7   12 2   
    14    8    9 1   
    15    8   32 1   
    16    9   13 1   
    17    9   37 1   
    18    9   38 1   
    19   10   11 2   
    20   10   39 1   
    21   10   40 1   
    22   11   12 1   
    23   13   41 1   
    24   13   42 1   
    25   13   43 1   
    26   14   18 2   
    27   14   54 1   
    28   15   16 2   
    29   15   20 1   
    30   15   58 1   
    31   16   17 1   
    32   16   45 1   
    33   17   18 2   
    34   17   44 1   
    35   19   20 2   
    36   19   46 1   
    37   19   47 1   
    38   20   48 1   
    39   21   58 2   
    40   22   23 1   
    41   22   49 1   
    42   22   57 1   
    43   22   58 1   
    44   23   24 1   
    45   23   29 1   
    46   23   50 1   
    47   24   25 1   
    48   24   51 1   
    49   24   52 1   
    50   25   26 1   
    51   25   28 1   
    52   25   53 1   
    53   26   27 2   
    54   26   28 1   
    55   29   30 1   
    56   29   31 1   
    57   32   33 2   
    58   32   56 1   
@<TRIPOS>SUBSTRUCTURE
     1 FON         1 TEMP              0 ****  ****    0 ROOT
