@<TRIPOS>MOLECULE
FON
   55    57     1     0     0
SMALL
bcc


@<TRIPOS>ATOM
      1 N1          1.2130    0.8850    1.5560 na        1 FON     -0.716000
      2 C2          2.3880    0.1310    1.7740 cc        1 FON      0.876100
      3 NA2         3.4330    0.3340    0.8800 nh        1 FON     -0.889800
      4 N3          2.5440   -0.6880    2.8410 nd        1 FON     -0.785100
      5 C4          1.5330   -0.7950    3.7850 c         1 FON      0.729700
      6 O4          1.6860   -1.5570    4.7720 o         1 FON     -0.660100
      7 C4A         0.2770   -0.0090    3.6040 cc        1 FON     -0.250600
      8 N5         -0.7910   -0.1140    4.5290 n         1 FON     -0.347000
      9 C6         -2.1090    0.3020    4.0880 c3        1 FON      0.024700
     10 C7         -2.0470    1.5390    3.1590 c3        1 FON      0.180800
     11 N8         -1.0020    1.5560    2.1710 nh        1 FON     -0.728000
     12 C8A         0.1590    0.7950    2.4620 cd        1 FON      0.329000
     13 C9         -2.9840   -0.8360    3.4880 c3        1 FON      0.185800
     14 N10        -2.3730   -1.8900    2.7330 nh        1 FON     -0.720600
     15 C11        -1.0610   -1.3730   -1.2550 ca        1 FON     -0.171600
     16 C12        -0.5370   -2.3910   -0.4450 ca        1 FON     -0.067000
     17 C13        -0.9720   -2.5500    0.8610 ca        1 FON     -0.208000
     18 C14        -1.9670   -1.6940    1.4000 ca        1 FON      0.144600
     19 C15        -2.5490   -0.7330    0.5450 ca        1 FON     -0.208000
     20 C16        -2.0940   -0.5780   -0.7640 ca        1 FON     -0.067000
     21 O          -0.0150   -2.0890   -3.2700 o         1 FON     -0.608100
     22 N          -0.1630    0.2030   -2.9250 n         1 FON     -0.482900
     23 CA          1.1650    0.6090   -3.3840 c3        1 FON     -0.019300
     24 CB          1.1220    1.8730   -4.2530 c3        1 FON     -0.048400
     25 CG          0.4770    1.6450   -5.5980 c3        1 FON     -0.186400
     26 CD          0.3430    2.9460   -6.4020 c         1 FON      0.904600
     27 OE1        -0.3330    3.9020   -5.9190 o         1 FON     -0.867800
     28 OE2         0.8870    3.0020   -7.5470 o         1 FON     -0.867800
     29 CT          2.0670    0.8670   -2.1480 c         1 FON      0.888600
     30 O1          3.2070    0.3300   -2.0550 o         1 FON     -0.873300
     31 O2          1.6100    1.5730   -1.1870 o         1 FON     -0.873300
     32 CP1        -0.5420   -0.2600    5.8870 c         1 FON      0.660900
     33 O3         -1.4580   -0.1890    6.7310 o         1 FON     -0.659100
     34 HN1         1.1090    1.4080    0.6940 hn        1 FON      0.525800
     35 HN21        4.1330   -0.3720    0.8720 hn        1 FON      0.466800
     36 HN22        3.2200    0.7410   -0.0280 hn        1 FON      0.466800
     37 H61        -2.6820    0.6430    5.0100 h1        1 FON      0.081700
     38 H7         -1.8850    2.4460    3.8140 h1        1 FON      0.050200
     39 HC72       -3.0430    1.6600    2.6480 h1        1 FON      0.050200
     40 HN8        -1.3290    1.4270    1.2290 hn        1 FON      0.420800
     41 H91        -3.4800   -1.3480    4.3660 h1        1 FON      0.050700
     42 H92        -3.7950   -0.3550    2.8730 h1        1 FON      0.050700
     43 HN0        -1.6750   -2.3770    3.2650 hn        1 FON      0.407800
     44 H12         0.2490   -3.0460   -0.8550 ha        1 FON      0.148500
     45 H13        -0.5170   -3.3320    1.4880 ha        1 FON      0.126500
     46 H15        -3.3640   -0.0870    0.8990 ha        1 FON      0.126500
     47 H16        -2.5520    0.1930   -1.4040 ha        1 FON      0.148500
     48 HN         -0.5230    0.8720   -2.2700 hn        1 FON      0.284500
     49 HA          1.6050   -0.2380   -3.9850 h1        1 FON      0.079700
     50 HB1         0.5830    2.6970   -3.7150 hc        1 FON      0.052200
     51 HB2         2.1840    2.2050   -4.3950 hc        1 FON      0.052200
     52 HG1         1.0780    0.9070   -6.1890 hc        1 FON      0.023700
     53 HG2        -0.5510    1.2220   -5.4650 hc        1 FON      0.023700
     54 HCP1        0.5170   -0.4900    6.1520 h5        1 FON      0.090200
     55 C          -0.3700   -1.1240   -2.5630 c         1 FON      0.653700
@<TRIPOS>BOND
     1    1    2 1   
     2    1   12 1   
     3    1   34 1   
     4    2    3 1   
     5    2    4 2   
     6    3   35 1   
     7    3   36 1   
     8    4    5 1   
     9    5    6 2   
    10    5    7 1   
    11    7    8 1   
    12    7   12 2   
    13    8    9 1   
    14    8   32 1   
    15    9   10 1   
    16    9   13 1   
    17    9   37 1   
    18   10   11 1   
    19   10   38 1   
    20   10   39 1   
    21   11   12 1   
    22   11   40 1   
    23   13   14 1   
    24   13   41 1   
    25   13   42 1   
    26   14   18 1   
    27   14   43 1   
    28   15   16 ar  
    29   15   20 ar  
    30   15   55 1   
    31   16   17 ar  
    32   16   44 1   
    33   17   18 ar  
    34   17   45 1   
    35   18   19 ar  
    36   19   20 ar  
    37   19   46 1   
    38   20   47 1   
    39   21   55 2   
    40   22   23 1   
    41   22   48 1   
    42   22   55 1   
    43   23   24 1   
    44   23   29 1   
    45   23   49 1   
    46   24   25 1   
    47   24   50 1   
    48   24   51 1   
    49   25   26 1   
    50   25   52 1   
    51   25   53 1   
    52   26   27 1   
    53   26   28 1   
    54   29   30 1   
    55   29   31 1   
    56   32   33 2   
    57   32   54 1   
@<TRIPOS>SUBSTRUCTURE
     1 FON         1 TEMP              0 ****  ****    0 ROOT
