@<TRIPOS>MOLECULE
FON
   55    51     1     0     0
SMALL
bcc


@<TRIPOS>ATOM
      1 N1          4.2670   -0.9880   -6.3860 n2        1 FON     -0.268000
      2 C2          5.3070   -1.8690   -6.5570 c1        1 FON      0.215000
      3 NA2         5.8940   -2.0440   -7.8670 n2        1 FON     -0.319000
      4 N3          5.7680   -2.6550   -5.4620 n2        1 FON     -0.304000
      5 C4          5.1820   -2.5380   -4.2420 c1        1 FON      0.324000
      6 O4          5.4670   -3.3270   -3.3550 o         1 FON     -0.287000
      7 C4A         4.1460   -1.6620   -4.0660 c1        1 FON     -0.102000
      8 N5          3.5590   -1.3600   -2.7030 n         1 FON     -0.289000
      9 C6          2.7290   -0.2990   -2.6130 c3        1 FON     -0.016000
     10 C7          1.8710   -0.0270   -3.7900 c3        1 FON     -0.076000
     11 N8          2.4770    0.0620   -4.9480 n3        1 FON     -0.259000
     12 C8A         3.6800   -0.8640   -5.1850 c1        1 FON      0.056000
     13 C9          1.7510   -0.5380   -1.3380 c3        1 FON     -0.055000
     14 N10         1.1500    0.7340   -0.9440 n3        1 FON     -0.296000
     15 C11        -1.4080    1.3000    2.3890 c1        1 FON     -0.136000
     16 C12        -0.0460    1.5080    2.5210 c1        1 FON     -0.134500
     17 C13         0.8070    1.2600    1.4460 c1        1 FON     -0.134500
     18 C14         0.2880    0.8020    0.2340 c1        1 FON      0.021000
     19 C15        -1.0770    0.5930    0.1010 c1        1 FON     -0.203000
     20 C16        -1.9300    0.8420    1.1790 c1        1 FON     -0.065000
     21 C          -2.3490    1.6230    3.5580 c2        1 FON      0.328000
     22 O          -1.8870    2.0700    4.6210 o         1 FON     -0.394000
     23 N          -3.7580    1.4380    3.4130 n         1 FON     -0.272000
     24 CA         -4.6080    1.6800    4.4920 c3        1 FON     -0.081000
     25 CB         -5.4640    0.4240    4.7600 c3        1 FON     -0.128000
     26 CG         -6.4190    0.6850    5.9500 c3        1 FON     -0.211000
     27 CD         -7.0810   -0.6380    6.3770 c2        1 FON      0.324000
     28 OE1        -8.2970   -0.8740    6.0630 o         1 FON     -0.608500
     29 OE2        -6.4030   -1.5160    7.0170 o         1 FON     -0.608500
     30 CT         -3.7850    2.0060    5.7180 c2        1 FON      0.318000
     31 O1         -3.1240    1.0790    6.3130 o         1 FON     -0.592000
     32 O2         -3.7990    3.1640    6.1880 o         1 FON     -0.592000
     33 CP1         4.1630   -1.8890   -1.5350 c2        1 FON      0.276000
     34 O3          4.9100   -2.8440   -1.6180 o         1 FON     -0.322000
     35 HN1         4.0050   -0.4590   -7.0760 hn        1 FON      0.249000
     36 HN21        5.8210   -2.8390   -8.2950 hn        1 FON      0.196000
     37 HN22        6.3490   -1.3460   -8.2650 hn        1 FON      0.196000
     38 H61         3.2740    0.5040   -2.4380 h1        1 FON      0.114000
     39 H7          1.4240    0.8230   -3.6320 h1        1 FON      0.123000
     40 HC72        1.1930   -0.7820   -3.8560 h1        1 FON      0.123000
     41 HN8         2.7360    0.9690   -5.1030 hn        1 FON      0.185000
     42 H91         1.0590   -1.1590   -1.5790 h1        1 FON      0.084500
     43 H92         2.2620   -0.8950   -0.6020 h1        1 FON      0.084500
     44 HN0         1.3070    1.5010   -1.4530 hn        1 FON      0.182000
     45 H12         0.3160    1.8100    3.3620 ha        1 FON      0.170000
     46 H13         1.7770    1.4020    1.5440 ha        1 FON      0.170000
     47 H15        -1.4500    0.2600   -0.7670 ha        1 FON      0.113000
     48 H16        -2.7480    0.5410    0.8380 ha        1 FON      0.142000
     49 HN         -4.0910    1.1370    2.6440 hn        1 FON      0.200000
     50 HA         -5.2120    2.4590    4.2740 h1        1 FON      0.108000
     51 HB1        -6.0000    0.2090    3.9450 hc        1 FON      0.092000
     52 HB2        -4.8700   -0.3410    4.9750 hc        1 FON      0.092000
     53 HG1        -5.9100    1.0550    6.7060 hc        1 FON      0.060000
     54 HG2        -7.1300    1.3410    5.6710 hc        1 FON      0.060000
     55 HCP1        3.9060   -1.5280   -0.6300 h5        1 FON      0.146000
@<TRIPOS>BOND
     1    1    2 1   
     2    1   35 1   
     3    2    4 1   
     4    3   36 1   
     5    3   37 1   
     6    4    5 1   
     7    5    6 1   
     8    7    8 1   
     9    7   12 1   
    10    8    9 1   
    11    8   33 1   
    12    9   10 1   
    13    9   13 1   
    14    9   38 1   
    15   10   11 1   
    16   10   39 1   
    17   10   40 1   
    18   11   12 1   
    19   11   41 1   
    20   13   14 1   
    21   13   42 1   
    22   13   43 1   
    23   14   18 1   
    24   14   44 1   
    25   15   20 1   
    26   15   21 1   
    27   16   17 1   
    28   16   45 1   
    29   17   46 1   
    30   18   19 1   
    31   19   47 1   
    32   20   48 1   
    33   21   22 1   
    34   21   23 1   
    35   23   24 1   
    36   23   49 1   
    37   24   25 1   
    38   24   30 1   
    39   24   50 1   
    40   25   26 1   
    41   25   51 1   
    42   25   52 1   
    43   26   27 1   
    44   26   53 1   
    45   26   54 1   
    46   27   28 1   
    47   27   29 1   
    48   30   31 1   
    49   30   32 1   
    50   33   34 1   
    51   33   55 1   
@<TRIPOS>SUBSTRUCTURE
     1 FON         1 TEMP              0 ****  ****    0 ROOT
