@<TRIPOS>MOLECULE
FON
   56    54     1     0     0
SMALL
bcc


@<TRIPOS>ATOM
      1 N1         -0.5390   -2.8160    1.0600 nu        1 FON     -0.827200
      2 C2          0.7610   -3.4010    0.9900 c2        1 FON      0.899100
      3 NA2         0.8560   -4.6070    0.3390 nv        1 FON     -0.871800
      4 N3          1.8820   -2.7940    1.4500 ne        1 FON     -0.792100
      5 C4          1.8180   -1.5220    1.9720 c         1 FON      0.696500
      6 O4          2.7780   -0.9740    2.5380 o         1 FON     -0.557100
      7 C4A         0.5080   -0.6830    1.8400 c3        1 FON      0.016200
      8 N5          0.5300    0.2790    0.7900 n2        1 FON     -0.651600
      9 C6         -2.2000   -0.1270    4.3610 c3        1 FON     -0.143700
     10 C7         -2.2530   -0.0750    2.8250 c3        1 FON      0.133800
     11 N8         -1.9250   -1.3120    2.1800 n2        1 FON     -0.673900
     12 C8A        -0.7340   -1.6010    1.7450 c2        1 FON      0.625200
     13 C9         -2.7550   -1.4330    4.8410 c2        1 FON      0.458200
     14 N10        -2.0980   -2.2170    5.6300 ne        1 FON     -0.597300
     15 C11        -3.4070   -6.4220    6.3640 ce        1 FON     -0.038900
     16 C12        -2.1930   -5.8480    6.5100 cf        1 FON     -0.061000
     17 C13        -1.8600   -4.4460    6.5250 cf        1 FON     -0.131000
     18 C14        -2.5820   -3.5150    5.8560 ce        1 FON      0.062600
     19 C15        -5.7160   -5.2250    6.3930 c1        1 FON     -0.137500
     20 C16        -4.6460   -5.7650    6.3750 cg        1 FON     -0.144300
     21 O          -3.9210   -8.7210    6.9490 o         1 FON     -0.590100
     22 N          -2.9830   -8.2840    4.8810 ns        1 FON     -0.483100
     23 CA         -2.9250   -9.6040    4.4280 c2        1 FON     -0.054400
     24 CB         -2.3690   -9.9700    3.2560 c2        1 FON     -0.216200
     25 CG         -1.7420   -9.0230    2.3090 c3        1 FON     -0.134200
     26 CD         -1.0850   -9.7010    1.1430 c         1 FON      0.671100
     27 OE1        -1.2920  -10.8650    0.7720 o         1 FON     -0.566000
     28 OE2        -0.1480   -9.0570    0.4070 os        1 FON     -0.491200
     29 CT          0.0990   -7.6660    0.5290 c         1 FON      0.513100
     30 O1         -0.8610   -6.9370    0.8830 o         1 FON     -0.548500
     31 O2          1.2660   -7.3750    0.2040 o         1 FON     -0.548500
     32 CP1         0.9180    0.2170   -0.3870 c1        1 FON      0.790900
     33 O3          1.2020    0.4640   -1.5270 o         1 FON     -0.437500
     34 HN1        -1.3320   -3.4180    0.9500 hn        1 FON      0.460800
     35 HN21        0.0470   -5.2020    0.2570 hn        1 FON      0.482300
     36 HN22        1.7260   -5.1050    0.3660 hn        1 FON      0.482300
     37 H61        -1.1460    0.0340    4.7090 hc        1 FON      0.064200
     38 H7         -2.8280    0.7090    4.7660 hc        1 FON      0.064200
     39 HC72       -3.3180    0.1360    2.5130 h1        1 FON      0.051200
     40 HN8        -1.6250    0.8000    2.4900 h1        1 FON      0.051200
     41 H91        -5.6990   -2.8680    4.1630 ha        1 FON      0.000750
     42 H92        -5.7270   -3.3540    4.6350 ha        1 FON      0.000750
     43 HN0        -3.7460   -1.6860    4.3970 h4        1 FON     -0.021200
     44 H12        -0.9050   -4.1880    7.0160 ha        1 FON      0.148000
     45 H13        -1.3070   -6.5130    6.5690 ha        1 FON      0.144000
     46 H15        -3.5550   -3.8000    5.3950 h4        1 FON      0.122000
     47 H16        -6.6630   -4.7520    6.4090 ha        1 FON      0.165500
     48 HN         -2.7040   -5.8470    2.8880 ha        1 FON      0.000750
     49 HA         -2.6510   -7.5700    4.2670 hn        1 FON      0.329500
     50 HB1        -3.3770  -10.3390    5.1210 h4        1 FON      0.158000
     51 HB2        -2.3720  -11.0310    2.9570 ha        1 FON      0.159000
     52 HG1        -0.9690   -8.3880    2.8260 hc        1 FON      0.089700
     53 HG2        -2.5060   -8.3090    1.8860 hc        1 FON      0.089700
     54 HCP1        0.4240   -0.0700    2.7910 h1        1 FON      0.111700
     55 H2         -2.2600   -6.1490    2.4720 ha        1 FON      0.000750
     56 C          -3.4740   -7.9090    6.1200 c         1 FON      0.672300
@<TRIPOS>BOND
     1    1    2 1   
     2    1   12 1   
     3    1   34 1   
     4    2    3 1   
     5    2    4 2   
     6    3   35 1   
     7    3   36 1   
     8    4    5 1   
     9    5    6 2   
    10    5    7 1   
    11    7    8 1   
    12    7   12 1   
    13    7   54 1   
    14    8   32 2   
    15    9   10 1   
    16    9   13 1   
    17    9   37 1   
    18    9   38 1   
    19   10   11 1   
    20   10   39 1   
    21   10   40 1   
    22   11   12 2   
    23   13   14 2   
    24   13   43 1   
    25   14   18 1   
    26   15   16 2   
    27   15   20 1   
    28   15   56 1   
    29   16   17 1   
    30   16   45 1   
    31   17   18 2   
    32   17   44 1   
    33   18   46 1   
    34   19   20 3   
    35   19   47 1   
    36   21   56 2   
    37   22   23 1   
    38   22   49 1   
    39   22   56 1   
    40   23   24 2   
    41   23   50 1   
    42   24   25 1   
    43   24   51 1   
    44   25   26 1   
    45   25   52 1   
    46   25   53 1   
    47   26   27 2   
    48   26   28 1   
    49   28   29 1   
    50   29   30 1   
    51   29   31 1   
    52   32   33 2   
    53   41   42 1   
    54   48   55 1   
@<TRIPOS>SUBSTRUCTURE
     1 FON         1 TEMP              0 ****  ****    0 ROOT
