@<TRIPOS>MOLECULE
FOO
   31    31     1     0     0
SMALL
bcc


@<TRIPOS>ATOM
      1 N1          0.0480   -1.1050    0.7610 nb        1 FOO     -0.681000
      2 C2          1.3860   -0.8560    0.7130 ca        1 FOO      0.302600
      3 C2A         2.1480   -1.1270   -0.5400 c3        1 FOO     -0.105400
      4 C3          2.0840   -0.3170    1.8190 ca        1 FOO      0.014800
      5 O3          3.4100   -0.0070    1.5960 oh        1 FOO     -0.535100
      6 C4          1.4090   -0.0670    3.0380 ca        1 FOO     -0.114800
      7 C5          0.0290   -0.3260    3.0690 ca        1 FOO     -0.137600
      8 C6         -0.5990   -0.8300    1.8950 ca        1 FOO      0.367200
      9 C5A        -0.8420   -0.0350    4.2700 c3        1 FOO      0.241700
     10 O4P        -1.9560   -0.8290    4.3440 os        1 FOO     -0.564200
     11 P          -3.4760   -0.0870    3.9590 p5        1 FOO      1.315900
     12 O1P        -3.5290   -0.3460    2.4730 o         1 FOO     -0.928167
     13 O2P        -4.4540   -0.8560    4.8030 o         1 FOO     -0.928167
     14 O3P        -3.2530    1.3500    4.3550 o         1 FOO     -0.928167
     15 N           4.0040   -1.8920    4.1380 n2        1 FOO     -0.765100
     16 CA          4.2500   -0.7190    4.6140 ce        1 FOO      0.377600
     17 C           5.6620   -0.2780    5.0680 c         1 FOO      0.777300
     18 OXT         5.8080    0.8000    5.7080 o         1 FOO     -0.847300
     19 CB          3.2060    0.2920    4.8310 ce        1 FOO     -0.235600
     20 O           6.6290   -1.0470    4.7800 o         1 FOO     -0.847300
     21 C7          2.0550    0.5410    4.1920 cf        1 FOO     -0.076200
     22 H6         -1.7300   -0.9540    1.9380 h4        1 FOO      0.142100
     23 H2A1        3.1130   -1.6310   -0.2860 hc        1 FOO      0.018033
     24 H2A2        2.3870   -0.1600   -1.0500 hc        1 FOO      0.018033
     25 H2A3        1.5770   -1.7720   -1.2510 hc        1 FOO      0.018033
     26 H3          3.8130    0.2020    2.4520 ho        1 FOO      0.429000
     27 H7          1.4340    1.3670    4.6040 ha        1 FOO      0.118000
     28 H5A1       -1.1360    1.0600    4.2190 h1        1 FOO      0.020700
     29 H5A2       -0.2110   -0.2010    5.1950 h1        1 FOO      0.020700
     30 H           4.8280   -2.4610    4.0760 hn        1 FOO      0.370400
     31 HB          3.4790    0.9530    5.6800 ha        1 FOO      0.138000
@<TRIPOS>BOND
     1    1    2 ar  
     2    1    8 ar  
     3    2    3 1   
     4    2    4 ar  
     5    3   23 1   
     6    3   24 1   
     7    3   25 1   
     8    4    5 1   
     9    4    6 ar  
    10    5   26 1   
    11    6    7 ar  
    12    6   21 1   
    13    7    8 ar  
    14    7    9 1   
    15    8   22 1   
    16    9   10 1   
    17    9   28 1   
    18    9   29 1   
    19   10   11 1   
    20   11   12 1   
    21   11   13 1   
    22   11   14 1   
    23   15   16 2   
    24   15   30 1   
    25   16   17 1   
    26   16   19 1   
    27   17   18 1   
    28   17   20 1   
    29   19   21 2   
    30   19   31 1   
    31   21   27 1   
@<TRIPOS>SUBSTRUCTURE
     1 FOO         1 TEMP              0 ****  ****    0 ROOT
