@<TRIPOS>MOLECULE
FOO
   31    31     1     0     0
SMALL
bcc


@<TRIPOS>ATOM
      1 N1         -1.4890   -0.7150    4.2190 nb        1 FOO     -0.679000
      2 C2         -0.1840   -1.0640    4.3970 ca        1 FOO      0.300600
      3 C2A         0.3350   -1.3340    5.7690 c3        1 FOO     -0.104400
      4 C3          0.7090   -1.1880    3.3080 ca        1 FOO     -0.005200
      5 O3          1.9830   -1.6040    3.6410 oh        1 FOO     -0.538100
      6 C4          0.2700   -0.9220    1.9850 ca        1 FOO     -0.134800
      7 C5         -1.0790   -0.5740    1.8190 ca        1 FOO     -0.132600
      8 C6         -1.9120   -0.4940    2.9740 ca        1 FOO      0.362200
      9 C5A        -1.7260   -0.3110    0.4780 c3        1 FOO      0.238700
     10 O4P        -2.7340    0.6160    0.5410 os        1 FOO     -0.565200
     11 P          -4.3590    0.0270    0.3860 p5        1 FOO      1.316900
     12 O1P        -4.6790   -0.2510    1.8360 o         1 FOO     -0.925833
     13 O2P        -5.0820    1.1850   -0.2400 o         1 FOO     -0.925833
     14 O3P        -4.1880   -1.1970   -0.4740 o         1 FOO     -0.925833
     15 N           2.9950   -1.1810   -1.5040 n2        1 FOO     -0.796100
     16 CA          3.3810   -0.8850   -0.3080 ce        1 FOO      0.396600
     17 C           4.8730   -0.7690    0.0820 c         1 FOO      0.777300
     18 OXT         5.1900   -0.4760    1.2670 o         1 FOO     -0.845800
     19 CB          2.4380   -0.6420    0.7950 ce        1 FOO     -0.248600
     20 O           5.7270   -0.9890   -0.8310 o         1 FOO     -0.845800
     21 C7          1.1630   -1.0630    0.8400 cf        1 FOO     -0.072200
     22 H6         -3.0120   -0.2510    2.7920 h4        1 FOO      0.150100
     23 H2A1        1.1870   -0.6420    5.9850 hc        1 FOO      0.018367
     24 H2A2       -0.4470   -1.2000    6.5540 hc        1 FOO      0.018367
     25 H2A3        0.7230   -2.3820    5.8200 hc        1 FOO      0.018367
     26 H3          2.4950   -1.7060    2.8240 ho        1 FOO      0.432000
     27 H7          0.7010   -1.5590   -0.0340 ha        1 FOO      0.145000
     28 H5A1       -0.9220    0.0650   -0.2240 h1        1 FOO      0.027200
     29 H5A2       -2.1200   -1.3010    0.0880 h1        1 FOO      0.027200
     30 H           3.7670   -1.3160   -2.1320 hn        1 FOO      0.370400
     31 HB          2.9010   -0.0870    1.6330 ha        1 FOO      0.147000
@<TRIPOS>BOND
     1    1    2 ar  
     2    1    8 ar  
     3    2    3 1   
     4    2    4 ar  
     5    3   23 1   
     6    3   24 1   
     7    3   25 1   
     8    4    5 1   
     9    4    6 ar  
    10    5   26 1   
    11    6    7 ar  
    12    6   21 1   
    13    7    8 ar  
    14    7    9 1   
    15    8   22 1   
    16    9   10 1   
    17    9   28 1   
    18    9   29 1   
    19   10   11 1   
    20   11   12 1   
    21   11   13 1   
    22   11   14 1   
    23   15   16 2   
    24   15   30 1   
    25   16   17 1   
    26   16   19 1   
    27   17   18 1   
    28   17   20 1   
    29   19   21 2   
    30   19   31 1   
    31   21   27 1   
@<TRIPOS>SUBSTRUCTURE
     1 FOO         1 TEMP              0 ****  ****    0 ROOT
