@<TRIPOS>MOLECULE
FOO
   31    31     1     0     0
SMALL
bcc


@<TRIPOS>ATOM
      1 N1         -0.2400    0.0840    0.9550 nb        1 FOO     -0.682000
      2 C2          1.0250    0.5870    0.9520 ca        1 FOO      0.296600
      3 C2A         1.4540    1.5160   -0.1340 c3        1 FOO     -0.104400
      4 C3          1.9710    0.2460    1.9490 ca        1 FOO      0.017800
      5 O3          3.2290    0.7720    1.7680 oh        1 FOO     -0.536100
      6 C4          1.6030   -0.6210    3.0080 ca        1 FOO     -0.118800
      7 C5          0.3010   -1.1450    2.9890 ca        1 FOO     -0.133600
      8 C6         -0.5750   -0.7580    1.9350 ca        1 FOO      0.354200
      9 C5A        -0.2620   -2.1020    4.0180 c3        1 FOO      0.254700
     10 O4P        -0.8270   -3.2110    3.4400 os        1 FOO     -0.565200
     11 P          -2.5460   -3.3650    3.6360 p5        1 FOO      1.318900
     12 O1P        -3.0430   -2.3470    2.6370 o         1 FOO     -0.929500
     13 O2P        -2.7900   -4.8080    3.2900 o         1 FOO     -0.929500
     14 O3P        -2.7350   -2.9820    5.0790 o         1 FOO     -0.929500
     15 N           2.7630    1.9530    5.2630 n2        1 FOO     -0.772100
     16 CA          3.6460    1.0970    4.8840 ce        1 FOO      0.393600
     17 C           5.1110    1.4640    4.5600 c         1 FOO      0.779300
     18 OXT         5.6760    0.9060    3.5790 o         1 FOO     -0.841800
     19 CB          3.3820   -0.3480    4.8070 ce        1 FOO     -0.222600
     20 O           5.6680    2.3300    5.2970 o         1 FOO     -0.841800
     21 C7          2.5520   -1.0470    4.0250 cf        1 FOO     -0.073200
     22 H6         -1.6130   -1.2210    1.9420 h4        1 FOO      0.141100
     23 H2A1        2.2380    1.0190   -0.7590 hc        1 FOO      0.018033
     24 H2A2        1.9070    2.4320    0.3210 hc        1 FOO      0.018033
     25 H2A3        0.6070    1.8190   -0.7950 hc        1 FOO      0.018033
     26 H3          3.7980    0.5210    2.5200 ho        1 FOO      0.457000
     27 H7          2.5560   -2.1510    4.1490 ha        1 FOO      0.122000
     28 H5A1        0.5770   -2.4230    4.7060 h1        1 FOO      0.012200
     29 H5A2       -1.0260   -1.5390    4.6360 h1        1 FOO      0.012200
     30 H           3.1270    2.8860    5.3070 hn        1 FOO      0.361400
     31 HB          4.0410   -0.9050    5.5000 ha        1 FOO      0.106000
@<TRIPOS>BOND
     1    1    2 ar  
     2    1    8 ar  
     3    2    3 1   
     4    2    4 ar  
     5    3   23 1   
     6    3   24 1   
     7    3   25 1   
     8    4    5 1   
     9    4    6 ar  
    10    5   26 1   
    11    6    7 ar  
    12    6   21 1   
    13    7    8 ar  
    14    7    9 1   
    15    8   22 1   
    16    9   10 1   
    17    9   28 1   
    18    9   29 1   
    19   10   11 1   
    20   11   12 1   
    21   11   13 1   
    22   11   14 1   
    23   15   16 2   
    24   15   30 1   
    25   16   17 1   
    26   16   19 1   
    27   17   18 1   
    28   17   20 1   
    29   19   21 2   
    30   19   31 1   
    31   21   27 1   
@<TRIPOS>SUBSTRUCTURE
     1 FOO         1 TEMP              0 ****  ****    0 ROOT
