@<TRIPOS>MOLECULE
FOO
   31    31     1     0     0
SMALL
bcc


@<TRIPOS>ATOM
      1 N1         -0.2540    0.2680    1.0130 nb        1 FOO     -0.682000
      2 C2          1.0710    0.5710    0.9380 ca        1 FOO      0.296600
      3 C2A         1.5830    1.3950   -0.1950 c3        1 FOO     -0.104400
      4 C3          2.0020    0.1140    1.9030 ca        1 FOO      0.017800
      5 O3          3.3150    0.4360    1.6500 oh        1 FOO     -0.536100
      6 C4          1.5570   -0.6600    3.0050 ca        1 FOO     -0.118800
      7 C5          0.1920   -0.9780    3.0600 ca        1 FOO     -0.133600
      8 C6         -0.6650   -0.4880    2.0330 ca        1 FOO      0.354200
      9 C5A        -0.4600   -1.8110    4.1430 c3        1 FOO      0.254700
     10 O4P        -1.2140   -2.8350    3.6260 os        1 FOO     -0.565200
     11 P          -2.9250   -2.7190    3.9010 p5        1 FOO      1.318900
     12 O1P        -3.3090   -1.6620    2.8940 o         1 FOO     -0.929500
     13 O2P        -3.4020   -4.1150    3.6140 o         1 FOO     -0.929500
     14 O3P        -2.9830   -2.2770    5.3390 o         1 FOO     -0.929500
     15 N           3.2020    1.7610    5.1230 n2        1 FOO     -0.772100
     16 CA          3.9260    0.7710    4.7330 ce        1 FOO      0.393600
     17 C           5.4120    0.9010    4.3340 c         1 FOO      0.779300
     18 OXT         5.8380    0.2380    3.3480 o         1 FOO     -0.841800
     19 CB          3.4420   -0.6180    4.7140 ce        1 FOO     -0.222600
     20 O           6.1300    1.6900    5.0180 o         1 FOO     -0.841800
     21 C7          2.4790   -1.2000    3.9920 cf        1 FOO     -0.073200
     22 H6         -1.7600   -0.7860    2.1010 h4        1 FOO      0.141100
     23 H2A1        2.2520    0.7690   -0.8370 hc        1 FOO      0.018033
     24 H2A2        2.1910    2.2420    0.2100 hc        1 FOO      0.018033
     25 H2A3        0.7610    1.8080   -0.8270 hc        1 FOO      0.018033
     26 H3          3.8740    0.1200    2.3850 ho        1 FOO      0.457000
     27 H7          2.3200   -2.2890    4.1510 ha        1 FOO      0.122000
     28 H5A1        0.3530   -2.2410    4.8030 h1        1 FOO      0.012200
     29 H5A2       -1.0990   -1.1230    4.7750 h1        1 FOO      0.012200
     30 H           3.7060    2.6280    5.1220 hn        1 FOO      0.361400
     31 HB          4.0420   -1.2520    5.3950 ha        1 FOO      0.106000
@<TRIPOS>BOND
     1    1    2 ar  
     2    1    8 ar  
     3    2    3 1   
     4    2    4 ar  
     5    3   23 1   
     6    3   24 1   
     7    3   25 1   
     8    4    5 1   
     9    4    6 ar  
    10    5   26 1   
    11    6    7 ar  
    12    6   21 1   
    13    7    8 ar  
    14    7    9 1   
    15    8   22 1   
    16    9   10 1   
    17    9   28 1   
    18    9   29 1   
    19   10   11 1   
    20   11   12 1   
    21   11   13 1   
    22   11   14 1   
    23   15   16 2   
    24   15   30 1   
    25   16   17 1   
    26   16   19 1   
    27   17   18 1   
    28   17   20 1   
    29   19   21 2   
    30   19   31 1   
    31   21   27 1   
@<TRIPOS>SUBSTRUCTURE
     1 FOO         1 TEMP              0 ****  ****    0 ROOT
