@<TRIPOS>MOLECULE
FOP
   15    14     1     0     0
SMALL
bcc


@<TRIPOS>ATOM
      1 N4         -0.0340    0.0780   -0.0520 n4        1 FOP     -0.831600
      2 C5          1.4520   -0.0170    0.0250 c3        1 FOP      0.078800
      3 C6          1.9450   -0.1460    1.4860 c3        1 FOP      0.132100
      4 C7          3.4530   -0.0350    1.5150 c3        1 FOP     -0.143100
      5 O7          1.2790    0.8600    2.2310 oh        1 FOP     -0.634800
      6 H41        -0.3480    0.8330    0.5760 hn        1 FOP      0.467467
      7 H42        -0.3320    0.2800   -1.0100 hn        1 FOP      0.467467
      8 H43        -0.4610   -0.7980    0.2620 hn        1 FOP      0.467467
      9 H51         1.8790    0.9200   -0.4350 hx        1 FOP      0.115700
     10 H52         1.7910   -0.9130   -0.5660 hx        1 FOP      0.115700
     11 H6          1.6130   -1.1390    1.9090 h1        1 FOP      0.080700
     12 H71         3.9160   -0.8220    0.8720 hc        1 FOP      0.076033
     13 H72         3.8180   -0.1770    2.5630 hc        1 FOP      0.076033
     14 H73         3.7870    0.9690    1.1560 hc        1 FOP      0.076033
     15 HO7         1.9290    1.3510    2.7530 ho        1 FOP      0.455000
@<TRIPOS>BOND
     1    1    2 1   
     2    1    6 1   
     3    1    7 1   
     4    1    8 1   
     5    2    3 1   
     6    2    9 1   
     7    2   10 1   
     8    3    4 1   
     9    3    5 1   
    10    3   11 1   
    11    4   12 1   
    12    4   13 1   
    13    4   14 1   
    14    5   15 1   
@<TRIPOS>SUBSTRUCTURE
     1 FOP         1 TEMP              0 ****  ****    0 ROOT
