@<TRIPOS>MOLECULE
FOP
   15    14     1     0     0
SMALL
bcc


@<TRIPOS>ATOM
      1 N4         -2.0010   -0.0520    0.0600 n4        1 FOP     -0.831600
      2 C5         -0.7330   -0.7940   -0.1880 c3        1 FOP      0.077800
      3 C6          0.5000   -0.0110    0.3210 c3        1 FOP      0.132100
      4 C7          1.7600   -0.7130   -0.1350 c3        1 FOP     -0.143100
      5 O7          0.3720    1.3150   -0.1670 oh        1 FOP     -0.634800
      6 H41        -2.1750    0.0260    1.0670 hn        1 FOP      0.467467
      7 H42        -1.9070    0.9000   -0.3250 hn        1 FOP      0.467467
      8 H43        -2.7890   -0.5270   -0.3860 hn        1 FOP      0.467467
      9 H51        -0.6440   -0.9570   -1.3010 hx        1 FOP      0.115200
     10 H52        -0.7860   -1.7910    0.3330 hx        1 FOP      0.115200
     11 H6          0.4680    0.0530    1.4470 h1        1 FOP      0.081700
     12 H71         2.6540   -0.1760    0.2700 hc        1 FOP      0.076033
     13 H72         1.7800   -1.7640    0.2420 hc        1 FOP      0.076033
     14 H73         1.8290   -0.7260   -1.2510 hc        1 FOP      0.076033
     15 HO7         1.1950    1.5750   -0.6030 ho        1 FOP      0.455000
@<TRIPOS>BOND
     1    1    2 1   
     2    1    6 1   
     3    1    7 1   
     4    1    8 1   
     5    2    3 1   
     6    2    9 1   
     7    2   10 1   
     8    3    4 1   
     9    3    5 1   
    10    3   11 1   
    11    4   12 1   
    12    4   13 1   
    13    4   14 1   
    14    5   15 1   
@<TRIPOS>SUBSTRUCTURE
     1 FOP         1 TEMP              0 ****  ****    0 ROOT
