@<TRIPOS>MOLECULE
FOP
   15    14     1     0     0
SMALL
bcc


@<TRIPOS>ATOM
      1 N4         -0.0320    0.0160   -0.0360 n4        1 FOP     -0.831600
      2 C5          1.4550   -0.0580    0.0340 c3        1 FOP      0.077800
      3 C6          1.9580   -0.1130    1.4960 c3        1 FOP      0.132100
      4 C7          3.4650    0.0150    1.5100 c3        1 FOP     -0.143100
      5 O7          1.2860    0.9190    2.1990 oh        1 FOP     -0.634800
      6 H41        -0.3390    0.1710   -1.0000 hn        1 FOP      0.467467
      7 H42        -0.3520    0.7950    0.5600 hn        1 FOP      0.467467
      8 H43        -0.4470   -0.8510    0.3190 hn        1 FOP      0.467467
      9 H51         1.8010   -0.9770   -0.5170 hx        1 FOP      0.115200
     10 H52         1.8680    0.8610   -0.4720 hx        1 FOP      0.115200
     11 H6          1.6400   -1.0890    1.9680 h1        1 FOP      0.081700
     12 H71         3.8380   -0.0720    2.5620 hc        1 FOP      0.076033
     13 H72         3.9330   -0.7970    0.9040 hc        1 FOP      0.076033
     14 H73         3.7860    1.0040    1.1010 hc        1 FOP      0.076033
     15 HO7         1.9350    1.4530    2.6780 ho        1 FOP      0.455000
@<TRIPOS>BOND
     1    1    2 1   
     2    1    6 1   
     3    1    7 1   
     4    1    8 1   
     5    2    3 1   
     6    2    9 1   
     7    2   10 1   
     8    3    4 1   
     9    3    5 1   
    10    3   11 1   
    11    4   12 1   
    12    4   13 1   
    13    4   14 1   
    14    5   15 1   
@<TRIPOS>SUBSTRUCTURE
     1 FOP         1 TEMP              0 ****  ****    0 ROOT
