@<TRIPOS>MOLECULE
FOP
   15    14     1     0     0
SMALL
bcc


@<TRIPOS>ATOM
      1 N4         -1.6260    0.1630   -0.9470 n4        1 FOP     -0.831600
      2 C5         -0.1880    0.0650   -0.8800 c3        1 FOP      0.077800
      3 C6          0.2330    0.0700    0.5500 c3        1 FOP      0.132100
      4 C7          1.5310   -0.7380    0.7130 c3        1 FOP     -0.143100
      5 O7          0.4460    1.3820    0.9640 oh        1 FOP     -0.634800
      6 H41        -2.0070   -0.5840   -0.5500 hn        1 FOP      0.467467
      7 H42        -1.9040    0.9260   -0.5000 hn        1 FOP      0.467467
      8 H43        -1.8890    0.2110   -1.8290 hn        1 FOP      0.467467
      9 H51         0.2170    0.8300   -1.3430 hx        1 FOP      0.115200
     10 H52         0.1000   -0.7530   -1.3000 hx        1 FOP      0.115200
     11 H6         -0.4500   -0.3200    1.0810 h1        1 FOP      0.081700
     12 H71         2.1970   -0.4040    0.1020 hc        1 FOP      0.076033
     13 H72         1.3540   -1.6880    0.5170 hc        1 FOP      0.076033
     14 H73         1.8580   -0.6490    1.6360 hc        1 FOP      0.076033
     15 HO7         0.1280    1.4870    1.7850 ho        1 FOP      0.455000
@<TRIPOS>BOND
     1    1    2 1   
     2    1    6 1   
     3    1    7 1   
     4    1    8 1   
     5    2    3 1   
     6    2    9 1   
     7    2   10 1   
     8    3    4 1   
     9    3    5 1   
    10    3   11 1   
    11    4   12 1   
    12    4   13 1   
    13    4   14 1   
    14    5   15 1   
@<TRIPOS>SUBSTRUCTURE
     1 FOP         1 TEMP              0 ****  ****    0 ROOT
