@<TRIPOS>MOLECULE
FOP
   15    14     1     0     0
SMALL
bcc


@<TRIPOS>ATOM
      1 N4         -0.0300    0.0210   -0.0410 nz        1 FOP     -0.831600
      2 C5          1.4560   -0.0700    0.0360 c3        1 FOP      0.077800
      3 C6          1.9540   -0.1050    1.5000 c3        1 FOP      0.132100
      4 C7          3.4620    0.0060    1.5170 c3        1 FOP     -0.143100
      5 O7          1.2920    0.9490    2.1820 oh        1 FOP     -0.634800
      6 H41        -0.3320    0.1610   -1.0090 hn        1 FOP      0.467467
      7 H42        -0.3420    0.8150    0.5380 hn        1 FOP      0.467467
      8 H43        -0.4570   -0.8330    0.3300 hn        1 FOP      0.467467
      9 H51         1.7920   -1.0030   -0.4970 hx        1 FOP      0.115700
     10 H52         1.8820    0.8340   -0.4860 hx        1 FOP      0.115700
     11 H6          1.6220   -1.0670    1.9890 h1        1 FOP      0.080700
     12 H71         3.8310   -0.0680    2.5710 hc        1 FOP      0.076033
     13 H72         3.9220   -0.8230    0.9260 hc        1 FOP      0.076033
     14 H73         3.7960    0.9840    1.0910 hc        1 FOP      0.076033
     15 HO7         1.9460    1.4780    2.6600 ho        1 FOP      0.455000
@<TRIPOS>BOND
     1    1    2 1   
     2    1    6 1   
     3    1    7 1   
     4    1    8 1   
     5    2    3 1   
     6    2    9 1   
     7    2   10 1   
     8    3    4 1   
     9    3    5 1   
    10    3   11 1   
    11    4   12 1   
    12    4   13 1   
    13    4   14 1   
    14    5   15 1   
@<TRIPOS>SUBSTRUCTURE
     1 FOP         1 TEMP              0 ****  ****    0 ROOT
