@<TRIPOS>MOLECULE
FOQ
   31    30     1     0     0
SMALL
bcc


@<TRIPOS>ATOM
      1 CH3         0.7700   -1.6730   -0.5560 c3        1 FOQ     -0.261000
      2 O2          2.7170   -1.0370   -2.3540 oh        1 FOQ     -0.241000
      3 N1          2.6600   -0.2160   -1.3140 n         1 FOQ     -0.179000
      4 C1          1.7260   -0.5410   -0.3000 c2        1 FOQ      0.271000
      5 O1          1.6380    0.1650    0.7260 o         1 FOQ     -0.391000
      6 C2          3.9350    0.4020   -0.9380 c3        1 FOQ     -0.061000
      7 C3          4.9930   -0.4940   -0.2840 c3        1 FOQ     -0.080000
      8 C4          6.3060    0.1710   -0.2870 c2        1 FOQ     -0.450000
      9 PA1         1.9030   -5.2550   -2.8940 p3        1 FOQ      2.382000
     10 OP1         2.2410   -4.0060   -2.1820 o         1 FOQ     -1.124667
     11 OP2         2.7970   -5.8040   -3.9270 o         1 FOQ     -1.124667
     12 OP3         0.6520   -5.9600   -2.5640 o         1 FOQ     -1.124667
     13 CG          6.8700    0.8570    0.7530 c2        1 FOQ      0.110000
     14 CD1         8.1890    1.4310    0.6380 c2        1 FOQ     -0.324000
     15 CD2         6.2400    1.0770    2.0300 c2        1 FOQ     -0.324000
     16 CE1         8.7470    2.1120    1.7040 c2        1 FOQ     -0.054500
     17 CE2         6.9050    1.7760    3.0200 c2        1 FOQ     -0.054500
     18 NZ          8.1510    2.3080    2.9070 n2        1 FOQ     -0.331000
     19 H1          1.3360   -2.6350   -0.6880 hc        1 FOQ      0.114667
     20 H2          0.0640   -1.7640    0.3020 hc        1 FOQ      0.114667
     21 H3          0.1970   -1.4890   -1.4960 hc        1 FOQ      0.114667
     22 H4          2.9530   -1.9500   -2.0620 ho        1 FOQ      0.240000
     23 H5          3.6790    1.2400   -0.2340 h1        1 FOQ      0.098500
     24 H6          4.3620    0.8320   -1.8860 h1        1 FOQ      0.098500
     25 H7          4.6610   -0.7510    0.7560 hc        1 FOQ      0.059500
     26 H8          5.0600   -1.4600   -0.8590 hc        1 FOQ      0.059500
     27 H9          6.8670    0.0800   -1.2260 ha        1 FOQ      0.083000
     28 H12         8.7340    1.3140   -0.3040 ha        1 FOQ      0.101000
     29 H13         5.2300    0.6910    2.1990 ha        1 FOQ      0.101000
     30 H14         9.7580    2.5490    1.6150 h4        1 FOQ      0.087000
     31 H15         6.4230    1.9430    3.9990 h4        1 FOQ      0.087000
@<TRIPOS>BOND
     1    1    4 1   
     2    1   19 1   
     3    1   20 1   
     4    1   21 1   
     5    2    3 1   
     6    2   22 1   
     7    3    4 1   
     8    3    6 1   
     9    4    5 1   
    10    6    7 1   
    11    6   23 1   
    12    6   24 1   
    13    7    8 1   
    14    7   25 1   
    15    7   26 1   
    16    8   13 1   
    17    8   27 1   
    18    9   10 1   
    19    9   11 1   
    20    9   12 1   
    21   13   14 1   
    22   13   15 1   
    23   14   16 1   
    24   14   28 1   
    25   15   17 1   
    26   15   29 1   
    27   16   18 1   
    28   16   30 1   
    29   17   18 1   
    30   17   31 1   
@<TRIPOS>SUBSTRUCTURE
     1 FOQ         1 TEMP              0 ****  ****    0 ROOT
