@<TRIPOS>MOLECULE
FOQ
   31    28     1     0     0
SMALL
bcc


@<TRIPOS>ATOM
      1 CH3        -4.5530   -0.4040   -2.1740 c3        1 FOQ     -0.263000
      2 O2         -2.0070   -1.6070   -1.5210 oh        1 FOQ     -0.272000
      3 N1         -2.1730   -0.2670   -1.2990 n         1 FOQ     -0.159000
      4 C1         -3.4600    0.3170   -1.4150 c2        1 FOQ      0.266000
      5 O1         -3.6830    1.4000   -0.9130 o         1 FOQ     -0.388000
      6 C2         -1.0480    0.5460   -0.9870 c3        1 FOQ     -0.046000
      7 C3         -0.3100   -0.0460    0.1940 c3        1 FOQ     -0.076000
      8 C4          1.1750   -0.0610   -0.0960 c3        1 FOQ     -0.443000
      9 PA1         1.7160   -1.7690   -0.3920 p3        1 FOQ      2.384000
     10 OP1         1.0210   -2.6930    0.5800 o         1 FOQ     -1.128500
     11 OP2         1.3660   -2.1690   -1.8050 o         1 FOQ     -1.128500
     12 OP3         3.2100   -1.8640   -0.1970 os        1 FOQ     -1.118000
     13 CG          1.9250    0.5080    1.0880 c2        1 FOQ      0.103000
     14 CD1         2.6130    1.6800    0.9610 c2        1 FOQ     -0.328000
     15 CD2         1.9560   -0.1750    2.2690 c1        1 FOQ     -0.319000
     16 CE1         3.3410    2.1750    2.0320 c1        1 FOQ     -0.054000
     17 CE2         2.6840    0.3220    3.3380 c1        1 FOQ     -0.053000
     18 NZ          3.3710    1.4920    3.2100 n1        1 FOQ     -0.332000
     19 H1         -4.3180   -0.4440   -3.1240 hc        1 FOQ      0.113667
     20 H2         -4.6490   -1.3140   -1.8220 hc        1 FOQ      0.113667
     21 H3         -5.3990    0.0790   -2.0660 hc        1 FOQ      0.113667
     22 H4         -1.8470   -1.7460   -2.3850 ho        1 FOQ      0.269000
     23 H5         -0.4490    0.5850   -1.7600 h1        1 FOQ      0.094000
     24 H6         -1.3510    1.4500   -0.7620 h1        1 FOQ      0.094000
     25 H7         -0.4810    0.4960    0.9900 hc        1 FOQ      0.055500
     26 H8         -0.6220   -0.9600    0.3480 hc        1 FOQ      0.055500
     27 H9          1.3570    0.4800   -0.8870 hc        1 FOQ      0.084000
     28 H12         2.6150    2.1550    0.1080 ha        1 FOQ      0.091000
     29 H13         1.4640   -1.0140    2.3610 ha        1 FOQ      0.103000
     30 H14         3.8330    3.0130    1.9410 ha        1 FOQ      0.084000
     31 H15         2.7020   -0.1640    4.1850 ha        1 FOQ      0.088000
@<TRIPOS>BOND
     1    1    4 1   
     2    1   19 1   
     3    1   20 1   
     4    1   21 1   
     5    2    3 1   
     6    2   22 1   
     7    3    4 1   
     8    3    6 1   
     9    4    5 1   
    10    6    7 1   
    11    6   23 1   
    12    6   24 1   
    13    7    8 1   
    14    7   25 1   
    15    7   26 1   
    16    8    9 1   
    17    8   13 1   
    18    8   27 1   
    19    9   10 1   
    20    9   11 1   
    21   13   14 1   
    22   13   15 1   
    23   14   16 1   
    24   14   28 1   
    25   15   29 1   
    26   16   30 1   
    27   17   18 1   
    28   17   31 1   
@<TRIPOS>SUBSTRUCTURE
     1 FOQ         1 TEMP              0 ****  ****    0 ROOT
