@<TRIPOS>MOLECULE
FOQ
   31    30     1     0     0
SMALL
bcc


@<TRIPOS>ATOM
      1 CH3         3.7290    1.0480    1.2230 c3        1 FOQ     -0.298000
      2 O2          3.7200    0.6970   -1.5110 oh        1 FOQ     -0.269000
      3 N1          3.3510   -0.4000   -0.8550 n         1 FOQ     -0.125000
      4 C1          3.6350   -0.3040    0.5770 c2        1 FOQ      0.260000
      5 O1          3.8290   -1.3510    1.2160 o         1 FOQ     -0.345000
      6 C2          1.9310   -0.7650   -1.0840 c3        1 FOQ     -0.115000
      7 C3          0.9240    0.2140   -0.4680 c3        1 FOQ     -0.136000
      8 C4         -0.4740   -0.0220   -0.8420 c2        1 FOQ     -0.566000
      9 PA1        -0.5830    2.2880    0.3070 p3        1 FOQ      2.464000
     10 OP1        -0.3670    2.9040   -1.0230 o         1 FOQ     -1.158333
     11 OP2        -1.9390    2.2430    0.8860 o         1 FOQ     -1.158333
     12 OP3         0.5920    2.2580    1.2200 o         1 FOQ     -1.158333
     13 CG         -1.1820   -1.1630   -0.5160 c2        1 FOQ      0.149000
     14 CD1        -2.4860   -1.4130   -1.0670 c2        1 FOQ     -0.301500
     15 CD2        -0.7020   -2.1880    0.3650 c2        1 FOQ     -0.301500
     16 CE1        -3.1560   -2.5860   -0.7630 c2        1 FOQ     -0.063000
     17 CE2        -1.4670   -3.3230    0.5930 c2        1 FOQ     -0.063000
     18 NZ         -2.6810   -3.5690    0.0450 n2        1 FOQ     -0.314000
     19 H1          2.6920    1.5020    1.2730 hc        1 FOQ      0.125000
     20 H2          4.1270    0.9450    2.2600 hc        1 FOQ      0.125000
     21 H3          4.3930    1.7280    0.6390 hc        1 FOQ      0.125000
     22 H4          3.0790    1.4250   -1.3590 ho        1 FOQ      0.200000
     23 H5          1.7850   -0.8140   -2.1960 h1        1 FOQ      0.105000
     24 H6          1.7950   -1.7910   -0.6490 h1        1 FOQ      0.105000
     25 H7          1.0370    0.1740    0.6530 hc        1 FOQ      0.092500
     26 H8          1.2200    1.2490   -0.8110 hc        1 FOQ      0.092500
     27 H9         -0.8950    0.6570   -1.5970 ha        1 FOQ      0.129000
     28 H12        -2.9410   -0.6520   -1.7100 ha        1 FOQ      0.111000
     29 H13         0.2600   -2.0520    0.8710 ha        1 FOQ      0.111000
     30 H14        -4.1560   -2.7810   -1.1880 h4        1 FOQ      0.089500
     31 H15        -1.0940   -4.1140    1.2680 h4        1 FOQ      0.089500
@<TRIPOS>BOND
     1    1    4 1   
     2    1   19 1   
     3    1   20 1   
     4    1   21 1   
     5    2    3 1   
     6    2   22 1   
     7    3    4 1   
     8    3    6 1   
     9    4    5 1   
    10    6    7 1   
    11    6   23 1   
    12    6   24 1   
    13    7    8 1   
    14    7   25 1   
    15    7   26 1   
    16    8   13 1   
    17    8   27 1   
    18    9   10 1   
    19    9   11 1   
    20    9   12 1   
    21   13   14 1   
    22   13   15 1   
    23   14   16 1   
    24   14   28 1   
    25   15   17 1   
    26   15   29 1   
    27   16   18 1   
    28   16   30 1   
    29   17   18 1   
    30   17   31 1   
@<TRIPOS>SUBSTRUCTURE
     1 FOQ         1 TEMP              0 ****  ****    0 ROOT
