@<TRIPOS>MOLECULE
FOR
    4     3     1     0     0
SMALL
bcc


@<TRIPOS>ATOM
      1 C           0.5860    0.0000    0.0010 c         1 FOR      0.562700
      2 O          -0.6410   -0.0000   -0.0010 o         1 FOR     -0.515100
      3 H1          1.1780    0.9390    0.0020 h4        1 FOR     -0.023800
      4 H2          1.1780   -0.9390    0.0020 h4        1 FOR     -0.023800
@<TRIPOS>BOND
     1    1    2 2   
     2    1    3 1   
     3    1    4 1   
@<TRIPOS>SUBSTRUCTURE
     1 FOR         1 TEMP              0 ****  ****    0 ROOT
