@<TRIPOS>MOLECULE
FOS
   26    26     1     0     0
SMALL
bcc


@<TRIPOS>ATOM
      1 C1         -0.4430   -0.0510   -3.2510 ca        1 FOS     -0.060300
      2 C2          0.8810    0.3980   -3.1810 ca        1 FOS     -0.121000
      3 C3          1.5960    0.6500   -4.3520 ca        1 FOS     -0.144000
      4 C4          0.9990    0.4570   -5.5970 ca        1 FOS     -0.158000
      5 C5         -0.3200    0.0100   -5.6710 ca        1 FOS     -0.144000
      6 C6         -1.0380   -0.2430   -4.5050 ca        1 FOS     -0.121000
      7 C          -1.2490   -0.3330   -2.0240 c3        1 FOS      0.199700
      8 O          -0.4410   -0.1000   -0.8800 os        1 FOS     -0.487900
      9 C'         -1.1100   -0.2510    0.3650 c         1 FOS      0.700100
     10 O'         -2.2990   -0.6440    0.2580 o         1 FOS     -0.695000
     11 N          -0.3430    0.1050    1.4080 n         1 FOS     -0.430900
     12 CM         -0.6920   -0.0820    2.7700 c3        1 FOS     -0.108200
     13 P           0.8160    0.3920    3.7970 p5        1 FOS      1.192700
     14 O1P         0.9930   -0.8300    4.6560 o         1 FOS     -0.930833
     15 O2P         0.3500    1.6380    4.4970 o         1 FOS     -0.930833
     16 O3P         1.8930    0.6040    2.7490 o         1 FOS     -0.930833
     17 H2          1.3450    0.5470   -2.1900 ha        1 FOS      0.152000
     18 H3          2.6350    1.0020   -4.2890 ha        1 FOS      0.114000
     19 H4          1.5640    0.6570   -6.5170 ha        1 FOS      0.106000
     20 H5         -0.7940   -0.1430   -6.6510 ha        1 FOS      0.114000
     21 H6         -2.0780   -0.5960   -4.5620 ha        1 FOS      0.152000
     22 H1         -1.5970   -1.4020   -2.0230 h1        1 FOS      0.045200
     23 H2A        -2.1540    0.3330   -1.9910 h1        1 FOS      0.045200
     24 HN          0.6390    0.3460    1.2650 hn        1 FOS      0.379500
     25 HM1        -0.9480   -1.1400    3.0030 h1        1 FOS      0.031200
     26 HM2        -1.5400    0.5770    3.0660 h1        1 FOS      0.031200
@<TRIPOS>BOND
     1    1    2 ar  
     2    1    6 ar  
     3    1    7 1   
     4    2    3 ar  
     5    2   17 1   
     6    3    4 ar  
     7    3   18 1   
     8    4    5 ar  
     9    4   19 1   
    10    5    6 ar  
    11    5   20 1   
    12    6   21 1   
    13    7    8 1   
    14    7   22 1   
    15    7   23 1   
    16    8    9 1   
    17    9   10 2   
    18    9   11 1   
    19   11   12 1   
    20   11   24 1   
    21   12   13 1   
    22   12   25 1   
    23   12   26 1   
    24   13   14 1   
    25   13   15 1   
    26   13   16 1   
@<TRIPOS>SUBSTRUCTURE
     1 FOS         1 TEMP              0 ****  ****    0 ROOT
