@<TRIPOS>MOLECULE
FOS
   27    27     1     0     0
SMALL
bcc


@<TRIPOS>ATOM
      1 C1         -0.3840   -0.1240    0.3310 ca        1 FOS     -0.078300
      2 C2          0.9090   -0.6190    0.1380 ca        1 FOS     -0.118500
      3 C3          1.8910   -0.4020    1.1050 ca        1 FOS     -0.136000
      4 C4          1.5890    0.3080    2.2660 ca        1 FOS     -0.141000
      5 C5          0.2990    0.8030    2.4610 ca        1 FOS     -0.136000
      6 C6         -0.6850    0.5890    1.4990 ca        1 FOS     -0.118500
      7 C          -1.4730   -0.3220   -0.6710 c3        1 FOS      0.195700
      8 O          -0.9670   -1.1160   -1.7490 os        1 FOS     -0.461900
      9 C'         -1.9020   -1.4100   -2.7450 c         1 FOS      0.725100
     10 O'         -3.0270   -0.8860   -2.6290 o         1 FOS     -0.622000
     11 N          -1.4270   -2.3030   -3.6640 n         1 FOS     -0.477900
     12 CM         -2.0980   -2.5030   -4.9090 c3        1 FOS     -0.150200
     13 P          -1.1310   -3.4880   -5.9630 p5        1 FOS      1.324600
     14 O1P        -1.5550   -3.2130   -7.3490 o         1 FOS     -0.853000
     15 O2P        -1.6110   -4.9930   -5.5260 oh        1 FOS     -0.790400
     16 O3P         0.2760   -3.4710   -5.4820 o         1 FOS     -0.853000
     17 H2          1.1450   -1.1810   -0.7800 ha        1 FOS      0.145500
     18 H3          2.9060   -0.7940    0.9480 ha        1 FOS      0.124000
     19 H4          2.3640    0.4780    3.0260 ha        1 FOS      0.120000
     20 H5          0.0580    1.3630    3.3760 ha        1 FOS      0.124000
     21 H6         -1.7020    0.9780    1.6530 ha        1 FOS      0.145500
     22 H1         -1.8200    0.6660   -1.0800 h1        1 FOS      0.057200
     23 H2A        -2.3510   -0.8490   -0.2080 h1        1 FOS      0.057200
     24 HN         -0.9140   -5.4760   -5.0950 ho        1 FOS      0.427000
     25 HM1        -3.0870   -2.9990   -4.7180 h1        1 FOS      0.068700
     26 HM2        -2.3330   -1.5280   -5.4150 h1        1 FOS      0.068700
     27 HN3        -0.4390   -2.4960   -3.6750 hn        1 FOS      0.353500
@<TRIPOS>BOND
     1    1    2 ar  
     2    1    6 ar  
     3    1    7 1   
     4    2    3 ar  
     5    2   17 1   
     6    3    4 ar  
     7    3   18 1   
     8    4    5 ar  
     9    4   19 1   
    10    5    6 ar  
    11    5   20 1   
    12    6   21 1   
    13    7    8 1   
    14    7   22 1   
    15    7   23 1   
    16    8    9 1   
    17    9   10 2   
    18    9   11 1   
    19   11   12 1   
    20   11   27 1   
    21   12   13 1   
    22   12   25 1   
    23   12   26 1   
    24   13   14 1   
    25   13   15 1   
    26   13   16 1   
    27   15   24 1   
@<TRIPOS>SUBSTRUCTURE
     1 FOS         1 TEMP              0 ****  ****    0 ROOT
