@<TRIPOS>MOLECULE
FOS
   27    27     1     0     0
SMALL
bcc


@<TRIPOS>ATOM
      1 C1         -0.4070   -0.1340    0.3390 ca        1 FOS     -0.078300
      2 C2          0.9010   -0.5830    0.1310 ca        1 FOS     -0.118500
      3 C3          1.8850   -0.3360    1.0880 ca        1 FOS     -0.136000
      4 C4          1.5710    0.3590    2.2550 ca        1 FOS     -0.141000
      5 C5          0.2670    0.8080    2.4660 ca        1 FOS     -0.136000
      6 C6         -0.7190    0.5640    1.5140 ca        1 FOS     -0.118500
      7 C          -1.5000   -0.3670   -0.6510 c3        1 FOS      0.195700
      8 O          -0.9750   -1.1280   -1.7440 os        1 FOS     -0.461900
      9 C'         -1.9110   -1.4520   -2.7300 c         1 FOS      0.725100
     10 O'         -3.0550   -0.9780   -2.5930 o         1 FOS     -0.622000
     11 N          -1.4110   -2.3140   -3.6650 ns        1 FOS     -0.477900
     12 CM         -2.0900   -2.5300   -4.9030 c3        1 FOS     -0.150200
     13 P          -1.0960   -3.4620   -5.9800 p5        1 FOS      1.324600
     14 O1P        -1.5520   -3.1920   -7.3570 o         1 FOS     -0.853000
     15 O2P        -1.5040   -4.9910   -5.5520 oh        1 FOS     -0.790400
     16 O3P         0.3150   -3.3880   -5.5190 o         1 FOS     -0.853000
     17 H2          1.1450   -1.1330   -0.7930 ha        1 FOS      0.145500
     18 H3          2.9110   -0.6920    0.9170 ha        1 FOS      0.124000
     19 H4          2.3490    0.5530    3.0070 ha        1 FOS      0.120000
     20 H5          0.0170    1.3570    3.3850 ha        1 FOS      0.124000
     21 H6         -1.7470    0.9170    1.6800 ha        1 FOS      0.145500
     22 H1         -2.3490   -0.9350   -0.1820 h1        1 FOS      0.057200
     23 H2A        -1.8930    0.6100   -1.0440 h1        1 FOS      0.057200
     24 HN         -0.7810   -5.4470   -5.1360 ho        1 FOS      0.427000
     25 HM1        -3.0540   -3.0710   -4.7030 h1        1 FOS      0.068700
     26 HM2        -2.3750   -1.5610   -5.3940 h1        1 FOS      0.068700
     27 HN3        -0.4150   -2.4630   -3.6920 hn        1 FOS      0.353500
@<TRIPOS>BOND
     1    1    2 ar  
     2    1    6 ar  
     3    1    7 1   
     4    2    3 ar  
     5    2   17 1   
     6    3    4 ar  
     7    3   18 1   
     8    4    5 ar  
     9    4   19 1   
    10    5    6 ar  
    11    5   20 1   
    12    6   21 1   
    13    7    8 1   
    14    7   22 1   
    15    7   23 1   
    16    8    9 1   
    17    9   10 2   
    18    9   11 1   
    19   11   12 1   
    20   11   27 1   
    21   12   13 1   
    22   12   25 1   
    23   12   26 1   
    24   13   14 1   
    25   13   15 1   
    26   13   16 1   
    27   15   24 1   
@<TRIPOS>SUBSTRUCTURE
     1 FOS         1 TEMP              0 ****  ****    0 ROOT
