@<TRIPOS>MOLECULE
FOS
   26    23     1     0     0
SMALL
bcc


@<TRIPOS>ATOM
      1 C1          1.3090    1.3060    1.1960 c1        1 FOS     -0.026100
      2 C2          2.7010    1.4400    1.2290 c1        1 FOS     -0.090750
      3 C3          3.3690    1.3930    2.4320 c1        1 FOS     -0.090750
      4 C4          2.6630    1.2130    3.6120 c1        1 FOS     -0.090750
      5 C5          1.2830    1.0800    3.5820 c1        1 FOS     -0.090750
      6 C6          0.6070    1.1270    2.3680 c1        1 FOS     -0.037500
      7 C           0.5810    1.3750   -0.1140 c3        1 FOS      0.165500
      8 O           0.2740    0.0650   -0.5540 os        1 FOS     -0.487900
      9 C'         -0.7550    0.0130   -1.5180 c         1 FOS      0.700100
     10 O'         -1.1440    1.0280   -2.0370 o         1 FOS     -0.695000
     11 N          -1.2750   -1.2500   -1.9410 n         1 FOS     -0.430900
     12 CM         -2.5740   -1.3180   -2.5850 c3        1 FOS     -0.108200
     13 P          -3.0280   -3.0530   -2.8560 p5        1 FOS      1.192700
     14 O1P        -2.1300   -3.6450   -3.9050 o         1 FOS     -0.930833
     15 O2P        -4.4660   -3.1320   -3.3200 o         1 FOS     -0.930833
     16 O3P        -2.8720   -3.8190   -1.5710 o         1 FOS     -0.930833
     17 H2          3.1980    1.5670    0.4000 ha        1 FOS      0.056250
     18 H3          4.3470    1.4880    2.4550 ha        1 FOS      0.056250
     19 H4          3.1410    1.1810    4.4710 ha        1 FOS      0.056250
     20 H5          0.7900    0.9550    4.4060 ha        1 FOS      0.056250
     21 H6         -0.3720    1.0330    2.3460 ha        1 FOS      0.125500
     22 H1         -0.2480    1.8850   -0.0000 h1        1 FOS      0.045200
     23 H2A         1.1470    1.8180   -0.7780 h1        1 FOS      0.045200
     24 HN         -0.7630   -2.0050   -1.8630 hn        1 FOS      0.379500
     25 HM1        -3.2470   -0.8890   -2.0110 h1        1 FOS      0.031200
     26 HM2        -2.5360   -0.8550   -3.4430 h1        1 FOS      0.031200
@<TRIPOS>BOND
     1    1    6 3   
     2    1    7 1   
     3    2    3 3   
     4    2   17 1   
     5    3   18 1   
     6    4    5 3   
     7    4   19 1   
     8    5   20 1   
     9    6   21 1   
    10    7    8 1   
    11    7   22 1   
    12    7   23 1   
    13    8    9 1   
    14    9   10 2   
    15    9   11 1   
    16   11   12 1   
    17   11   24 1   
    18   12   13 1   
    19   12   25 1   
    20   12   26 1   
    21   13   14 1   
    22   13   15 1   
    23   13   16 1   
@<TRIPOS>SUBSTRUCTURE
     1 FOS         1 TEMP              0 ****  ****    0 ROOT
