@<TRIPOS>MOLECULE
FOS
   27    27     1     0     0
SMALL
bcc


@<TRIPOS>ATOM
      1 C1         -0.3520   -0.0940    0.3080 ca        1 FOS     -0.078300
      2 C2          0.9150   -0.6620    0.1470 ca        1 FOS     -0.118500
      3 C3          1.8960   -0.4680    1.1200 ca        1 FOS     -0.136000
      4 C4          1.6200    0.2930    2.2540 ca        1 FOS     -0.141000
      5 C5          0.3560    0.8620    2.4180 ca        1 FOS     -0.136000
      6 C6         -0.6270    0.6700    1.4500 ca        1 FOS     -0.118500
      7 C          -1.4390   -0.2660   -0.7000 c3        1 FOS      0.195700
      8 O          -0.9580   -1.1030   -1.7570 os        1 FOS     -0.461900
      9 C'         -1.8970   -1.3800   -2.7540 c         1 FOS      0.725100
     10 O'         -3.0000   -0.8080   -2.6590 o         1 FOS     -0.622000
     11 N          -1.4510   -2.3110   -3.6510 n         1 FOS     -0.477900
     12 CM         -2.1200   -2.5100   -4.8970 c3        1 FOS     -0.150200
     13 P          -1.1860   -3.5560   -5.9210 p5        1 FOS      1.324600
     14 O1P        -1.5880   -3.2930   -7.3170 o         1 FOS     -0.853000
     15 O2P        -1.7310   -5.0300   -5.4570 oh        1 FOS     -0.790400
     16 O3P         0.2160   -3.5850   -5.4290 o         1 FOS     -0.853000
     17 H2          1.1310   -1.2640   -0.7510 ha        1 FOS      0.145500
     18 H3          2.8910   -0.9180    0.9870 ha        1 FOS      0.124000
     19 H4          2.3940    0.4460    3.0190 ha        1 FOS      0.120000
     20 H5          0.1350    1.4620    3.3120 ha        1 FOS      0.124000
     21 H6         -1.6230    1.1180    1.5790 ha        1 FOS      0.145500
     22 H1         -2.3430   -0.7460   -0.2350 h1        1 FOS      0.057200
     23 H2A        -1.7400    0.7270   -1.1330 h1        1 FOS      0.057200
     24 HN         -1.0580   -5.5320   -5.0100 ho        1 FOS      0.427000
     25 HM1        -3.1300   -2.9610   -4.7040 h1        1 FOS      0.068700
     26 HM2        -2.3120   -1.5370   -5.4250 h1        1 FOS      0.068700
     27 HN3        -0.4720   -2.5440   -3.6490 hn        1 FOS      0.353500
@<TRIPOS>BOND
     1    1    2 ar  
     2    1    6 ar  
     3    1    7 1   
     4    2    3 ar  
     5    2   17 1   
     6    3    4 ar  
     7    3   18 1   
     8    4    5 ar  
     9    4   19 1   
    10    5    6 ar  
    11    5   20 1   
    12    6   21 1   
    13    7    8 1   
    14    7   22 1   
    15    7   23 1   
    16    8    9 1   
    17    9   10 2   
    18    9   11 1   
    19   11   12 1   
    20   11   27 1   
    21   12   13 1   
    22   12   25 1   
    23   12   26 1   
    24   13   14 1   
    25   13   15 1   
    26   13   16 1   
    27   15   24 1   
@<TRIPOS>SUBSTRUCTURE
     1 FOS         1 TEMP              0 ****  ****    0 ROOT
