@<TRIPOS>MOLECULE
FOT
   14    14     1     0     0
SMALL
bcc


@<TRIPOS>ATOM
      1 C2         -0.0120   -0.0490   -0.0540 c         1 FOT      0.790500
      2 C6         -0.1000    0.0460    2.4090 c         1 FOT      0.694700
      3 C5          1.3790    0.0420    2.3970 cc        1 FOT     -0.063700
      4 O2         -0.6220   -0.0780   -1.1520 o         1 FOT     -0.692500
      5 N3          1.3830   -0.0750    0.0120 n         1 FOT     -0.429100
      6 N1         -0.7290   -0.0070    1.1540 n         1 FOT     -0.589500
      7 O6         -0.8190    0.0950    3.4250 o         1 FOT     -0.649500
      8 F5          1.9810    0.0950    3.6050 f         1 FOT     -0.133500
      9 C4          2.0780   -0.0130    1.2090 cd        1 FOT     -0.001600
     10 C41         3.6380   -0.0070    1.0990 c         1 FOT      0.925800
     11 O42         4.2730   -0.4120    2.0950 o         1 FOT     -0.780800
     12 O41         4.1040    0.3920    0.0010 o         1 FOT     -0.780800
     13 HN3         1.9130   -0.0220   -0.8360 hn        1 FOT      0.375500
     14 HN1        -1.7220   -0.0040    1.0980 hn        1 FOT      0.334500
@<TRIPOS>BOND
     1    1    4 2   
     2    1    5 1   
     3    1    6 1   
     4    2    3 1   
     5    2    6 1   
     6    2    7 2   
     7    3    8 1   
     8    3    9 2   
     9    5    9 1   
    10    5   13 1   
    11    6   14 1   
    12    9   10 1   
    13   10   11 1   
    14   10   12 1   
@<TRIPOS>SUBSTRUCTURE
     1 FOT         1 TEMP              0 ****  ****    0 ROOT
