@<TRIPOS>MOLECULE
FOT
   14    12     1     0     0
SMALL
bcc


@<TRIPOS>ATOM
      1 C2         -1.2650   -0.0240   -1.2710 c1        1 FOT      0.357000
      2 C6         -1.3030   -0.0240    1.2190 c1        1 FOT      0.357000
      3 C5          0.1670   -0.0240    1.2290 c1        1 FOT     -0.107000
      4 O2         -1.8650   -0.1140   -2.3230 o         1 FOT     -0.395500
      5 N3          0.1970   -0.0240   -1.2710 n2        1 FOT     -0.273000
      6 N1         -1.9960   -0.0240   -0.0070 n3        1 FOT     -0.369000
      7 O6         -1.9180   -0.0930    2.2650 o         1 FOT     -0.395500
      8 F5          0.8290    0.0860    2.3880 f         1 FOT     -0.071000
      9 C4          0.9060   -0.0240   -0.0420 c2        1 FOT      0.015000
     10 C41         2.4160    0.0770   -0.0400 c2        1 FOT      0.376000
     11 O42         2.9710    1.2070   -0.0450 o         1 FOT     -0.515500
     12 O41         3.1170   -0.9690   -0.0310 o         1 FOT     -0.515500
     13 HN3         0.6530   -0.0290   -2.0610 hn        1 FOT      0.289000
     14 HN1        -2.9080   -0.0240   -0.0110 hn        1 FOT      0.248000
@<TRIPOS>BOND
     1    1    4 1   
     2    1    6 1   
     3    2    6 1   
     4    2    7 1   
     5    3    8 1   
     6    3    9 1   
     7    5    9 1   
     8    5   13 1   
     9    6   14 1   
    10    9   10 1   
    11   10   11 1   
    12   10   12 1   
@<TRIPOS>SUBSTRUCTURE
     1 FOT         1 TEMP              0 ****  ****    0 ROOT
