@<TRIPOS>MOLECULE
FOT
   14    14     1     0     0
SMALL
bcc


@<TRIPOS>ATOM
      1 C2         -1.5220   -1.3430    0.0510 c         1 FOT      0.790500
      2 C6         -1.4620    1.1210   -0.0430 c         1 FOT      0.694700
      3 C5          0.0130    1.0210   -0.0420 cc        1 FOT     -0.063700
      4 O2         -2.1960   -2.4020    0.0800 o         1 FOT     -0.692500
      5 N3         -0.1250   -1.3610    0.0730 n         1 FOT     -0.429100
      6 N1         -2.1650   -0.0950    0.0110 n         1 FOT     -0.589500
      7 O6         -2.1200    2.1780   -0.0890 o         1 FOT     -0.649500
      8 F5          0.6860    2.1900   -0.0950 f         1 FOT     -0.133500
      9 C4          0.6390   -0.2070    0.0110 cd        1 FOT     -0.001600
     10 C41         2.1900   -0.4100    0.0020 c         1 FOT      0.925800
     11 O42         2.8850    0.5460    0.4070 o         1 FOT     -0.780800
     12 O41         2.5890   -1.5340   -0.3990 o         1 FOT     -0.780800
     13 HN3         0.3520   -2.2390    0.0190 hn        1 FOT      0.375500
     14 HN1        -3.1600   -0.0910    0.0090 hn        1 FOT      0.334500
@<TRIPOS>BOND
     1    1    4 2   
     2    1    5 1   
     3    1    6 1   
     4    2    3 1   
     5    2    6 1   
     6    2    7 2   
     7    3    8 1   
     8    3    9 2   
     9    5    9 1   
    10    5   13 1   
    11    6   14 1   
    12    9   10 1   
    13   10   11 1   
    14   10   12 1   
@<TRIPOS>SUBSTRUCTURE
     1 FOT         1 TEMP              0 ****  ****    0 ROOT
