@<TRIPOS>MOLECULE
FOT
   14    14     1     0     0
SMALL
bcc


@<TRIPOS>ATOM
      1 C2         -0.0140    0.0020   -0.0550 c         1 FOT      0.790500
      2 C6         -0.0990    0.0040    2.4090 c         1 FOT      0.692700
      3 C5          1.3800    0.0010    2.3970 cc        1 FOT     -0.059700
      4 O2         -0.6260    0.0030   -1.1530 o         1 FOT     -0.693500
      5 N3          1.3800   -0.0020    0.0090 n         1 FOT     -0.430100
      6 N1         -0.7300    0.0050    1.1540 n         1 FOT     -0.589500
      7 O6         -0.8170    0.0070    3.4280 o         1 FOT     -0.649500
      8 F5          1.9810    0.0010    3.6060 f         1 FOT     -0.130500
      9 C4          2.0780   -0.0020    1.2060 cd        1 FOT     -0.005600
     10 C41         3.6380   -0.0060    1.0990 c         1 FOT      0.924800
     11 O42         4.2750   -0.0130    2.1730 o         1 FOT     -0.781300
     12 O41         4.1090   -0.0010   -0.0690 o         1 FOT     -0.781300
     13 HN3         1.9130   -0.0020   -0.8390 hn        1 FOT      0.378500
     14 HN1        -1.7230    0.0070    1.0990 hn        1 FOT      0.334500
@<TRIPOS>BOND
     1    1    4 2   
     2    1    5 1   
     3    1    6 1   
     4    2    3 1   
     5    2    6 1   
     6    2    7 2   
     7    3    8 1   
     8    3    9 2   
     9    5    9 1   
    10    5   13 1   
    11    6   14 1   
    12    9   10 1   
    13   10   11 1   
    14   10   12 1   
@<TRIPOS>SUBSTRUCTURE
     1 FOT         1 TEMP              0 ****  ****    0 ROOT
