@<TRIPOS>MOLECULE
FOU
   17    16     1     0     0
SMALL
bcc


@<TRIPOS>ATOM
      1 O1         -1.5060    1.2990   -0.2650 oh        1 FOU     -0.333000
      2 C1         -0.0610    1.2990   -0.2650 c3        1 FOU      0.106000
      3 N1          0.3970    1.2990    1.1030 n3        1 FOU     -0.379000
      4 C2          0.1990   -0.0120    1.8260 c1        1 FOU      0.381000
      5 O2         -0.6530   -0.1090    2.6890 o         1 FOU     -0.379000
      6 N2          0.5440   -1.2120    0.9600 n2        1 FOU     -0.376000
      7 C3          0.0810   -1.1140   -0.4050 c3        1 FOU      0.119000
      8 O3          0.6810   -2.1910   -1.1730 oh        1 FOU     -0.331000
      9 C4          0.4060    0.1480   -1.0490 c3        1 FOU      0.066000
     10 F1         -0.2040    0.1830   -2.3180 f         1 FOU     -0.140000
     11 H1         -1.8020    2.1080   -0.4780 ho        1 FOU      0.210000
     12 H2          0.2510    2.1170   -0.6970 h2        1 FOU      0.111000
     13 H3          0.4260    2.0790    1.5750 hn        1 FOU      0.236000
     14 H4          0.6650   -2.0310    1.3430 hn        1 FOU      0.240000
     15 H5         -0.8880   -1.2270   -0.4140 h2        1 FOU      0.122000
     16 H6          0.0910   -2.8470   -1.2730 ho        1 FOU      0.216000
     17 H7          1.3740    0.2100   -1.1590 h1        1 FOU      0.132000
@<TRIPOS>BOND
     1    1    2 1   
     2    1   11 1   
     3    2    3 1   
     4    2    9 1   
     5    2   12 1   
     6    3    4 1   
     7    3   13 1   
     8    4    5 1   
     9    6    7 1   
    10    6   14 1   
    11    7    8 1   
    12    7    9 1   
    13    7   15 1   
    14    8   16 1   
    15    9   10 1   
    16    9   17 1   
@<TRIPOS>SUBSTRUCTURE
     1 FOU         1 TEMP              0 ****  ****    0 ROOT
