@<TRIPOS>MOLECULE
FOU
   17    17     1     0     0
SMALL
bcc


@<TRIPOS>ATOM
      1 O1          0.4250   -1.8540    0.9910 oh        1 FOU     -0.604800
      2 C1          0.1670   -1.3810   -0.3290 c3        1 FOU      0.261000
      3 N1         -1.2180   -1.0510   -0.5640 n         1 FOU     -0.568400
      4 C2         -1.7500    0.1550   -0.0620 c         1 FOU      0.790500
      5 O2         -2.9840    0.3580   -0.1110 o         1 FOU     -0.654500
      6 N2         -0.9000    1.1210    0.4950 n         1 FOU     -0.568400
      7 C3          0.5430    1.0280    0.4240 c3        1 FOU      0.261000
      8 O3          1.0970    2.2210   -0.1210 oh        1 FOU     -0.604800
      9 C4          1.0700   -0.1170   -0.5010 c3        1 FOU      0.176600
     10 F1          2.3770   -0.4180   -0.1850 f         1 FOU     -0.211300
     11 H1          0.0860   -2.7540    1.0610 ho        1 FOU      0.414000
     12 H2          0.4740   -2.1650   -1.0840 h2        1 FOU      0.077200
     13 H3         -1.8660   -1.8060   -0.6030 hn        1 FOU      0.324500
     14 H4         -1.2780    2.0450    0.5100 hn        1 FOU      0.324500
     15 H5          0.9300    0.8490    1.4740 h2        1 FOU      0.077200
     16 H6          1.1920    2.8590    0.5980 ho        1 FOU      0.414000
     17 H7          1.0260    0.2240   -1.5760 h1        1 FOU      0.092700
@<TRIPOS>BOND
     1    1    2 1   
     2    1   11 1   
     3    2    3 1   
     4    2    9 1   
     5    2   12 1   
     6    3    4 1   
     7    3   13 1   
     8    4    5 2   
     9    4    6 1   
    10    6    7 1   
    11    6   14 1   
    12    7    8 1   
    13    7    9 1   
    14    7   15 1   
    15    8   16 1   
    16    9   10 1   
    17    9   17 1   
@<TRIPOS>SUBSTRUCTURE
     1 FOU         1 TEMP              0 ****  ****    0 ROOT
