@<TRIPOS>MOLECULE
FOU
   17    17     1     0     0
SMALL
bcc


@<TRIPOS>ATOM
      1 O1          0.0640    0.0570   -0.0180 oh        1 FOU     -0.604800
      2 C1          1.4890    0.0310   -0.0370 c3        1 FOU      0.261000
      3 N1          2.0850    0.0430    1.2770 ns        1 FOU     -0.568400
      4 C2          2.1050   -1.1350    2.0520 c         1 FOU      0.790500
      5 O2          2.4580   -1.0830    3.2530 o         1 FOU     -0.654500
      6 N2          1.7250   -2.3590    1.4840 ns        1 FOU     -0.568400
      7 C3          1.4770   -2.5180    0.0660 c3        1 FOU      0.261000
      8 O3          2.2510   -3.5920   -0.4610 oh        1 FOU     -0.604800
      9 C4          1.8710   -1.2780   -0.8010 c3        1 FOU      0.176600
     10 F1          1.2250   -1.3260   -2.0170 f         1 FOU     -0.211300
     11 H1         -0.2180    0.9480    0.2200 ho        1 FOU      0.414000
     12 H2          1.8820    0.9240   -0.6080 h2        1 FOU      0.077200
     13 H3          2.0100    0.8850    1.8030 hn        1 FOU      0.324500
     14 H4          2.0780   -3.1630    1.9590 hn        1 FOU      0.324500
     15 H5          0.3700   -2.7170   -0.0710 h2        1 FOU      0.077200
     16 H6          1.7660   -4.4120   -0.3030 ho        1 FOU      0.414000
     17 H7          2.9840   -1.2890   -0.9810 h1        1 FOU      0.092700
@<TRIPOS>BOND
     1    1    2 1   
     2    1   11 1   
     3    2    3 1   
     4    2    9 1   
     5    2   12 1   
     6    3    4 1   
     7    3   13 1   
     8    4    5 2   
     9    4    6 1   
    10    6    7 1   
    11    6   14 1   
    12    7    8 1   
    13    7    9 1   
    14    7   15 1   
    15    8   16 1   
    16    9   10 1   
    17    9   17 1   
@<TRIPOS>SUBSTRUCTURE
     1 FOU         1 TEMP              0 ****  ****    0 ROOT
