@<TRIPOS>MOLECULE
FOU
   17    17     1     0     0
SMALL
bcc


@<TRIPOS>ATOM
      1 O1          0.0790    0.0710   -0.0260 oh        1 FOU     -0.604800
      2 C1          1.5040    0.0310   -0.0390 c3        1 FOU      0.261000
      3 N1          2.0940    0.0400    1.2770 n         1 FOU     -0.568400
      4 C2          2.1000   -1.1370    2.0540 c         1 FOU      0.790500
      5 O2          2.4480   -1.0880    3.2550 o         1 FOU     -0.654500
      6 N2          1.7100   -2.3590    1.4850 n         1 FOU     -0.568400
      7 C3          1.4660   -2.5180    0.0660 c3        1 FOU      0.261000
      8 O3          2.2310   -3.5990   -0.4560 oh        1 FOU     -0.604800
      9 C4          1.8750   -1.2830   -0.8010 c3        1 FOU      0.176600
     10 F1          1.2330   -1.3260   -2.0190 f         1 FOU     -0.211300
     11 H1         -0.1960    0.9650    0.2100 ho        1 FOU      0.414000
     12 H2          1.9070    0.9200   -0.6110 h2        1 FOU      0.077200
     13 H3          2.0260    0.8830    1.8010 hn        1 FOU      0.324500
     14 H4          2.0530   -3.1650    1.9630 hn        1 FOU      0.324500
     15 H5          0.3580   -2.7050   -0.0740 h2        1 FOU      0.077200
     16 H6          1.7390   -4.4140   -0.2980 ho        1 FOU      0.414000
     17 H7          2.9890   -1.3050   -0.9760 h1        1 FOU      0.092700
@<TRIPOS>BOND
     1    1    2 1   
     2    1   11 1   
     3    2    3 1   
     4    2    9 1   
     5    2   12 1   
     6    3    4 1   
     7    3   13 1   
     8    4    5 2   
     9    4    6 1   
    10    6    7 1   
    11    6   14 1   
    12    7    8 1   
    13    7    9 1   
    14    7   15 1   
    15    8   16 1   
    16    9   10 1   
    17    9   17 1   
@<TRIPOS>SUBSTRUCTURE
     1 FOU         1 TEMP              0 ****  ****    0 ROOT
