@<TRIPOS>MOLECULE
FOX
   40    41     1     0     0
SMALL
bcc


@<TRIPOS>ATOM
      1 O1P         2.8740   -4.1860   -1.5120 o         1 FOX     -0.840000
      2 P           1.5850   -3.9960   -0.8150 p5        1 FOX      1.425800
      3 O2P         0.7910   -2.8810   -1.7090 oh        1 FOX     -0.784400
      4 O5'         1.8710   -3.0310    0.4970 os        1 FOX     -0.578200
      5 C5'         0.7650   -2.7420    1.2940 c3        1 FOX      0.206400
      6 C4'         0.7760   -1.2730    1.7200 c3        1 FOX     -0.078700
      7 C6'         0.5150   -0.3060    0.5710 c3        1 FOX     -0.094400
      8 C3'        -0.3220   -1.0130    2.7670 c3        1 FOX      0.137100
      9 O3'         0.3210   -0.8150    4.0230 oh        1 FOX     -0.612800
     10 C2'        -1.1220    0.2100    2.3140 c3        1 FOX     -0.117400
     11 C1'        -0.3370    0.8480    1.1450 c3        1 FOX      0.185500
     12 N9         -1.2190    1.5060    0.1870 nh        1 FOX     -0.823900
     13 C4         -0.9800    2.9120   -0.0040 ca        1 FOX      0.622200
     14 N3         -0.4300    3.3060   -1.2010 nb        1 FOX     -0.881000
     15 C2         -0.3030    4.6630   -1.3990 ca        1 FOX      0.853900
     16 N2          0.3500    5.0650   -2.6140 nh        1 FOX     -0.903500
     17 N1         -0.6890    5.6570   -0.5500 nb        1 FOX     -0.894000
     18 C6         -1.2270    5.2850    0.6720 ca        1 FOX      0.963300
     19 O6         -1.5610    6.1790    1.5020 o         1 FOX     -0.823000
     20 C5         -1.4010    3.8450    0.9720 ca        1 FOX     -0.368000
     21 N7         -2.0180    3.4300    2.1670 n         1 FOX     -0.421100
     22 C8         -1.9210    4.0940    3.3550 c         1 FOX      0.647900
     23 O8         -2.4630    3.6320    4.3900 o         1 FOX     -0.714100
     24 O3P         0.6400   -5.0520   -0.4020 o         1 FOX     -0.840000
     25 H5'1       -0.1850   -2.9890    0.7410 h1        1 FOX      0.020700
     26 H5'2        0.8130   -3.3700    2.2320 h1        1 FOX      0.020700
     27 H4'         1.7790   -1.0520    2.1770 hc        1 FOX      0.072700
     28 H6'1        1.4760    0.0880    0.1600 hc        1 FOX      0.060700
     29 H6'2       -0.0110   -0.8380   -0.2640 hc        1 FOX      0.060700
     30 H3'        -1.0020   -1.9050    2.8710 h1        1 FOX      0.029700
     31 H3T        -0.3060   -0.3530    4.5900 ho        1 FOX      0.389000
     32 H2'1       -1.2410    0.9450    3.1480 hc        1 FOX      0.049700
     33 H2'2       -2.1430   -0.1080    1.9880 hc        1 FOX      0.049700
     34 H1'         0.3680    1.6080    1.5950 h1        1 FOX      0.055700
     35 H9         -1.2080    1.0130   -0.6890 hn        1 FOX      0.383800
     36 H3          1.3850   -2.3310   -2.2060 ho        1 FOX      0.425000
     37 H21         0.2410    4.3880   -3.3410 hn        1 FOX      0.366800
     38 H22         0.0510    5.9690   -2.9160 hn        1 FOX      0.366800
     39 H7         -2.5140    2.5660    2.1360 hn        1 FOX      0.305500
     40 H8         -1.3640    5.0580    3.3360 h5        1 FOX      0.073200
@<TRIPOS>BOND
     1    1    2 1   
     2    2    3 1   
     3    2    4 1   
     4    2   24 1   
     5    3   36 1   
     6    4    5 1   
     7    5    6 1   
     8    5   25 1   
     9    5   26 1   
    10    6    7 1   
    11    6    8 1   
    12    6   27 1   
    13    7   11 1   
    14    7   28 1   
    15    7   29 1   
    16    8    9 1   
    17    8   10 1   
    18    8   30 1   
    19    9   31 1   
    20   10   11 1   
    21   10   32 1   
    22   10   33 1   
    23   11   12 1   
    24   11   34 1   
    25   12   13 1   
    26   12   35 1   
    27   13   14 ar  
    28   13   20 ar  
    29   14   15 ar  
    30   15   16 1   
    31   15   17 ar  
    32   16   37 1   
    33   16   38 1   
    34   17   18 ar  
    35   18   19 1   
    36   18   20 ar  
    37   20   21 1   
    38   21   22 1   
    39   21   39 1   
    40   22   23 2   
    41   22   40 1   
@<TRIPOS>SUBSTRUCTURE
     1 FOX         1 TEMP              0 ****  ****    0 ROOT
