@<TRIPOS>MOLECULE
FOZ
   55    52     1     0     0
SMALL
bcc


@<TRIPOS>ATOM
      1 C           1.5060   -1.9820    3.1550 c1        1 FOZ      0.333000
      2 N           1.8890   -1.2760    4.3420 n2        1 FOZ     -0.295000
      3 O           1.6640   -3.1910    3.0880 o         1 FOZ     -0.417000
      4 N1         -1.6720    3.5260   -5.6110 n3        1 FOZ     -0.281000
      5 O1          0.6890   -3.5890    6.4420 o         1 FOZ     -0.580500
      6 C2         -0.6490    2.9940   -6.6410 c2        1 FOZ      0.254000
      7 O2          0.2040   -1.4910    6.7020 o         1 FOZ     -0.580500
      8 N3         -0.1790    1.4210   -6.6020 n1        1 FOZ     -0.354000
      9 O3         -2.6740   -2.0860   -4.8970 o         1 FOZ     -0.345000
     10 C4         -1.0010    0.3960   -5.8420 c1        1 FOZ      0.346000
     11 O4         -0.9230   -0.7860   -6.1370 o         1 FOZ     -0.388000
     12 N5         -2.8290    0.0120   -3.8560 n         1 FOZ     -0.218000
     13 C6         -2.8680    0.3200   -3.3330 c3        1 FOZ     -0.023000
     14 C7         -3.4520    1.8610   -3.5070 c3        1 FOZ     -0.055000
     15 N8         -2.7940    2.6630   -4.7690 n3        1 FOZ     -0.303000
     16 C9         -1.1000    0.4380   -2.5750 c3        1 FOZ     -0.078000
     17 CA          2.2210   -2.0040    5.5340 c3        1 FOZ     -0.063000
     18 CB          3.0850   -1.1300    6.4450 c3        1 FOZ     -0.164000
     19 CD          4.4850   -1.3570    8.4640 c1        1 FOZ      0.335000
     20 CG          4.1090   -2.0070    7.1820 c2        1 FOZ     -0.196000
     21 CT          0.9620   -2.3830    6.2540 c2        1 FOZ      0.339000
     22 N10        -1.1960    0.8210   -1.1710 n3        1 FOZ     -0.261000
     23 C11         0.7810   -1.2260    2.0010 c2        1 FOZ     -0.116000
     24 C12        -0.6100   -1.1570    1.9820 c2        1 FOZ     -0.085000
     25 C13        -1.2630   -0.5390    0.9180 c1        1 FOZ     -0.201000
     26 C14        -0.5170    0.0160   -0.1400 c2        1 FOZ      0.013000
     27 C15         0.8660   -0.0530   -0.1210 c1        1 FOZ     -0.159000
     28 C16         1.5230   -0.6760    0.9540 c1        1 FOZ     -0.060000
     29 C4A        -1.9960    0.8340   -4.9150 c2        1 FOZ     -0.284000
     30 C8A        -2.3860    2.6250   -4.8090 c2        1 FOZ      0.218000
     31 NA2        -0.1990    3.8510   -7.7180 n3        1 FOZ     -0.333000
     32 OE1         5.1340   -0.2890    8.4560 o         1 FOZ     -0.632000
     33 OE2         4.1540   -1.8840    9.5580 o         1 FOZ     -0.632000
     34 CP1        -2.7520   -1.4600   -3.8380 c2        1 FOZ      0.264000
     35 H6         -3.4510   -0.1750   -2.7120 h1        1 FOZ      0.077000
     36 HA          2.7120   -2.8070    5.2960 h1        1 FOZ      0.107000
     37 HN          1.8480   -0.3740    4.3620 hn        1 FOZ      0.226000
     38 HN10       -1.6140    1.5870   -0.9400 hn        1 FOZ      0.155000
     39 H12        -1.1360   -1.5490    2.7260 ha        1 FOZ      0.144000
     40 H13        -2.2470   -0.4130    0.9490 DU        1 FOZ      0.114000
     41 H15         1.3900    0.4070   -0.8160 ha        1 FOZ      0.135000
     42 H16         2.5050   -0.7260    0.9680 ha        1 FOZ      0.156000
     43 HNA2       -0.2890    4.7680   -7.6470 hn        1 FOZ      0.226000
     44 HNAA        0.1770    3.4830   -8.4730 hn        1 FOZ      0.226000
     45 H7         -3.2630    2.3660   -2.6770 h1        1 FOZ      0.083500
     46 H7A        -4.4170    1.8160   -3.6330 h1        1 FOZ      0.083500
     47 H9         -0.6530   -0.4310   -2.6480 h1        1 FOZ      0.112500
     48 H9A        -0.5880    1.1040   -3.0550 h1        1 FOZ      0.112500
     49 HB          3.5600   -0.4580    5.9010 hc        1 FOZ      0.093000
     50 HBA         2.5120   -0.6740    7.1020 hc        1 FOZ      0.093000
     51 HG          4.9100   -2.1180    6.6220 ha        1 FOZ      0.079000
     52 HGA         3.7130   -2.8880    7.3670 ha        1 FOZ      0.079000
     53 HN1        -1.8730    4.4050   -5.5880 hn        1 FOZ      0.337000
     54 HN8        -3.2210    3.4040   -5.1150 hn        1 FOZ      0.281000
     55 HP1        -2.7840   -1.9400   -2.9880 h5        1 FOZ      0.081000
@<TRIPOS>BOND
     1    1    3 1   
     2    1   23 1   
     3    2   17 1   
     4    2   37 1   
     5    4    6 1   
     6    4   30 1   
     7    4   53 1   
     8    5   21 1   
     9    6    8 1   
    10    6   31 1   
    11    7   21 1   
    12    9   34 1   
    13   10   11 1   
    14   10   29 1   
    15   12   13 1   
    16   12   29 1   
    17   12   34 1   
    18   13   14 1   
    19   13   16 1   
    20   13   35 1   
    21   14   15 1   
    22   14   45 1   
    23   14   46 1   
    24   15   30 1   
    25   15   54 1   
    26   16   22 1   
    27   16   47 1   
    28   16   48 1   
    29   17   18 1   
    30   17   21 1   
    31   17   36 1   
    32   18   20 1   
    33   18   49 1   
    34   18   50 1   
    35   19   32 1   
    36   19   33 1   
    37   20   51 1   
    38   20   52 1   
    39   22   26 1   
    40   22   38 1   
    41   23   24 1   
    42   23   28 1   
    43   24   25 1   
    44   24   39 1   
    45   25   26 1   
    46   26   27 1   
    47   27   41 1   
    48   28   42 1   
    49   29   30 1   
    50   31   43 1   
    51   31   44 1   
    52   34   55 1   
@<TRIPOS>SUBSTRUCTURE
     1 FOZ         1 TEMP              0 ****  ****    0 ROOT
