@<TRIPOS>MOLECULE
FOZ
   55    57     1     0     0
SMALL
bcc


@<TRIPOS>ATOM
      1 C          -2.9410    1.0200   -0.7000 c         1 FOZ      0.662700
      2 N          -3.5230    0.4970    0.4260 n         1 FOZ     -0.493900
      3 O          -3.4500    0.9460   -1.8440 o         1 FOZ     -0.656100
      4 N1          1.9360   -2.1230   -0.4880 na        1 FOZ     -0.712000
      5 O1         -5.0270   -0.1350    2.7240 o         1 FOZ     -0.846800
      6 C2          2.5600   -2.2740   -1.7410 cc        1 FOZ      0.849100
      7 O2         -6.5690   -1.0600    1.3980 o         1 FOZ     -0.846800
      8 N3          3.6490   -1.5790   -2.1250 nd        1 FOZ     -0.781100
      9 O3          5.9600    1.3790    2.0470 o         1 FOZ     -0.671100
     10 C4          4.2210   -0.6570   -1.2460 c         1 FOZ      0.725700
     11 O4          5.2520   -0.0320   -1.5990 o         1 FOZ     -0.662100
     12 N5          4.1120    0.4890    1.0000 n         1 FOZ     -0.343000
     13 C6          3.2000    1.1040    1.9470 c3        1 FOZ      0.057700
     14 C7          1.8960    0.3110    2.2230 c3        1 FOZ      0.174800
     15 N8          1.8160   -1.0190    1.6590 nh        1 FOZ     -0.718000
     16 C9          2.8660    2.5840    1.5910 c3        1 FOZ      0.169800
     17 CA         -4.4060   -0.6520    0.4130 c3        1 FOZ     -0.034300
     18 CB         -3.6430   -1.9870    0.5120 c3        1 FOZ     -0.088400
     19 CD         -1.3490   -2.5300   -0.4860 c         1 FOZ      0.916600
     20 CG         -2.8310   -2.3190   -0.7200 c3        1 FOZ     -0.166400
     21 CT         -5.4130   -0.6020    1.6160 c         1 FOZ      0.918600
     22 N10         2.3650    2.8880    0.2740 nh        1 FOZ     -0.710600
     23 C11        -1.6260    1.7150   -0.5070 ca        1 FOZ     -0.150600
     24 C12        -0.6200    1.4670   -1.4480 ca        1 FOZ     -0.072500
     25 C13         0.6860    1.8740   -1.2090 ca        1 FOZ     -0.190500
     26 C14         1.0190    2.5460   -0.0090 ca        1 FOZ      0.115600
     27 C15        -0.0290    2.9070    0.8660 ca        1 FOZ     -0.190500
     28 C16        -1.3320    2.4840    0.6200 ca        1 FOZ     -0.072500
     29 C4A         3.5950   -0.4500    0.0780 cc        1 FOZ     -0.278600
     30 C8A         2.4400   -1.1840    0.4080 cd        1 FOZ      0.364000
     31 OE1        -0.7500   -2.1470    0.5710 o         1 FOZ     -0.900800
     32 OE2        -0.6530   -3.0860   -1.4040 o         1 FOZ     -0.900800
     33 H6          3.7580    1.1670    2.9350 h1        1 FOZ      0.066700
     34 HA         -4.9980   -0.6290   -0.5450 h1        1 FOZ      0.066700
     35 HN         -3.0490    0.6130    1.2970 hn        1 FOZ      0.311500
     36 HN10        2.9830    2.5390   -0.4370 hn        1 FOZ      0.394800
     37 H12        -0.8710    0.9050   -2.3620 ha        1 FOZ      0.148000
     38 H13         1.4690    1.6330   -1.9440 ha        1 FOZ      0.128000
     39 H15         0.1780    3.5030    1.7660 ha        1 FOZ      0.128000
     40 H16        -2.1270    2.7430    1.3370 ha        1 FOZ      0.148000
     41 HNA2        2.2710   -3.1530   -3.5440 hn        1 FOZ      0.435800
     42 HNAA        1.0830   -3.5290   -2.4120 hn        1 FOZ      0.435800
     43 H7          1.8080    0.1770    3.3390 h1        1 FOZ      0.053700
     44 H7A         1.0140    0.9330    1.8880 h1        1 FOZ      0.053700
     45 H9          2.1340    2.9490    2.3640 h1        1 FOZ      0.055700
     46 H9A         3.8240    3.1710    1.7050 h1        1 FOZ      0.055700
     47 HB         -2.9750   -1.9680    1.4140 hc        1 FOZ      0.054200
     48 HBA        -4.4160   -2.7810    0.6820 hc        1 FOZ      0.054200
     49 HG         -3.2320   -3.2510   -1.2000 hc        1 FOZ      0.043200
     50 HGA        -2.9200   -1.4990   -1.4830 hc        1 FOZ      0.043200
     51 HN1         1.0080   -2.5370   -0.3210 hn        1 FOZ      0.543800
     52 HN8         0.8810   -1.4050    1.7170 hn        1 FOZ      0.468800
     53 HP1         6.0970    0.0930    0.4170 h5        1 FOZ      0.074200
     54 NA2         2.0440   -3.2790   -2.5830 nh        1 FOZ     -0.893800
     55 CP1         5.4750    0.6430    1.1610 c         1 FOZ      0.663900
@<TRIPOS>BOND
     1    1    2 1   
     2    1    3 2   
     3    1   23 1   
     4    2   17 1   
     5    2   35 1   
     6    4    6 1   
     7    4   30 1   
     8    4   51 1   
     9    5   21 1   
    10    6    8 2   
    11    6   54 1   
    12    7   21 1   
    13    8   10 1   
    14    9   55 2   
    15   10   11 2   
    16   10   29 1   
    17   12   13 1   
    18   12   29 1   
    19   12   55 1   
    20   13   14 1   
    21   13   16 1   
    22   13   33 1   
    23   14   15 1   
    24   14   43 1   
    25   14   44 1   
    26   15   30 1   
    27   15   52 1   
    28   16   22 1   
    29   16   45 1   
    30   16   46 1   
    31   17   18 1   
    32   17   21 1   
    33   17   34 1   
    34   18   20 1   
    35   18   47 1   
    36   18   48 1   
    37   19   20 1   
    38   19   31 1   
    39   19   32 1   
    40   20   49 1   
    41   20   50 1   
    42   22   26 1   
    43   22   36 1   
    44   23   24 ar  
    45   23   28 ar  
    46   24   25 ar  
    47   24   37 1   
    48   25   26 ar  
    49   25   38 1   
    50   26   27 ar  
    51   27   28 ar  
    52   27   39 1   
    53   28   40 1   
    54   29   30 2   
    55   41   54 1   
    56   42   54 1   
    57   53   55 1   
@<TRIPOS>SUBSTRUCTURE
     1 FOZ         1 TEMP              0 ****  ****    0 ROOT
