@<TRIPOS>MOLECULE
FP0
   46    49     1     0     0
SMALL
bcc


@<TRIPOS>ATOM
      1 C2         -1.0770   -0.6880   -1.0270 c3        1 FP0      0.141100
      2 C6          1.1290   -0.2010    0.7450 c3        1 FP0     -0.088000
      3 C5          0.0930   -1.3430    0.9400 c3        1 FP0     -0.016000
      4 C4         -1.2760   -0.7860    1.4160 c3        1 FP0     -0.088400
      5 C3         -2.0590   -0.4180    0.1430 c3        1 FP0      0.114100
      6 C11         0.5060    0.9010   -0.1470 c3        1 FP0      0.176300
      7 C10         1.5200    1.8460   -0.7090 c2        1 FP0     -0.174200
      8 C9          2.8350    1.5970   -0.7560 c2        1 FP0     -0.094400
      9 C8          3.4260    0.3300   -0.2480 c3        1 FP0     -0.047200
     10 C12        -0.2610   -1.8500   -0.4630 cx        1 FP0      0.032800
     11 C13         0.4150   -2.8970   -1.2620 cx        1 FP0      0.083400
     12 O4         -4.0910    0.5740   -1.2200 o         1 FP0     -0.539000
     13 C17        -3.4970    1.3870   -0.5110 c         1 FP0      0.638100
     14 C18        -3.7740    2.8400   -0.3340 c3        1 FP0     -0.150100
     15 O3         -2.4310    0.9600    0.2370 os        1 FP0     -0.434900
     16 O2         -0.8300   -3.1630   -0.6000 os        1 FP0     -0.395600
     17 O1         -0.2080    0.3990   -1.2940 os        1 FP0     -0.390600
     18 C14         0.5580   -2.4350    1.8720 c3        1 FP0     -0.090100
     19 C7          2.3880   -0.7350    0.0490 c3        1 FP0     -0.074400
     20 C15         1.5820    0.3930    2.0920 c3        1 FP0      0.134400
     21 O12         0.5840    1.0470    2.8460 oh        1 FP0     -0.595800
     22 C16         3.8060    2.5730   -1.3080 c3        1 FP0     -0.062900
     23 H2         -1.5930   -0.8950   -1.9980 h1        1 FP0      0.109700
     24 H4         -1.8290   -1.5830    1.9720 hc        1 FP0      0.077700
     25 H4A        -1.1610    0.0940    2.0920 hc        1 FP0      0.077700
     26 H3         -2.9750   -1.0540    0.0160 h1        1 FP0      0.091700
     27 H11        -0.2390    1.4830    0.4730 h1        1 FP0      0.057700
     28 H10         1.0940    2.7750   -1.1180 ha        1 FP0      0.133000
     29 H8          4.1440   -0.0730   -1.0140 hc        1 FP0      0.050700
     30 H8A         4.0330    0.5530    0.6720 hc        1 FP0      0.050700
     31 H13         0.3590   -2.8810   -2.3660 h1        1 FP0      0.080700
     32 H13A        1.2800   -3.4480   -0.8460 h1        1 FP0      0.080700
     33 H18        -3.2630    3.2370    0.5750 hc        1 FP0      0.076033
     34 H18A       -3.4010    3.3860   -1.2350 hc        1 FP0      0.076033
     35 H18B       -4.8770    2.9920   -0.2440 hc        1 FP0      0.076033
     36 H14         0.5590   -2.0690    2.9270 hc        1 FP0      0.047367
     37 H14A       -0.1380   -3.3080    1.7980 hc        1 FP0      0.047367
     38 H14B        1.5830   -2.7870    1.6090 hc        1 FP0      0.047367
     39 H7          2.8600   -1.5300    0.6820 hc        1 FP0      0.051700
     40 H7A         2.0840   -1.2000   -0.9260 hc        1 FP0      0.051700
     41 H15         1.9390   -0.4360    2.7620 h1        1 FP0      0.051700
     42 H15A        2.4280    1.1110    1.9070 h1        1 FP0      0.051700
     43 HO12        0.3560    1.8630    2.3850 ho        1 FP0      0.401000
     44 H16         3.3110    3.5380   -1.5760 hc        1 FP0      0.044700
     45 H16A        4.6110    2.7820   -0.5610 hc        1 FP0      0.044700
     46 H16B        4.2830    2.1540   -2.2290 hc        1 FP0      0.044700
@<TRIPOS>BOND
     1    1    5 1   
     2    1   10 1   
     3    1   17 1   
     4    1   23 1   
     5    2    3 1   
     6    2    6 1   
     7    2   19 1   
     8    2   20 1   
     9    3    4 1   
    10    3   10 1   
    11    3   18 1   
    12    4    5 1   
    13    4   24 1   
    14    4   25 1   
    15    5   15 1   
    16    5   26 1   
    17    6    7 1   
    18    6   17 1   
    19    6   27 1   
    20    7    8 2   
    21    7   28 1   
    22    8    9 1   
    23    8   22 1   
    24    9   19 1   
    25    9   29 1   
    26    9   30 1   
    27   10   11 1   
    28   10   16 1   
    29   11   16 1   
    30   11   31 1   
    31   11   32 1   
    32   12   13 2   
    33   13   14 1   
    34   13   15 1   
    35   14   33 1   
    36   14   34 1   
    37   14   35 1   
    38   18   36 1   
    39   18   37 1   
    40   18   38 1   
    41   19   39 1   
    42   19   40 1   
    43   20   21 1   
    44   20   41 1   
    45   20   42 1   
    46   21   43 1   
    47   22   44 1   
    48   22   45 1   
    49   22   46 1   
@<TRIPOS>SUBSTRUCTURE
     1 FP0         1 TEMP              0 ****  ****    0 ROOT
