@<TRIPOS>MOLECULE
FP0
   46    49     1     0     0
SMALL
bcc


@<TRIPOS>ATOM
      1 C2         -0.1130   -0.0030    0.3860 c3        1 FP0      0.141100
      2 C6          1.5670    1.4660    2.1920 c3        1 FP0     -0.088000
      3 C5          1.9070    0.0520    1.6450 c3        1 FP0     -0.016000
      4 C4          1.0160   -1.0360    2.3040 c3        1 FP0     -0.088400
      5 C3         -0.2660   -1.1160    1.4550 c3        1 FP0      0.114100
      6 C11         0.0400    1.6960    2.0870 c3        1 FP0      0.176300
      7 C10        -0.3490    3.1350    2.2220 c2        1 FP0     -0.174200
      8 C9          0.5030    4.1600    2.0890 c2        1 FP0     -0.094400
      9 C8          1.9460    3.9630    1.7850 c3        1 FP0     -0.047200
     10 C12         1.4040    0.0160    0.1980 cx        1 FP0      0.032800
     11 C13         2.1140    0.4240   -1.0360 cx        1 FP0      0.083400
     12 O4         -2.6920   -1.9650    0.8500 o         1 FP0     -0.539000
     13 C17        -2.6050   -1.3650    1.9220 c         1 FP0      0.638100
     14 C18        -3.6830   -1.0580    2.9030 c3        1 FP0     -0.150100
     15 O3         -1.3820   -0.8920    2.3210 os        1 FP0     -0.434900
     16 O2          1.9520   -0.9620   -0.7010 os        1 FP0     -0.395600
     17 O1         -0.5370    1.2720    0.8370 os        1 FP0     -0.390600
     18 C14         3.3630   -0.3210    1.7820 c3        1 FP0     -0.090100
     19 C7          2.2790    2.5450    1.3650 c3        1 FP0     -0.074400
     20 C15         2.0360    1.6410    3.6490 c3        1 FP0      0.134400
     21 O12         1.4090    0.8130    4.6040 oh        1 FP0     -0.595800
     22 C16         0.0740    5.5700    2.2470 c3        1 FP0     -0.062900
     23 H2         -0.7060   -0.1970   -0.5420 h1        1 FP0      0.109700
     24 H4          1.5440   -2.0210    2.2680 hc        1 FP0      0.077700
     25 H4A         0.7850   -0.8020    3.3700 hc        1 FP0      0.077700
     26 H3         -0.3690   -2.1110    0.9470 h1        1 FP0      0.091700
     27 H11        -0.4680    1.0980    2.9010 h1        1 FP0      0.057700
     28 H10        -1.4210    3.2970    2.4150 ha        1 FP0      0.133000
     29 H8          2.5520    4.2580    2.6850 hc        1 FP0      0.050700
     30 H8A         2.2440    4.6620    0.9550 hc        1 FP0      0.050700
     31 H13         3.1580    0.7870   -0.9870 h1        1 FP0      0.080700
     32 H13A        1.5470    0.7560   -1.9250 h1        1 FP0      0.080700
     33 H18        -4.3300   -1.9600    3.0270 hc        1 FP0      0.076033
     34 H18A       -3.2550   -0.7630    3.8900 hc        1 FP0      0.076033
     35 H18B       -4.3000   -0.2160    2.5030 hc        1 FP0      0.076033
     36 H14         3.6120   -0.5250    2.8510 hc        1 FP0      0.047367
     37 H14A        4.0300    0.4890    1.4020 hc        1 FP0      0.047367
     38 H14B        3.5680   -1.2460    1.1860 hc        1 FP0      0.047367
     39 H7          1.9770    2.4240    0.2900 hc        1 FP0      0.051700
     40 H7A         3.3880    2.4020    1.4320 hc        1 FP0      0.051700
     41 H15         3.1260    1.3740    3.7230 h1        1 FP0      0.051700
     42 H15A        1.8980    2.7160    3.9500 h1        1 FP0      0.051700
     43 HO12        0.4960    1.1130    4.6970 ho        1 FP0      0.401000
     44 H16         0.1810    6.1120    1.2740 hc        1 FP0      0.044700
     45 H16A        0.7130    6.0860    3.0060 hc        1 FP0      0.044700
     46 H16B       -0.9930    5.6410    2.5730 hc        1 FP0      0.044700
@<TRIPOS>BOND
     1    1    5 1   
     2    1   10 1   
     3    1   17 1   
     4    1   23 1   
     5    2    3 1   
     6    2    6 1   
     7    2   19 1   
     8    2   20 1   
     9    3    4 1   
    10    3   10 1   
    11    3   18 1   
    12    4    5 1   
    13    4   24 1   
    14    4   25 1   
    15    5   15 1   
    16    5   26 1   
    17    6    7 1   
    18    6   17 1   
    19    6   27 1   
    20    7    8 2   
    21    7   28 1   
    22    8    9 1   
    23    8   22 1   
    24    9   19 1   
    25    9   29 1   
    26    9   30 1   
    27   10   11 1   
    28   10   16 1   
    29   11   16 1   
    30   11   31 1   
    31   11   32 1   
    32   12   13 2   
    33   13   14 1   
    34   13   15 1   
    35   14   33 1   
    36   14   34 1   
    37   14   35 1   
    38   18   36 1   
    39   18   37 1   
    40   18   38 1   
    41   19   39 1   
    42   19   40 1   
    43   20   21 1   
    44   20   41 1   
    45   20   42 1   
    46   21   43 1   
    47   22   44 1   
    48   22   45 1   
    49   22   46 1   
@<TRIPOS>SUBSTRUCTURE
     1 FP0         1 TEMP              0 ****  ****    0 ROOT
