@<TRIPOS>MOLECULE
FP0
   46    49     1     0     0
SMALL
bcc


@<TRIPOS>ATOM
      1 C2         -0.1270   -0.0290    0.3710 c3        1 FP0      0.143100
      2 C6          1.5550    1.4310    2.2040 c3        1 FP0     -0.091000
      3 C5          1.9130    0.0480    1.5910 c3        1 FP0     -0.023000
      4 C4          1.0530   -1.0610    2.2570 c3        1 FP0     -0.086400
      5 C3         -0.2330   -1.1680    1.4180 c3        1 FP0      0.116100
      6 C11         0.0240    1.6570    2.0970 c3        1 FP0      0.175300
      7 C10        -0.3820    3.0970    2.1960 c2        1 FP0     -0.163200
      8 C9          0.4720    4.1290    2.1570 c2        1 FP0     -0.115400
      9 C8          1.9390    3.9270    2.0120 c3        1 FP0     -0.050200
     10 C12         1.3820    0.0450    0.1570 cx        1 FP0      0.034800
     11 C13         2.0480    0.5420   -1.0690 cx        1 FP0      0.083400
     12 O4         -2.6440   -2.0710    0.8310 o         1 FP0     -0.542000
     13 C17        -2.5600   -1.4840    1.9100 c         1 FP0      0.639100
     14 C18        -3.6310   -1.2160    2.9090 c3        1 FP0     -0.150100
     15 O3         -1.3430   -0.9890    2.3010 os        1 FP0     -0.430900
     16 O2          1.9540   -0.8640   -0.7960 os        1 FP0     -0.394600
     17 O1         -0.5760    1.2210    0.8590 os        1 FP0     -0.393600
     18 C14         3.3820   -0.2870    1.6730 c3        1 FP0     -0.087100
     19 C7          2.2750    2.5570    1.4590 c3        1 FP0     -0.076400
     20 C15         2.0130    1.4380    3.6820 c3        1 FP0      0.135400
     21 O12         1.0760    1.9680    4.5930 oh        1 FP0     -0.598800
     22 C16         0.0250    5.5370    2.2730 c3        1 FP0     -0.060900
     23 H2         -0.7320   -0.2190   -0.5500 h1        1 FP0      0.110700
     24 H4          0.8030   -0.8200    3.3190 hc        1 FP0      0.071200
     25 H4A         1.6010   -2.0340    2.2330 hc        1 FP0      0.071200
     26 H3         -0.3130   -2.1570    0.8930 h1        1 FP0      0.091700
     27 H11        -0.4700    1.0740    2.9320 h1        1 FP0      0.081700
     28 H10        -1.4690    3.2490    2.2810 ha        1 FP0      0.138000
     29 H8          2.4260    4.0690    3.0160 hc        1 FP0      0.051200
     30 H8A         2.3620    4.7110    1.3280 hc        1 FP0      0.051200
     31 H13         1.4460    0.8880   -1.9290 h1        1 FP0      0.081200
     32 H13A        3.0760    0.9490   -1.0260 h1        1 FP0      0.081200
     33 H18        -3.2010   -0.8380    3.8680 hc        1 FP0      0.077367
     34 H18A       -4.1990   -2.1600    3.0960 hc        1 FP0      0.077367
     35 H18B       -4.3260   -0.4470    2.4890 hc        1 FP0      0.077367
     36 H14         3.9930    0.4730    1.1270 hc        1 FP0      0.046033
     37 H14A        3.7240   -0.3280    2.7340 hc        1 FP0      0.046033
     38 H14B        3.5660   -1.2820    1.1950 hc        1 FP0      0.046033
     39 H7          1.9730    2.5220    0.3780 hc        1 FP0      0.052200
     40 H7A         3.3840    2.4030    1.5140 hc        1 FP0      0.052200
     41 H15         2.9820    2.0030    3.7660 h1        1 FP0      0.047200
     42 H15A        2.1860    0.3940    4.0630 h1        1 FP0      0.047200
     43 HO12        0.8510    2.8610    4.2990 ho        1 FP0      0.407000
     44 H16         0.2130    6.0760    1.3110 hc        1 FP0      0.044700
     45 H16A        0.5940    6.0590    3.0830 hc        1 FP0      0.044700
     46 H16B       -1.0660    5.6040    2.5060 hc        1 FP0      0.044700
@<TRIPOS>BOND
     1    1    5 1   
     2    1   10 1   
     3    1   17 1   
     4    1   23 1   
     5    2    3 1   
     6    2    6 1   
     7    2   19 1   
     8    2   20 1   
     9    3    4 1   
    10    3   10 1   
    11    3   18 1   
    12    4    5 1   
    13    4   24 1   
    14    4   25 1   
    15    5   15 1   
    16    5   26 1   
    17    6    7 1   
    18    6   17 1   
    19    6   27 1   
    20    7    8 2   
    21    7   28 1   
    22    8    9 1   
    23    8   22 1   
    24    9   19 1   
    25    9   29 1   
    26    9   30 1   
    27   10   11 1   
    28   10   16 1   
    29   11   16 1   
    30   11   31 1   
    31   11   32 1   
    32   12   13 2   
    33   13   14 1   
    34   13   15 1   
    35   14   33 1   
    36   14   34 1   
    37   14   35 1   
    38   18   36 1   
    39   18   37 1   
    40   18   38 1   
    41   19   39 1   
    42   19   40 1   
    43   20   21 1   
    44   20   41 1   
    45   20   42 1   
    46   21   43 1   
    47   22   44 1   
    48   22   45 1   
    49   22   46 1   
@<TRIPOS>SUBSTRUCTURE
     1 FP0         1 TEMP              0 ****  ****    0 ROOT
