@<TRIPOS>MOLECULE
FP0
   46    47     1     0     0
SMALL
bcc


@<TRIPOS>ATOM
      1 C2         -1.0170   -0.9210   -1.5530 c3        1 FP0      0.030000
      2 C6          0.7560    0.2600    0.4940 c3        1 FP0     -0.047000
      3 C5          1.0250   -0.9200   -0.3870 c3        1 FP0     -0.028000
      4 C4          0.2750   -2.1360    0.2700 c3        1 FP0     -0.162000
      5 C3         -1.2430   -2.1100   -0.6270 c3        1 FP0      0.004000
      6 C11        -0.7390    0.9470    0.2400 c3        1 FP0      0.069000
      7 C10        -0.7960    2.3670   -0.0590 c2        1 FP0     -0.158000
      8 C9          0.4550    3.2360    0.1130 c1        1 FP0     -0.074000
      9 C8          1.8590    2.6350   -0.1520 c2        1 FP0     -0.126000
     10 C12         0.3970   -0.9120   -1.5580 cx        1 FP0     -0.033000
     11 C13         0.9610    0.1360   -2.5060 cx        1 FP0     -0.065000
     12 O4         -3.5620   -3.0830   -1.3010 o         1 FP0     -0.351000
     13 C17        -3.3220   -2.7410   -0.1550 c1        1 FP0      0.310000
     14 C18        -4.2680   -3.1460    0.9760 c2        1 FP0     -0.217000
     15 O3         -2.1960   -1.9160    0.1200 os        1 FP0     -0.272000
     16 O2          1.1510   -1.3580   -2.8240 os        1 FP0     -0.255000
     17 O1         -1.6350    0.1970   -0.9320 os        1 FP0     -0.250000
     18 C14         2.5360   -1.2000   -0.5430 c3        1 FP0     -0.210000
     19 C7          2.0340    1.1940    0.3750 c3        1 FP0     -0.142000
     20 C15         0.7410   -0.2710    1.9460 c3        1 FP0     -0.017000
     21 O12         0.9580    0.8050    2.8450 oh        1 FP0     -0.319000
     22 C16         0.3130    4.7210    0.4690 c3        1 FP0     -0.177000
     23 H2         -1.3840   -1.0910   -2.4510 h1        1 FP0      0.149000
     24 H4          0.1230   -1.9820    1.2260 hc        1 FP0      0.104000
     25 H4A         0.7630   -2.9780    0.1160 hc        1 FP0      0.104000
     26 H3         -1.3610   -2.9400   -1.1430 h1        1 FP0      0.130000
     27 H11        -1.2330    0.8270    1.0820 h1        1 FP0      0.098000
     28 H10        -1.6480    2.7800   -0.3230 ha        1 FP0      0.132000
     29 H8          2.5320    3.3010    0.1180 ha        1 FP0      0.089500
     30 H8A         2.0420    2.5860   -1.1160 ha        1 FP0      0.089500
     31 H13         1.7590    0.6080   -2.1910 h1        1 FP0      0.120500
     32 H13A        0.3010    0.6090   -3.0610 h1        1 FP0      0.120500
     33 H18        -3.7650   -3.6360    1.6630 ha        1 FP0      0.115667
     34 H18A       -4.6670   -2.3410    1.3740 ha        1 FP0      0.115667
     35 H18B       -4.9790   -3.7220    0.6180 ha        1 FP0      0.115667
     36 H14         2.9170   -0.5830   -1.2060 hc        1 FP0      0.086000
     37 H14A        2.6680   -2.1290   -0.8440 hc        1 FP0      0.086000
     38 H14B        2.9850   -1.0700    0.3230 hc        1 FP0      0.086000
     39 H7          2.4400    1.2540    1.2700 hc        1 FP0      0.087500
     40 H7A         2.6750    0.7420   -0.2130 hc        1 FP0      0.087500
     41 H15        -0.1300   -0.6850    2.1340 h1        1 FP0      0.065000
     42 H15A        1.4540   -0.9400    2.0570 h1        1 FP0      0.065000
     43 HO12        0.9790    0.4930    3.6820 ho        1 FP0      0.197000
     44 H16         0.5110    5.2680   -0.3230 hc        1 FP0      0.081333
     45 H16A       -0.6060    4.8990    0.7690 hc        1 FP0      0.081333
     46 H16B        0.9420    4.9470    1.1890 hc        1 FP0      0.081333
@<TRIPOS>BOND
     1    1    5 1   
     2    1   10 1   
     3    1   17 1   
     4    1   23 1   
     5    2    3 1   
     6    2    6 1   
     7    2   19 1   
     8    2   20 1   
     9    3    4 1   
    10    3   10 1   
    11    3   18 1   
    12    4    5 1   
    13    4   24 1   
    14    4   25 1   
    15    5   15 1   
    16    5   26 1   
    17    6    7 1   
    18    6   17 1   
    19    6   27 1   
    20    7    8 1   
    21    7   28 1   
    22    8   22 1   
    23    9   19 1   
    24    9   29 1   
    25    9   30 1   
    26   10   11 1   
    27   10   16 1   
    28   11   16 1   
    29   11   31 1   
    30   11   32 1   
    31   12   13 1   
    32   13   15 1   
    33   14   33 1   
    34   14   34 1   
    35   14   35 1   
    36   18   36 1   
    37   18   37 1   
    38   18   38 1   
    39   19   39 1   
    40   19   40 1   
    41   20   21 1   
    42   20   41 1   
    43   20   42 1   
    44   21   43 1   
    45   22   44 1   
    46   22   45 1   
    47   22   46 1   
@<TRIPOS>SUBSTRUCTURE
     1 FP0         1 TEMP              0 ****  ****    0 ROOT
