@<TRIPOS>MOLECULE
FP1
   20    20     1     0     0
SMALL
bcc


@<TRIPOS>ATOM
      1 O1          3.0100    0.3870   -0.5510 oh        1 FP1     -0.449300
      2 N2          2.4320   -0.0870    0.5750 nh        1 FP1     -0.435500
      3 C6          1.2580   -0.8500    0.3020 c2        1 FP1     -0.192000
      4 C5         -0.0350   -0.4590    0.0840 cc        1 FP1      0.162000
      5 C4         -1.0620   -1.5060    0.0310 cc        1 FP1     -0.172000
      6 C3         -2.3820   -1.2080    0.0270 cd        1 FP1     -0.078000
      7 C2         -2.7950    0.1650    0.0380 cd        1 FP1     -0.241000
      8 C1         -1.8420    1.1420   -0.0170 cc        1 FP1      0.081000
      9 N1         -0.4790    0.8770   -0.0170 na        1 FP1     -0.526200
     10 C7          0.4150    1.9250   -0.4350 c3        1 FP1      0.187100
     11 H1          3.7180   -0.2500   -0.7550 ho        1 FP1      0.419000
     12 H2          2.1690    0.7420    1.1110 hn        1 FP1      0.355800
     13 H6          1.4800   -1.9310    0.3260 h4        1 FP1      0.152000
     14 H4         -0.6960   -2.5420    0.0040 ha        1 FP1      0.144000
     15 H3         -3.1540   -1.9910    0.0050 ha        1 FP1      0.136000
     16 HA         -3.8600    0.4180    0.0830 ha        1 FP1      0.146000
     17 HB         -2.1120    2.2140   -0.0510 h4        1 FP1      0.147000
     18 H7C1       -0.1580    2.7590   -0.9220 h1        1 FP1      0.054700
     19 H7C2        0.9540    2.3460    0.4560 h1        1 FP1      0.054700
     20 H7C3        1.1670    1.5350   -1.1750 h1        1 FP1      0.054700
@<TRIPOS>BOND
     1    1    2 1   
     2    1   11 1   
     3    2    3 1   
     4    2   12 1   
     5    3    4 2   
     6    3   13 1   
     7    4    5 1   
     8    4    9 1   
     9    5    6 2   
    10    5   14 1   
    11    6    7 1   
    12    6   15 1   
    13    7    8 2   
    14    7   16 1   
    15    8    9 1   
    16    8   17 1   
    17    9   10 1   
    18   10   18 1   
    19   10   19 1   
    20   10   20 1   
@<TRIPOS>SUBSTRUCTURE
     1 FP1         1 TEMP              0 ****  ****    0 ROOT
