@<TRIPOS>MOLECULE
FP1
   21    21     1     0     0
SMALL
bcc


@<TRIPOS>ATOM
      1 O1          0.7070   -0.1300   -0.6890 oh        1 FP1     -0.419300
      2 N2          1.1460    0.7850    0.2320 n4        1 FP1     -0.348300
      3 C6          2.0670    0.2750    1.2030 c2        1 FP1     -0.456000
      4 C5          3.4440    0.0720    1.0870 cc        1 FP1      0.299000
      5 C4          4.1030   -0.3560    2.3100 cc        1 FP1     -0.196000
      6 C3          5.4510   -0.5620    2.3590 cd        1 FP1     -0.013000
      7 C2          6.2290   -0.3530    1.1860 cd        1 FP1     -0.179000
      8 C1          5.6010    0.0360    0.0310 cc        1 FP1      0.069000
      9 N1          4.2250    0.2450   -0.0450 na        1 FP1     -0.476200
     10 C7          3.6780    0.6010   -1.3340 c3        1 FP1      0.157100
     11 H1          0.6750   -1.0170   -0.2680 ho        1 FP1      0.476000
     12 H2          0.3160    1.1580    0.7310 hn        1 FP1      0.467800
     13 H6          1.5810    0.0300    2.1620 hx        1 FP1      0.200000
     14 H4          3.4680   -0.5040    3.1980 ha        1 FP1      0.174000
     15 H3          5.9490   -0.8850    3.2890 ha        1 FP1      0.177000
     16 HA          7.3190   -0.5040    1.2040 ha        1 FP1      0.186000
     17 HB          6.1650    0.2070   -0.9070 h4        1 FP1      0.186000
     18 H7C1        3.3410    1.6730   -1.3290 h1        1 FP1      0.076367
     19 H7C2        2.8320   -0.0860   -1.6080 h1        1 FP1      0.076367
     20 H7C3        4.4660    0.4990   -2.1320 h1        1 FP1      0.076367
     21 H22         1.5640    1.5460   -0.3370 hn        1 FP1      0.467800
@<TRIPOS>BOND
     1    1    2 1   
     2    1   11 1   
     3    2    3 1   
     4    2   12 1   
     5    2   21 1   
     6    3    4 2   
     7    3   13 1   
     8    4    5 1   
     9    4    9 1   
    10    5    6 2   
    11    5   14 1   
    12    6    7 1   
    13    6   15 1   
    14    7    8 2   
    15    7   16 1   
    16    8    9 1   
    17    8   17 1   
    18    9   10 1   
    19   10   18 1   
    20   10   19 1   
    21   10   20 1   
@<TRIPOS>SUBSTRUCTURE
     1 FP1         1 TEMP              0 ****  ****    0 ROOT
