@<TRIPOS>MOLECULE
FP1
   21    21     1     0     0
SMALL
bcc


@<TRIPOS>ATOM
      1 O1          0.6700   -0.1270   -0.5990 oh        1 FP1     -0.419300
      2 N2          1.1480    0.8090    0.2810 n4        1 FP1     -0.348300
      3 C6          2.0910    0.3160    1.2400 c2        1 FP1     -0.456000
      4 C5          3.4610    0.0920    1.0910 cc        1 FP1      0.299000
      5 C4          4.1490   -0.3100    2.3070 cc        1 FP1     -0.196000
      6 C3          5.4960   -0.5320    2.3230 cd        1 FP1     -0.013000
      7 C2          6.2410   -0.3690    1.1230 cd        1 FP1     -0.179000
      8 C1          5.5850   -0.0050   -0.0250 cc        1 FP1      0.069000
      9 N1          4.2100    0.2190   -0.0680 na        1 FP1     -0.476200
     10 C7          3.6310    0.5450   -1.3510 c3        1 FP1      0.157100
     11 H1          0.6400   -1.0000   -0.1500 ho        1 FP1      0.476000
     12 H2          1.5590    1.5480   -0.3220 hn        1 FP1      0.467800
     13 H6          1.6290    0.1060    2.2200 hx        1 FP1      0.200000
     14 H4          3.5390   -0.4220    3.2170 ha        1 FP1      0.174000
     15 H3          6.0160   -0.8340    3.2480 ha        1 FP1      0.177000
     16 HA          7.3300   -0.5340    1.1140 ha        1 FP1      0.186000
     17 HB          6.1240    0.1290   -0.9840 h4        1 FP1      0.186000
     18 H7C1        4.3940    0.4080   -2.1670 h1        1 FP1      0.076367
     19 H7C2        3.3080    1.6210   -1.3680 h1        1 FP1      0.076367
     20 H7C3        2.7680   -0.1380   -1.5790 h1        1 FP1      0.076367
     21 H22         0.3370    1.2090    0.7930 hn        1 FP1      0.467800
@<TRIPOS>BOND
     1    1    2 1   
     2    1   11 1   
     3    2    3 1   
     4    2   12 1   
     5    2   21 1   
     6    3    4 2   
     7    3   13 1   
     8    4    5 1   
     9    4    9 1   
    10    5    6 2   
    11    5   14 1   
    12    6    7 1   
    13    6   15 1   
    14    7    8 2   
    15    7   16 1   
    16    8    9 1   
    17    8   17 1   
    18    9   10 1   
    19   10   18 1   
    20   10   19 1   
    21   10   20 1   
@<TRIPOS>SUBSTRUCTURE
     1 FP1         1 TEMP              0 ****  ****    0 ROOT
