@<TRIPOS>MOLECULE
FP1
   21    21     1     0     0
SMALL
bcc


@<TRIPOS>ATOM
      1 O1          0.6400   -0.0460   -0.5330 oh        1 FP1     -0.419300
      2 N2          1.1610    0.8700    0.3430 ny        1 FP1     -0.348300
      3 C6          2.1140    0.3460    1.2750 c2        1 FP1     -0.456000
      4 C5          3.4740    0.0880    1.0920 cc        1 FP1      0.299000
      5 C4          4.1800   -0.3400    2.2890 cc        1 FP1     -0.196000
      6 C3          5.5210   -0.5970    2.2710 cd        1 FP1     -0.013000
      7 C2          6.2420   -0.4420    1.0550 cd        1 FP1     -0.179000
      8 C1          5.5680   -0.0520   -0.0740 cc        1 FP1      0.069000
      9 N1          4.1990    0.2070   -0.0830 na        1 FP1     -0.476200
     10 C7          3.5990    0.5580   -1.3490 c3        1 FP1      0.157100
     11 H1          0.5990   -0.9220   -0.0910 ho        1 FP1      0.476000
     12 H2          0.3730    1.2860    0.8760 hn        1 FP1      0.467800
     13 H6          1.6700    0.1390    2.2640 hx        1 FP1      0.200000
     14 H4          3.5880   -0.4450    3.2120 ha        1 FP1      0.174000
     15 H3          6.0540   -0.9190    3.1820 ha        1 FP1      0.177000
     16 HA          7.3250   -0.6340    1.0190 ha        1 FP1      0.186000
     17 HB          6.0880    0.0770   -1.0440 h4        1 FP1      0.186000
     18 H7C1        3.3020    1.6420   -1.3500 h1        1 FP1      0.076367
     19 H7C2        2.7140   -0.1010   -1.5620 h1        1 FP1      0.076367
     20 H7C3        4.3380    0.4100   -2.1840 h1        1 FP1      0.076367
     21 H22         1.5770    1.6030   -0.2640 hn        1 FP1      0.467800
@<TRIPOS>BOND
     1    1    2 1   
     2    1   11 1   
     3    2    3 1   
     4    2   12 1   
     5    2   21 1   
     6    3    4 2   
     7    3   13 1   
     8    4    5 1   
     9    4    9 1   
    10    5    6 2   
    11    5   14 1   
    12    6    7 1   
    13    6   15 1   
    14    7    8 2   
    15    7   16 1   
    16    8    9 1   
    17    8   17 1   
    18    9   10 1   
    19   10   18 1   
    20   10   19 1   
    21   10   20 1   
@<TRIPOS>SUBSTRUCTURE
     1 FP1         1 TEMP              0 ****  ****    0 ROOT
