@<TRIPOS>MOLECULE
FP1
   20    17     1     0     0
SMALL
bcc


@<TRIPOS>ATOM
      1 O1         -2.7330   -1.2740   -1.9000 oh        1 FP1     -0.443300
      2 N2         -1.3630   -1.2740   -1.9000 nh        1 FP1     -0.427500
      3 C6         -0.6540   -1.2740   -0.6720 c2        1 FP1     -0.285100
      4 C5         -0.0790   -0.1400   -0.2260 c1        1 FP1      0.372500
      5 C4         -0.1900    1.1340   -1.0350 c1        1 FP1     -0.064750
      6 C3          0.3600    2.3900   -0.5020 c1        1 FP1     -0.064750
      7 C2          1.0130    2.4000    0.8160 c1        1 FP1     -0.064750
      8 C1          1.1160    1.1190    1.6150 c1        1 FP1     -0.064750
      9 N1          0.6510   -0.1400    1.0390 n2        1 FP1     -0.548600
     10 C7          0.9070   -1.3680    1.7130 c3        1 FP1      0.166100
     11 H1         -3.0290   -1.9100   -2.4440 ho        1 FP1      0.418000
     12 H2         -0.9080   -1.3130   -2.6890 hn        1 FP1      0.356800
     13 H6         -0.5820   -2.0960   -0.1490 h4        1 FP1      0.145000
     14 H4         -0.6240    1.1220   -1.9090 ha        1 FP1      0.088750
     15 H3          0.2910    3.2140   -1.0210 ha        1 FP1      0.088750
     16 HA          1.3510    3.2370    1.1880 ha        1 FP1      0.088750
     17 HB          1.5770    1.1210    2.4750 ha        1 FP1      0.088750
     18 H7C1        1.5410   -1.2150    2.4390 h1        1 FP1      0.049367
     19 H7C2        0.0720   -1.7180    2.0780 h1        1 FP1      0.049367
     20 H7C3        1.2820   -2.0130    1.0840 h1        1 FP1      0.049367
@<TRIPOS>BOND
     1    1    2 1   
     2    1   11 1   
     3    2    3 1   
     4    2   12 1   
     5    3    4 2   
     6    3   13 1   
     7    4    9 2   
     8    5    6 3   
     9    5   14 1   
    10    6   15 1   
    11    7    8 3   
    12    7   16 1   
    13    8   17 1   
    14    9   10 1   
    15   10   18 1   
    16   10   19 1   
    17   10   20 1   
@<TRIPOS>SUBSTRUCTURE
     1 FP1         1 TEMP              0 ****  ****    0 ROOT
