@<TRIPOS>MOLECULE
FP2
   13    13     1     0     0
SMALL
bcc


@<TRIPOS>ATOM
      1 C1         -0.3870    0.8350    0.1210 ca        1 FP2      0.098100
      2 C2         -0.5100   -0.5750    0.1400 ca        1 FP2      0.034900
      3 C3          0.6410   -1.3750    0.0610 ca        1 FP2     -0.122000
      4 C4          1.8910   -0.7710   -0.0340 ca        1 FP2     -0.143000
      5 C5          2.0090    0.6200   -0.0520 ca        1 FP2     -0.108000
      6 C6          0.8790    1.4290    0.0250 ca        1 FP2     -0.138000
      7 F          -1.7420   -1.1370    0.2330 f         1 FP2     -0.146900
      8 O          -1.4720    1.6740    0.1950 oh        1 FP2     -0.490100
      9 H3          0.5390   -2.4700    0.0760 ha        1 FP2      0.150000
     10 H4          2.7930   -1.3990   -0.0960 ha        1 FP2      0.140000
     11 H5          3.0030    1.0840   -0.1280 ha        1 FP2      0.139000
     12 H6          0.9570    2.5260    0.0120 ha        1 FP2      0.156000
     13 HO         -2.2710    1.1260    0.2570 ho        1 FP2      0.430000
@<TRIPOS>BOND
     1    1    2 ar  
     2    1    6 ar  
     3    1    8 1   
     4    2    3 ar  
     5    2    7 1   
     6    3    4 ar  
     7    3    9 1   
     8    4    5 ar  
     9    4   10 1   
    10    5    6 ar  
    11    5   11 1   
    12    6   12 1   
    13    8   13 1   
@<TRIPOS>SUBSTRUCTURE
     1 FP2         1 TEMP              0 ****  ****    0 ROOT
