@<TRIPOS>MOLECULE
FP2
   13    10     1     0     0
SMALL
bcc


@<TRIPOS>ATOM
      1 C1         -0.5630    0.0600   -0.9460 c1        1 FP2      0.081600
      2 C2          0.8230    0.0600   -0.9460 c1        1 FP2      0.002100
      3 C3          1.5160    0.0600    0.2550 c1        1 FP2     -0.064500
      4 C4          0.8230    0.0600    1.4550 c1        1 FP2     -0.068000
      5 C5         -0.5630    0.0600    1.4550 c1        1 FP2     -0.068000
      6 C6         -1.2560    0.0600    0.2550 c1        1 FP2     -0.080500
      7 F           1.4920    0.0690   -2.1050 f         1 FP2     -0.114100
      8 O          -1.2670    0.0750   -2.1640 oh        1 FP2     -0.473600
      9 H3          2.4920    0.0600    0.2550 ha        1 FP2      0.092500
     10 H4          1.3110    0.0600    2.3000 ha        1 FP2      0.082000
     11 H5         -1.0510    0.0600    2.3000 ha        1 FP2      0.082000
     12 H6         -2.2330    0.0600    0.2550 ha        1 FP2      0.098500
     13 HO         -1.5210   -0.7500   -2.3690 ho        1 FP2      0.430000
@<TRIPOS>BOND
     1    1    6 3   
     2    1    8 1   
     3    2    3 3   
     4    2    7 1   
     5    3    9 1   
     6    4    5 3   
     7    4   10 1   
     8    5   11 1   
     9    6   12 1   
    10    8   13 1   
@<TRIPOS>SUBSTRUCTURE
     1 FP2         1 TEMP              0 ****  ****    0 ROOT
