@<TRIPOS>MOLECULE
FP2
   13    13     1     0     0
SMALL
bcc


@<TRIPOS>ATOM
      1 C1         -0.1100   -0.1390    0.0620 ca        1 FP2      0.098100
      2 C2          1.3040   -0.1630   -0.0020 ca        1 FP2      0.034900
      3 C3          2.0560   -0.0670    1.1790 ca        1 FP2     -0.122000
      4 C4          1.4030    0.0510    2.4020 ca        1 FP2     -0.143000
      5 C5          0.0080    0.0750    2.4620 ca        1 FP2     -0.108000
      6 C6         -0.7540   -0.0190    1.3020 ca        1 FP2     -0.138000
      7 F           1.9160   -0.2800   -1.2080 f         1 FP2     -0.146900
      8 O          -0.9040   -0.2290   -1.0550 oh        1 FP2     -0.490100
      9 H3          3.1540   -0.0870    1.1230 ha        1 FP2      0.150000
     10 H4          1.9930    0.1260    3.3270 ha        1 FP2      0.140000
     11 H5         -0.4970    0.1690    3.4350 ha        1 FP2      0.139000
     12 H6         -1.8530   -0.0020    1.3340 ha        1 FP2      0.156000
     13 HO         -0.3240   -0.3060   -1.8290 ho        1 FP2      0.430000
@<TRIPOS>BOND
     1    1    2 ar  
     2    1    6 ar  
     3    1    8 1   
     4    2    3 ar  
     5    2    7 1   
     6    3    4 ar  
     7    3    9 1   
     8    4    5 ar  
     9    4   10 1   
    10    5    6 ar  
    11    5   11 1   
    12    6   12 1   
    13    8   13 1   
@<TRIPOS>SUBSTRUCTURE
     1 FP2         1 TEMP              0 ****  ****    0 ROOT
