@<TRIPOS>MOLECULE
FP3
   35    38     1     0     0
SMALL
bcc


@<TRIPOS>ATOM
      1 C1         -3.7020    1.5580   -0.2470 ca        1 FP3     -0.108600
      2 C2         -2.5150    1.8480   -0.9240 ca        1 FP3     -0.051000
      3 C3         -1.3050    1.3250   -0.4930 ca        1 FP3     -0.213000
      4 C4         -1.2480    0.4900    0.6480 ca        1 FP3      0.195600
      5 C5         -2.4470    0.1840    1.3290 ca        1 FP3     -0.212000
      6 C6         -3.6610    0.7200    0.8820 ca        1 FP3      0.171100
      7 N7         -0.0440   -0.0140    1.1640 nh        1 FP3     -0.597400
      8 C8          2.5230    3.6530   -0.0790 ca        1 FP3      0.364200
      9 N9          3.7160    3.3110   -0.6250 nb        1 FP3     -0.642000
     10 C10         4.0110    2.0130   -0.7790 ca        1 FP3      0.412200
     11 C11         3.0880    1.0310   -0.3760 ca        1 FP3     -0.046200
     12 C12         1.8300    1.3890    0.1930 ca        1 FP3     -0.093800
     13 C13         1.5410    2.7440    0.3480 ca        1 FP3     -0.179300
     14 O14         3.2380   -0.3470   -0.4420 os        1 FP3     -0.144200
     15 C15         2.0420   -0.8860    0.0810 cc        1 FP3     -0.081700
     16 C16         1.1630    0.1190    0.4960 cd        1 FP3      0.146800
     17 C17         1.9400   -2.3460    0.1160 ca        1 FP3      0.727800
     18 N18         2.8310   -3.0920   -0.6210 nb        1 FP3     -0.689500
     19 C19         2.6830   -4.4270   -0.5650 ca        1 FP3      0.437200
     20 C20         1.6780   -5.0550    0.1960 ca        1 FP3     -0.362600
     21 C21         0.8150   -4.2070    0.9130 ca        1 FP3      0.437200
     22 N22         0.9270   -2.8660    0.8890 nb        1 FP3     -0.689500
     23 O23        -4.7670    0.3660    1.6140 oh        1 FP3     -0.492100
     24 CL1        -5.1700    2.2160   -0.8010 cl        1 FP3     -0.095400
     25 H2         -2.5390    2.4970   -1.8140 ha        1 FP3      0.150000
     26 H3         -0.3860    1.5640   -1.0500 ha        1 FP3      0.151000
     27 H5         -2.4580   -0.4680    2.2160 ha        1 FP3      0.159000
     28 HN7        -0.1420   -0.8510    1.7050 hn        1 FP3      0.451800
     29 H10         4.9850    1.7530   -1.2240 h4        1 FP3      0.044100
     30 H13         0.5930    3.0850    0.7830 ha        1 FP3      0.161000
     31 H19         3.4060   -5.0140   -1.1620 h4        1 FP3      0.034600
     32 H20         1.5740   -6.1450    0.2270 ha        1 FP3      0.161000
     33 H21        -0.0030   -4.6110    1.5370 h4        1 FP3      0.034600
     34 HO23       -5.5440    0.7930    1.2200 ho        1 FP3      0.432000
     35 H8          2.3540    4.7410    0.0200 h4        1 FP3      0.028100
@<TRIPOS>BOND
     1    1    2 ar  
     2    1    6 ar  
     3    1   24 1   
     4    2    3 ar  
     5    2   25 1   
     6    3    4 ar  
     7    3   26 1   
     8    4    5 ar  
     9    4    7 1   
    10    5    6 ar  
    11    5   27 1   
    12    6   23 1   
    13    7   16 1   
    14    7   28 1   
    15    8    9 ar  
    16    8   13 ar  
    17    8   35 1   
    18    9   10 ar  
    19   10   11 ar  
    20   10   29 1   
    21   11   12 ar  
    22   11   14 1   
    23   12   13 ar  
    24   12   16 1   
    25   13   30 1   
    26   14   15 1   
    27   15   16 2   
    28   15   17 1   
    29   17   18 ar  
    30   17   22 ar  
    31   18   19 ar  
    32   19   20 ar  
    33   19   31 1   
    34   20   21 ar  
    35   20   32 1   
    36   21   22 ar  
    37   21   33 1   
    38   23   34 1   
@<TRIPOS>SUBSTRUCTURE
     1 FP3         1 TEMP              0 ****  ****    0 ROOT
