@<TRIPOS>MOLECULE
FP3
   36    39     1     0     0
SMALL
bcc


@<TRIPOS>ATOM
      1 C1         -0.0930    0.7810   -0.0410 ca        1 FP3     -0.036600
      2 C2          0.8050   -0.2870   -0.0990 ca        1 FP3     -0.064000
      3 C3          1.4640   -0.7300    1.0460 ca        1 FP3     -0.124000
      4 C4          1.2110   -0.0920    2.2710 ca        1 FP3     -0.002400
      5 C5          0.3200    0.9860    2.3600 ca        1 FP3     -0.151000
      6 C6         -0.3360    1.4200    1.1950 ca        1 FP3      0.166100
      7 N7          1.8750   -0.5710    3.4940 n4        1 FP3     -0.469200
      8 C8          4.3600    3.4110    3.4650 ca        1 FP3      0.416200
      9 N9          5.6950    3.2060    3.5740 nb        1 FP3     -0.620000
     10 C10         6.1620    1.9530    3.6650 ca        1 FP3      0.457200
     11 C11         5.2580    0.8760    3.6470 ca        1 FP3     -0.066200
     12 C12         3.8500    1.0850    3.5320 ca        1 FP3     -0.063800
     13 C13         3.3870    2.3970    3.4370 ca        1 FP3     -0.211300
     14 O14         5.5560   -0.4880    3.7340 os        1 FP3     -0.101200
     15 C15         4.3390   -1.1550    3.6760 cc        1 FP3      0.083300
     16 C16         3.2780   -0.2530    3.5560 cd        1 FP3     -0.108200
     17 C17         4.3400   -2.6230    3.7680 ca        1 FP3      0.671800
     18 N18         5.5370   -3.2820    3.8470 nb        1 FP3     -0.691500
     19 C19         5.4720   -4.6270    3.9400 ca        1 FP3      0.447200
     20 C20         4.2500   -5.3280    3.9550 ca        1 FP3     -0.310600
     21 C21         3.0740   -4.5580    3.8650 ca        1 FP3      0.447200
     22 N22         3.0980   -3.2150    3.7700 nb        1 FP3     -0.691500
     23 O23        -1.1870    2.4730    1.3720 oh        1 FP3     -0.469100
     24 CL1        -0.8750    1.2930   -1.4490 cl        1 FP3     -0.019400
     25 H2          1.0020   -0.7890   -1.0630 ha        1 FP3      0.182000
     26 H3          2.1730   -1.5700    0.9720 ha        1 FP3      0.166000
     27 H5          0.1040    1.5090    3.3050 ha        1 FP3      0.175000
     28 HN7         1.7580   -1.6030    3.5450 hn        1 FP3      0.477800
     29 H13         2.3210    2.6370    3.3360 ha        1 FP3      0.156000
     30 H19         6.4470   -5.1510    4.0050 h4        1 FP3      0.057600
     31 H20         4.2150   -6.4230    4.0340 ha        1 FP3      0.186000
     32 H21         2.0730   -5.0300    3.8690 h4        1 FP3      0.057600
     33 HO23       -1.6020    2.6970    0.5200 ho        1 FP3      0.455000
     34 H8          4.0590    4.4750    3.3940 h4        1 FP3      0.052100
     35 H72         1.4170   -0.1410    4.3120 hn        1 FP3      0.477800
     36 H10         7.2540    1.8080    3.7530 h4        1 FP3      0.067100
@<TRIPOS>BOND
     1    1    2 ar  
     2    1    6 ar  
     3    1   24 1   
     4    2    3 ar  
     5    2   25 1   
     6    3    4 ar  
     7    3   26 1   
     8    4    5 ar  
     9    4    7 1   
    10    5    6 ar  
    11    5   27 1   
    12    6   23 1   
    13    7   16 1   
    14    7   28 1   
    15    7   35 1   
    16    8    9 ar  
    17    8   13 ar  
    18    8   34 1   
    19    9   10 ar  
    20   10   11 ar  
    21   10   36 1   
    22   11   12 ar  
    23   11   14 1   
    24   12   13 ar  
    25   12   16 1   
    26   13   29 1   
    27   14   15 1   
    28   15   16 2   
    29   15   17 1   
    30   17   18 ar  
    31   17   22 ar  
    32   18   19 ar  
    33   19   20 ar  
    34   19   30 1   
    35   20   21 ar  
    36   20   31 1   
    37   21   22 ar  
    38   21   32 1   
    39   23   33 1   
@<TRIPOS>SUBSTRUCTURE
     1 FP3         1 TEMP              0 ****  ****    0 ROOT
