@<TRIPOS>MOLECULE
FP3
   35    27     1     0     0
SMALL
bcc


@<TRIPOS>ATOM
      1 C1         -2.8450    1.3660   -3.0470 c1        1 FP3     -0.127000
      2 C2         -1.4720    1.5120   -2.9250 c2        1 FP3     -0.062000
      3 C3         -0.8460    1.2110   -1.7250 c1        1 FP3     -0.211000
      4 C4         -1.5930    0.7640   -0.6470 c1        1 FP3      0.116000
      5 C5         -2.9660    0.6170   -0.7680 c1        1 FP3     -0.265000
      6 C6         -3.5920    0.9180   -1.9690 c1        1 FP3      0.122000
      7 N7         -0.9630    0.5280    0.6030 n3        1 FP3     -0.229000
      8 C8          2.3760    3.5690    1.3790 c1        1 FP3     -0.118250
      9 N9          3.5950    2.9720    1.5490 n1        1 FP3     -0.126000
     10 C10         3.7160    1.6170    1.4250 c1        1 FP3     -0.041500
     11 C11         2.5900    0.8350    1.1240 c1        1 FP3     -0.054000
     12 C12         1.3790    1.4270    0.9560 c1        1 FP3     -0.054000
     13 C13         1.2590    2.7990    1.0810 c1        1 FP3     -0.118250
     14 O14         2.4260   -0.5370    0.9530 o         1 FP3     -0.055000
     15 C15         1.1090   -0.7750    0.6790 c2        1 FP3     -0.019000
     16 C16         0.4510    0.4320    0.6780 c1        1 FP3      0.056000
     17 C17         1.0010   -2.1510    0.8090 c1        1 FP3      0.094000
     18 N18         1.3510   -2.9630   -0.2280 n1        1 FP3     -0.126000
     19 C19         1.2630   -4.2950   -0.0980 c1        1 FP3     -0.041500
     20 C20         0.8220   -4.8380    1.0750 c1        1 FP3     -0.118250
     21 C21         0.4720   -4.0240    2.1130 c1        1 FP3     -0.118250
     22 N22         0.5610   -2.6920    1.9800 n1        1 FP3     -0.193000
     23 O23        -4.9860    0.7690   -2.0920 oh        1 FP3     -0.235000
     24 CL1        -3.6320    1.7450   -4.5560 cl        1 FP3      0.007000
     25 H2         -0.9450    1.8270   -3.6850 ha        1 FP3      0.151000
     26 H3          0.1210    1.3150   -1.6400 ha        1 FP3      0.151000
     27 H5         -3.4930    0.3020   -0.0090 ha        1 FP3      0.140000
     28 HN7        -1.4640    0.4740    1.3630 hn        1 FP3      0.245000
     29 H8          2.2910    4.5380    1.4670 ha        1 FP3      0.164000
     30 H10         4.5860    1.1920    1.5470 ha        1 FP3      0.177000
     31 H13         0.3900    3.2260    0.9600 ha        1 FP3      0.164000
     32 H19         1.5140   -4.8770   -0.8410 ha        1 FP3      0.177000
     33 H20         0.7580   -5.8070    1.1710 ha        1 FP3      0.164000
     34 H21         0.1570   -4.4110    2.9530 ha        1 FP3      0.164000
     35 HO23       -5.3940    1.4120   -1.6350 ho        1 FP3      0.221000
@<TRIPOS>BOND
     1    1    2 1   
     2    1    6 1   
     3    2    3 1   
     4    2   25 1   
     5    3   26 1   
     6    4    5 1   
     7    4    7 1   
     8    5   27 1   
     9    6   23 1   
    10    7   16 1   
    11    7   28 1   
    12    8   13 1   
    13    8   29 1   
    14    9   10 1   
    15   10   30 1   
    16   11   12 1   
    17   13   31 1   
    18   14   15 1   
    19   15   16 1   
    20   15   17 1   
    21   17   22 1   
    22   18   19 1   
    23   19   32 1   
    24   20   21 1   
    25   20   33 1   
    26   21   34 1   
    27   23   35 1   
@<TRIPOS>SUBSTRUCTURE
     1 FP3         1 TEMP              0 ****  ****    0 ROOT
