@<TRIPOS>MOLECULE
FP3
   35    38     1     0     0
SMALL
bcc


@<TRIPOS>ATOM
      1 C1         -0.2500    1.0250    0.0360 ca        1 FP3     -0.108600
      2 C2          1.1280    1.2510    0.0610 ca        1 FP3     -0.051000
      3 C3          1.8990    0.8260    1.1340 ca        1 FP3     -0.213000
      4 C4          1.3020    0.1610    2.2300 ca        1 FP3      0.196600
      5 C5         -0.0900   -0.0800    2.2050 ca        1 FP3     -0.212000
      6 C6         -0.8540    0.3550    1.1150 ca        1 FP3      0.171100
      7 N7          2.0230   -0.2330    3.3680 nu        1 FP3     -0.597400
      8 C8          5.0390    3.2970    3.2020 ca        1 FP3      0.364200
      9 N9          6.3210    2.9160    3.4230 nb        1 FP3     -0.642000
     10 C10         6.5870    1.6180    3.6240 ca        1 FP3      0.412200
     11 C11         5.5430    0.6760    3.6020 ca        1 FP3     -0.046200
     12 C12         4.1950    1.0740    3.3630 ca        1 FP3     -0.093800
     13 C13         3.9360    2.4290    3.1590 ca        1 FP3     -0.179300
     14 O14         5.6360   -0.6930    3.8100 os        1 FP3     -0.144200
     15 C15         4.3200   -1.1880    3.6840 cc        1 FP3     -0.081700
     16 C16         3.4060   -0.1600    3.4310 cd        1 FP3      0.146800
     17 C17         4.1420   -2.6310    3.8540 ca        1 FP3      0.727800
     18 N18         5.2490   -3.4460    3.8120 nb        1 FP3     -0.689500
     19 C19         5.0280   -4.7640    3.9570 ca        1 FP3      0.437200
     20 C20         3.7420   -5.3090    4.1430 ca        1 FP3     -0.362600
     21 C21         2.6740   -4.3940    4.1710 ca        1 FP3      0.437200
     22 N22         2.8490   -3.0670    4.0320 nb        1 FP3     -0.689500
     23 O23        -2.1970    0.0750    1.1890 oh        1 FP3     -0.492100
     24 Cl1        -1.1670    1.5580   -1.2940 cl        1 FP3     -0.095400
     25 H2          1.6120    1.7680   -0.7830 ha        1 FP3      0.150000
     26 H3          2.9850    1.0100    1.1220 ha        1 FP3      0.151000
     27 H5         -0.6010   -0.6020    3.0280 ha        1 FP3      0.159000
     28 HN7         1.6120   -0.9890    3.8790 hn        1 FP3      0.451800
     29 H10         7.6350    1.3270    3.8040 h4        1 FP3      0.044100
     30 H13         2.9190    2.8000    2.9740 ha        1 FP3      0.161000
     31 H19         5.9260   -5.4080    3.9210 h4        1 FP3      0.034600
     32 H20         3.5830   -6.3860    4.2600 ha        1 FP3      0.161000
     33 H21         1.6300   -4.7300    4.3120 h4        1 FP3      0.034600
     34 HO23       -2.6250    0.4210    0.3890 ho        1 FP3      0.432000
     35 H8          4.8980    4.3830    3.0500 h4        1 FP3      0.028100
@<TRIPOS>BOND
     1    1    2 ar  
     2    1    6 ar  
     3    1   24 1   
     4    2    3 ar  
     5    2   25 1   
     6    3    4 ar  
     7    3   26 1   
     8    4    5 ar  
     9    4    7 1   
    10    5    6 ar  
    11    5   27 1   
    12    6   23 1   
    13    7   16 1   
    14    7   28 1   
    15    8    9 ar  
    16    8   13 ar  
    17    8   35 1   
    18    9   10 ar  
    19   10   11 ar  
    20   10   29 1   
    21   11   12 ar  
    22   11   14 1   
    23   12   13 ar  
    24   12   16 1   
    25   13   30 1   
    26   14   15 1   
    27   15   16 2   
    28   15   17 1   
    29   17   18 ar  
    30   17   22 ar  
    31   18   19 ar  
    32   19   20 ar  
    33   19   31 1   
    34   20   21 ar  
    35   20   32 1   
    36   21   22 ar  
    37   21   33 1   
    38   23   34 1   
@<TRIPOS>SUBSTRUCTURE
     1 FP3         1 TEMP              0 ****  ****    0 ROOT
