@<TRIPOS>MOLECULE
FP4
   47    51     1     0     0
SMALL
bcc


@<TRIPOS>ATOM
      1 C1          0.8420   -0.1030   -0.2340 ca        1 FP4      0.364200
      2 N2          2.1420   -0.4330   -0.0360 nb        1 FP4     -0.642000
      3 C3          2.5960   -0.5590    1.2180 ca        1 FP4      0.411200
      4 C4          1.7280   -0.3500    2.3040 ca        1 FP4     -0.045200
      5 C5          0.3590   -0.0080    2.0990 ca        1 FP4     -0.093800
      6 C6         -0.0970    0.1210    0.7870 ca        1 FP4     -0.177300
      7 O7          2.0340   -0.4170    3.6560 os        1 FP4     -0.145200
      8 C8          0.8290   -0.1300    4.3330 cc        1 FP4     -0.084700
      9 C9         -0.2110    0.1440    3.4410 cd        1 FP4      0.152800
     10 C10         0.8770   -0.1540    5.7960 ca        1 FP4      0.730800
     11 N11         1.9340   -0.7840    6.4140 nb        1 FP4     -0.690500
     12 C12         1.9190   -0.7970    7.7580 ca        1 FP4      0.436200
     13 C13         0.8900   -0.2090    8.5190 ca        1 FP4     -0.363600
     14 C14        -0.1450    0.4100    7.7960 ca        1 FP4      0.436200
     15 N15        -0.1700    0.4520    6.4510 nb        1 FP4     -0.690500
     16 N16        -1.4960    0.5800    3.7230 nu        1 FP4     -0.600400
     17 C17        -2.6360   -0.1380    3.3410 ca        1 FP4      0.229600
     18 C18        -2.5870   -1.2470    2.4760 ca        1 FP4     -0.227000
     19 C19        -3.7460   -1.9110    2.0560 ca        1 FP4     -0.061000
     20 C20        -5.0110   -1.5270    2.4700 ca        1 FP4     -0.184000
     21 C21        -5.0840   -0.4300    3.3400 ca        1 FP4     -0.019200
     22 C22        -3.9120    0.2790    3.7930 ca        1 FP4     -0.252900
     23 N23        -6.1780    0.1700    3.9850 na        1 FP4     -0.017100
     24 N24        -5.7980    1.2220    4.7210 nc        1 FP4     -0.521100
     25 C25        -4.4470    1.3200    4.6760 cd        1 FP4      0.360900
     26 C26        -3.6880    2.3430    5.4370 c3        1 FP4     -0.091700
     27 C27        -3.2500    3.4860    4.5430 c3        1 FP4     -0.087400
     28 C28        -2.4110    4.4770    5.3340 c3        1 FP4      0.131400
     29 O29        -2.0940    5.5440    4.4550 oh        1 FP4     -0.597800
     30 H1          0.5430   -0.0120   -1.2940 h4        1 FP4      0.028100
     31 H3          3.6560   -0.8270    1.3590 h4        1 FP4      0.043100
     32 H6         -1.1390    0.3860    0.5630 ha        1 FP4      0.162000
     33 H12         2.7740   -1.3070    8.2410 h4        1 FP4      0.033600
     34 H13         0.8960   -0.2330    9.6140 ha        1 FP4      0.160000
     35 H14        -0.9950    0.8960    8.3090 h4        1 FP4      0.033600
     36 HN16       -1.5920    1.1090    4.5660 hn        1 FP4      0.453800
     37 H18        -1.6140   -1.6150    2.1140 ha        1 FP4      0.145000
     38 H19        -3.6390   -2.7710    1.3750 ha        1 FP4      0.135000
     39 H20        -5.9130   -2.0550    2.1380 ha        1 FP4      0.141000
     40 H26        -2.8000    1.8600    5.9280 hc        1 FP4      0.057200
     41 H26A       -4.3240    2.7550    6.2700 hc        1 FP4      0.057200
     42 H27        -2.6550    3.1090    3.6720 hc        1 FP4      0.067700
     43 H27A       -4.1480    4.0120    4.1260 hc        1 FP4      0.067700
     44 H28        -2.9870    4.8680    6.2160 h1        1 FP4      0.019700
     45 H28A       -1.4690    3.9900    5.7040 h1        1 FP4      0.019700
     46 HO29       -1.5380    6.1540    4.9530 ho        1 FP4      0.399000
     47 HN23       -7.1290    0.0800    3.7140 hn        1 FP4      0.319700
@<TRIPOS>BOND
     1    1    2 ar  
     2    1    6 ar  
     3    1   30 1   
     4    2    3 ar  
     5    3    4 ar  
     6    3   31 1   
     7    4    5 ar  
     8    4    7 1   
     9    5    6 ar  
    10    5    9 1   
    11    6   32 1   
    12    7    8 1   
    13    8    9 2   
    14    8   10 1   
    15    9   16 1   
    16   10   11 ar  
    17   10   15 ar  
    18   11   12 ar  
    19   12   13 ar  
    20   12   33 1   
    21   13   14 ar  
    22   13   34 1   
    23   14   15 ar  
    24   14   35 1   
    25   16   17 1   
    26   16   36 1   
    27   17   18 ar  
    28   17   22 ar  
    29   18   19 ar  
    30   18   37 1   
    31   19   20 ar  
    32   19   38 1   
    33   20   21 ar  
    34   20   39 1   
    35   21   22 ar  
    36   21   23 1   
    37   22   25 1   
    38   23   24 1   
    39   23   47 1   
    40   24   25 2   
    41   25   26 1   
    42   26   27 1   
    43   26   40 1   
    44   26   41 1   
    45   27   28 1   
    46   27   42 1   
    47   27   43 1   
    48   28   29 1   
    49   28   44 1   
    50   28   45 1   
    51   29   46 1   
@<TRIPOS>SUBSTRUCTURE
     1 FP4         1 TEMP              0 ****  ****    0 ROOT
