@<TRIPOS>MOLECULE
FP4
   48    52     1     0     0
SMALL
bcc


@<TRIPOS>ATOM
      1 C1          0.8490    1.2070   -0.0060 ca        1 FP4      0.412200
      2 N2          2.1190    0.7380    0.0730 nb        1 FP4     -0.622000
      3 C3          2.5610    0.2330    1.2330 ca        1 FP4      0.453200
      4 C4          1.7010    0.1980    2.3450 ca        1 FP4     -0.067200
      5 C5          0.3630    0.6880    2.2670 ca        1 FP4     -0.072800
      6 C6         -0.0770    1.2120    1.0520 ca        1 FP4     -0.211300
      7 O7          1.9820   -0.2820    3.6280 os        1 FP4     -0.108200
      8 C8          0.8220   -0.0990    4.3750 cc        1 FP4      0.084300
      9 C9         -0.1850    0.4830    3.6010 cd        1 FP4     -0.094200
     10 C10         0.8430   -0.5100    5.7870 ca        1 FP4      0.669800
     11 N11         1.8930   -1.2660    6.2390 nb        1 FP4     -0.680500
     12 C12         1.8610   -1.6090    7.5420 ca        1 FP4      0.442200
     13 C13         0.8170   -1.2230    8.4040 ca        1 FP4     -0.313600
     14 C14        -0.2180   -0.4510    7.8410 ca        1 FP4      0.442200
     15 N15        -0.2240   -0.0880    6.5440 nb        1 FP4     -0.680500
     16 N16        -1.5060    0.8720    4.0120 n4        1 FP4     -0.463200
     17 C17        -2.5550   -0.1260    3.7530 ca        1 FP4      0.018600
     18 C18        -2.2730   -1.3710    3.1980 ca        1 FP4     -0.098000
     19 C19        -3.3010   -2.3070    2.9650 ca        1 FP4     -0.101000
     20 C20        -4.6220   -2.0380    3.2720 ca        1 FP4     -0.082000
     21 C21        -4.9140   -0.7830    3.8320 ca        1 FP4     -0.042200
     22 C22        -3.8840    0.2020    4.0850 ca        1 FP4     -0.214900
     23 N23        -6.1130   -0.1960    4.2520 na        1 FP4      0.009900
     24 N24        -5.9280    1.0310    4.7300 nc        1 FP4     -0.455100
     25 C25        -4.6040    1.3340    4.6590 cd        1 FP4      0.322900
     26 C26        -4.0250    2.6240    5.1020 c3        1 FP4     -0.096700
     27 C27        -3.7330    3.5400    3.9260 c3        1 FP4     -0.092400
     28 C28        -2.5820    4.4820    4.2320 c3        1 FP4      0.124400
     29 O29        -1.4010    3.6880    4.3190 oh        1 FP4     -0.672800
     30 H1          0.5650    1.6070   -0.9990 h4        1 FP4      0.050100
     31 H3          3.5990   -0.1420    1.2760 h4        1 FP4      0.066100
     32 H6         -1.0910    1.6080    0.9130 ha        1 FP4      0.156000
     33 H12         2.7150   -2.2190    7.8980 h4        1 FP4      0.054600
     34 H13         0.8080   -1.5090    9.4640 ha        1 FP4      0.182000
     35 H14        -1.0780   -0.1060    8.4470 h4        1 FP4      0.054600
     36 HN16       -1.7530    1.7490    3.5100 hn        1 FP4      0.487300
     37 H18        -1.2410   -1.6520    2.9250 ha        1 FP4      0.164000
     38 H19        -3.0300   -3.2800    2.5220 ha        1 FP4      0.167000
     39 H20        -5.4170   -2.7770    3.0850 ha        1 FP4      0.169000
     40 H26        -4.7270    3.1460    5.8110 hc        1 FP4      0.069200
     41 H26A       -3.0830    2.4220    5.6810 hc        1 FP4      0.069200
     42 H27        -3.4880    2.9410    3.0100 hc        1 FP4      0.062700
     43 H27A       -4.6420    4.1520    3.6870 hc        1 FP4      0.062700
     44 H28        -2.4680    5.2380    3.4100 h1        1 FP4      0.051700
     45 H28A       -2.7460    5.0140    5.2070 h1        1 FP4      0.051700
     46 HO29       -0.6610    4.2930    4.4490 ho        1 FP4      0.433000
     47 HN23       -7.0240   -0.5980    4.2220 hn        1 FP4      0.350700
     48 H162       -1.5050    1.0920    5.0240 hn        1 FP4      0.487300
@<TRIPOS>BOND
     1    1    2 ar  
     2    1    6 ar  
     3    1   30 1   
     4    2    3 ar  
     5    3    4 ar  
     6    3   31 1   
     7    4    5 ar  
     8    4    7 1   
     9    5    6 ar  
    10    5    9 1   
    11    6   32 1   
    12    7    8 1   
    13    8    9 2   
    14    8   10 1   
    15    9   16 1   
    16   10   11 ar  
    17   10   15 ar  
    18   11   12 ar  
    19   12   13 ar  
    20   12   33 1   
    21   13   14 ar  
    22   13   34 1   
    23   14   15 ar  
    24   14   35 1   
    25   16   17 1   
    26   16   36 1   
    27   16   48 1   
    28   17   18 ar  
    29   17   22 ar  
    30   18   19 ar  
    31   18   37 1   
    32   19   20 ar  
    33   19   38 1   
    34   20   21 ar  
    35   20   39 1   
    36   21   22 ar  
    37   21   23 1   
    38   22   25 1   
    39   23   24 1   
    40   23   47 1   
    41   24   25 2   
    42   25   26 1   
    43   26   27 1   
    44   26   40 1   
    45   26   41 1   
    46   27   28 1   
    47   27   42 1   
    48   27   43 1   
    49   28   29 1   
    50   28   44 1   
    51   28   45 1   
    52   29   46 1   
@<TRIPOS>SUBSTRUCTURE
     1 FP4         1 TEMP              0 ****  ****    0 ROOT
