@<TRIPOS>MOLECULE
FP4
   47    51     1     0     0
SMALL
bcc


@<TRIPOS>ATOM
      1 C1          0.1100   -4.5620   -1.3700 ca        1 FP4      0.364200
      2 N2          1.3740   -5.0410   -1.2600 nb        1 FP4     -0.642000
      3 C3          2.3360   -4.2340   -0.7900 ca        1 FP4      0.411200
      4 C4          2.0240   -2.9130   -0.4190 ca        1 FP4     -0.045200
      5 C5          0.6950   -2.4100   -0.5280 ca        1 FP4     -0.093800
      6 C6         -0.2930   -3.2630   -1.0220 ca        1 FP4     -0.177300
      7 O7          2.8930   -1.9440    0.0620 os        1 FP4     -0.145200
      8 C8          2.0990   -0.7980    0.2840 cc        1 FP4     -0.084700
      9 C9          0.7650   -1.0180   -0.0740 cd        1 FP4      0.151800
     10 C10         2.7830    0.3810    0.8180 ca        1 FP4      0.730800
     11 N11         4.0200    0.2220    1.3990 nb        1 FP4     -0.690500
     12 C12         4.5960    1.3320    1.8930 ca        1 FP4      0.436200
     13 C13         3.9880    2.6010    1.8350 ca        1 FP4     -0.363600
     14 C14         2.7240    2.6600    1.2210 ca        1 FP4      0.436200
     15 N15         2.1110    1.5770    0.7090 nb        1 FP4     -0.690500
     16 N16        -0.2780   -0.1060   -0.1130 nh        1 FP4     -0.600400
     17 C17        -1.4500   -0.2710    0.6360 ca        1 FP4      0.229600
     18 C18        -1.7530   -1.4570    1.3310 ca        1 FP4     -0.227000
     19 C19        -2.9600   -1.6230    2.0210 ca        1 FP4     -0.061000
     20 C20        -3.9260   -0.6310    2.0730 ca        1 FP4     -0.184000
     21 C21        -3.6410    0.5630    1.3970 ca        1 FP4     -0.019200
     22 C22        -2.4090    0.7690    0.6740 ca        1 FP4     -0.252900
     23 N23        -4.3580    1.7670    1.3000 na        1 FP4     -0.017100
     24 N24        -3.7240    2.6560    0.5260 nc        1 FP4     -0.521100
     25 C25        -2.5320    2.1320    0.1470 cd        1 FP4      0.360900
     26 C26        -1.5450    2.8820   -0.6690 c3        1 FP4     -0.091700
     27 C27        -1.5750    2.4410   -2.1190 c3        1 FP4     -0.087400
     28 C28        -0.5030    3.1710   -2.9100 c3        1 FP4      0.131400
     29 O29        -0.6330    2.7570   -4.2610 oh        1 FP4     -0.597800
     30 H1         -0.6250   -5.2840   -1.7700 h4        1 FP4      0.028100
     31 H3          3.3570   -4.6390   -0.7090 h4        1 FP4      0.043100
     32 H6         -1.3340   -2.9340   -1.1330 ha        1 FP4      0.162000
     33 H12         5.5890    1.1900    2.3580 h4        1 FP4      0.033600
     34 H13         4.4720    3.4930    2.2460 ha        1 FP4      0.160000
     35 H14         2.1710    3.6130    1.1310 h4        1 FP4      0.033600
     36 HN16       -0.0090    0.8440   -0.2760 hn        1 FP4      0.453800
     37 H18        -1.0270   -2.2850    1.3410 ha        1 FP4      0.145000
     38 H19        -3.1380   -2.5780    2.5410 ha        1 FP4      0.135000
     39 H20        -4.8670   -0.7690    2.6190 ha        1 FP4      0.141000
     40 H26        -1.7640    3.9860   -0.6200 hc        1 FP4      0.057200
     41 H26A       -0.5190    2.7450   -0.2330 hc        1 FP4      0.057200
     42 H27        -1.4120    1.3360   -2.2040 hc        1 FP4      0.067700
     43 H27A       -2.5800    2.6610   -2.5660 hc        1 FP4      0.067700
     44 H28        -0.6450    4.2830   -2.8370 h1        1 FP4      0.019700
     45 H28A        0.5190    2.9110   -2.5250 h1        1 FP4      0.019700
     46 HO29        0.0680    3.2010   -4.7520 ho        1 FP4      0.399000
     47 HN23       -5.3290    1.8770    1.4770 hn        1 FP4      0.319700
@<TRIPOS>BOND
     1    1    2 ar  
     2    1    6 ar  
     3    1   30 1   
     4    2    3 ar  
     5    3    4 ar  
     6    3   31 1   
     7    4    5 ar  
     8    4    7 1   
     9    5    6 ar  
    10    5    9 1   
    11    6   32 1   
    12    7    8 1   
    13    8    9 2   
    14    8   10 1   
    15    9   16 1   
    16   10   11 ar  
    17   10   15 ar  
    18   11   12 ar  
    19   12   13 ar  
    20   12   33 1   
    21   13   14 ar  
    22   13   34 1   
    23   14   15 ar  
    24   14   35 1   
    25   16   17 1   
    26   16   36 1   
    27   17   18 ar  
    28   17   22 ar  
    29   18   19 ar  
    30   18   37 1   
    31   19   20 ar  
    32   19   38 1   
    33   20   21 ar  
    34   20   39 1   
    35   21   22 ar  
    36   21   23 1   
    37   22   25 1   
    38   23   24 1   
    39   23   47 1   
    40   24   25 2   
    41   25   26 1   
    42   26   27 1   
    43   26   40 1   
    44   26   41 1   
    45   27   28 1   
    46   27   42 1   
    47   27   43 1   
    48   28   29 1   
    49   28   44 1   
    50   28   45 1   
    51   29   46 1   
@<TRIPOS>SUBSTRUCTURE
     1 FP4         1 TEMP              0 ****  ****    0 ROOT
