@<TRIPOS>MOLECULE
FP4
   47    36     1     0     0
SMALL
bcc


@<TRIPOS>ATOM
      1 C1          2.4730    1.5040   -3.7570 c1        1 FP4     -0.119250
      2 N2          3.7880    1.1230   -3.7630 n1        1 FP4     -0.127000
      3 C3          4.2490    0.2390   -2.8300 c1        1 FP4     -0.042500
      4 C4          3.3750   -0.2800   -1.8620 c1        1 FP4     -0.054500
      5 C5          2.0700    0.0970   -1.8540 c1        1 FP4     -0.054500
      6 C6          1.6060    0.9920   -2.8000 c1        1 FP4     -0.119250
      7 O7          3.5700   -1.1790   -0.8150 o         1 FP4     -0.056000
      8 C8          2.3760   -1.3450   -0.1720 c2        1 FP4     -0.030000
      9 C9          1.4400   -0.5610   -0.8050 c1        1 FP4      0.063000
     10 C10         2.7560   -2.1930    0.8560 c1        1 FP4      0.097000
     11 N11         3.7150   -1.8020    1.7420 n1        1 FP4     -0.127000
     12 C12         4.0720   -2.6150    2.7480 c1        1 FP4     -0.042500
     13 C13         3.4730   -3.8340    2.8840 c1        1 FP4     -0.119250
     14 C14         2.5130   -4.2240    1.9970 c1        1 FP4     -0.119250
     15 N15         2.1580   -3.4100    0.9920 n1        1 FP4     -0.196000
     16 N16         0.2320   -0.5040   -0.0630 n2        1 FP4     -0.231000
     17 C17        -1.0120   -0.7030   -0.7160 c2        1 FP4      0.141000
     18 C18        -1.0890   -1.8610   -1.4700 c2        1 FP4     -0.224000
     19 C19        -2.2410   -2.1480   -2.1820 c1        1 FP4     -0.064000
     20 C20        -3.3160   -1.2760   -2.1400 c1        1 FP4     -0.180000
     21 C21        -3.2370   -0.0980   -1.3730 c1        1 FP4      0.027000
     22 C22        -2.1040    0.1840   -0.6730 c1        1 FP4     -0.171000
     23 N23        -4.1310    0.9160   -1.1550 n1        1 FP4     -0.194000
     24 N24        -3.5420    1.8300   -0.3120 n2        1 FP4     -0.048000
     25 C25        -2.2990    1.3850   -0.0130 c1        1 FP4     -0.086000
     26 C26        -1.7830    2.1680    1.1750 c2        1 FP4     -0.095000
     27 C27        -2.8170    3.1910    1.5920 c3        1 FP4     -0.159000
     28 C28        -2.6080    3.5560    3.0450 c3        1 FP4     -0.020000
     29 O29        -3.8430    3.5100    3.7240 oh        1 FP4     -0.326000
     30 H1          2.1450    2.1360   -4.4240 ha        1 FP4      0.163750
     31 H3          5.1870   -0.0310   -2.8360 ha        1 FP4      0.176000
     32 H6          0.6680    1.2640   -2.7960 ha        1 FP4      0.163750
     33 H12         4.7590   -2.3350    3.3820 ha        1 FP4      0.176000
     34 H13         3.7320   -4.4260    3.6160 ha        1 FP4      0.163750
     35 H14         2.0840   -5.0960    2.0940 ha        1 FP4      0.163750
     36 HN16        0.2550   -0.3290    0.8320 hn        1 FP4      0.250000
     37 H18        -0.3320   -2.4760   -1.5000 ha        1 FP4      0.146000
     38 H19        -2.2960   -2.9640   -2.7140 ha        1 FP4      0.135000
     39 H20        -4.1280   -1.4780   -2.6430 ha        1 FP4      0.141000
     40 H26        -0.9540    2.6240    0.9290 ha        1 FP4      0.096000
     41 H26A       -1.6110    1.5560    1.9180 ha        1 FP4      0.096000
     42 H27        -3.7130    2.8150    1.4760 hc        1 FP4      0.108000
     43 H27A       -2.7250    3.9920    1.0380 hc        1 FP4      0.108000
     44 H28        -1.9860    2.9190    3.4550 h1        1 FP4      0.057000
     45 H28A       -2.2360    4.4600    3.1040 h1        1 FP4      0.057000
     46 HO29       -3.7210    3.7310    4.5760 ho        1 FP4      0.197000
     47 HN23       -4.9700    0.9750   -1.5070 DU        1 FP4      0.271000
@<TRIPOS>BOND
     1    1    6 1   
     2    1   30 1   
     3    2    3 1   
     4    3   31 1   
     5    4    5 1   
     6    6   32 1   
     7    7    8 1   
     8    8    9 1   
     9    8   10 1   
    10   10   15 1   
    11   11   12 1   
    12   12   33 1   
    13   13   14 1   
    14   13   34 1   
    15   14   35 1   
    16   16   17 1   
    17   16   36 1   
    18   17   18 1   
    19   17   22 1   
    20   18   19 1   
    21   18   37 1   
    22   19   38 1   
    23   20   21 1   
    24   20   39 1   
    25   23   24 1   
    26   24   25 1   
    27   26   27 1   
    28   26   40 1   
    29   26   41 1   
    30   27   28 1   
    31   27   42 1   
    32   27   43 1   
    33   28   29 1   
    34   28   44 1   
    35   28   45 1   
    36   29   46 1   
@<TRIPOS>SUBSTRUCTURE
     1 FP4         1 TEMP              0 ****  ****    0 ROOT
