@<TRIPOS>MOLECULE
FP6
   16    16     1     0     0
SMALL
bcc


@<TRIPOS>ATOM
      1 OAA        -0.0630    0.0270    0.0000 o         1 FP6     -0.602100
      2 CAB         1.1790    0.0220    0.0260 c         1 FP6      0.658900
      3 CAC         3.6740    0.2230    2.7530 c3        1 FP6     -0.090900
      4 CAD         2.3740    0.5240    3.4930 c3        1 FP6     -0.090900
      5 CAE         3.3250    0.1760    1.2560 c3        1 FP6      0.087000
      6 CAF         1.2870    0.6830    2.4170 c3        1 FP6      0.087000
      7 NAG         1.9010    0.4160    1.1290 n         1 FP6     -0.484800
      8 HAB         1.8050   -0.2550   -0.8540 h5        1 FP6      0.028200
      9 HACA        4.4370    1.0160    2.9460 hc        1 FP6      0.052700
     10 HAD         2.4630    1.4620    4.0940 hc        1 FP6      0.052700
     11 HADA        2.1100   -0.3070    4.1910 hc        1 FP6      0.052700
     12 HAE         3.6040   -0.8190    0.8130 h1        1 FP6      0.048950
     13 HAEA        3.8860    0.9740    0.6940 h1        1 FP6      0.048950
     14 HAF         0.4280   -0.0220    2.5910 h1        1 FP6      0.048950
     15 HAFA        0.8760    1.7300    2.4150 h1        1 FP6      0.048950
     16 HAC         4.1040   -0.7550    3.0810 hc        1 FP6      0.052700
@<TRIPOS>BOND
     1    1    2 2   
     2    2    7 1   
     3    2    8 1   
     4    3    4 1   
     5    3    5 1   
     6    3    9 1   
     7    3   16 1   
     8    4    6 1   
     9    4   10 1   
    10    4   11 1   
    11    5    7 1   
    12    5   12 1   
    13    5   13 1   
    14    6    7 1   
    15    6   14 1   
    16    6   15 1   
@<TRIPOS>SUBSTRUCTURE
     1 FP6         1 TEMP              0 ****  ****    0 ROOT
