@<TRIPOS>MOLECULE
FP6
   16    16     1     0     0
SMALL
bcc


@<TRIPOS>ATOM
      1 OAA        -2.5210   -0.4320   -0.1180 o         1 FP6     -0.602100
      2 CAB        -1.6750    0.4720   -0.0180 c         1 FP6      0.658900
      3 CAC         2.0260    0.5220   -0.1170 c3        1 FP6     -0.090900
      4 CAD         1.7310   -0.9750   -0.0740 c3        1 FP6     -0.090900
      5 CAE         0.6790    1.2380    0.0900 c3        1 FP6      0.087000
      6 CAF         0.2230   -1.1160    0.1890 c3        1 FP6      0.087000
      7 NAG        -0.3440    0.2200    0.2240 n         1 FP6     -0.484800
      8 HAB        -1.9320    1.5550   -0.0690 h5        1 FP6      0.028200
      9 HACA        2.4730    0.8150   -1.0970 hc        1 FP6      0.052700
     10 HAD         2.0030   -1.4620   -1.0420 hc        1 FP6      0.052700
     11 HADA        2.3140   -1.4760    0.7370 hc        1 FP6      0.052700
     12 HAE         0.7040    1.8630    1.0250 h1        1 FP6      0.048950
     13 HAEA        0.4550    1.9200   -0.7760 h1        1 FP6      0.048950
     14 HAF        -0.2790   -1.7300   -0.6070 h1        1 FP6      0.048950
     15 HAFA        0.0360   -1.6170    1.1790 h1        1 FP6      0.048950
     16 HAC         2.7430    0.8120    0.6890 hc        1 FP6      0.052700
@<TRIPOS>BOND
     1    1    2 2   
     2    2    7 1   
     3    2    8 1   
     4    3    4 1   
     5    3    5 1   
     6    3    9 1   
     7    3   16 1   
     8    4    6 1   
     9    4   10 1   
    10    4   11 1   
    11    5    7 1   
    12    5   12 1   
    13    5   13 1   
    14    6    7 1   
    15    6   14 1   
    16    6   15 1   
@<TRIPOS>SUBSTRUCTURE
     1 FP6         1 TEMP              0 ****  ****    0 ROOT
