@<TRIPOS>MOLECULE
FP6
   16    15     1     0     0
SMALL
bcc


@<TRIPOS>ATOM
      1 OAA        -2.4350    0.1170   -1.9070 o         1 FP6     -0.363000
      2 CAB        -1.2180    0.1170   -1.9070 c1        1 FP6      0.260000
      3 CAC         0.0610    0.1170    1.4950 c3        1 FP6     -0.169500
      4 CAD         1.3260    0.3720    0.6700 c3        1 FP6     -0.169500
      5 CAE        -1.0200   -0.3750    0.4640 c3        1 FP6     -0.029000
      6 CAF         1.0770   -0.1710   -0.5190 c3        1 FP6     -0.029000
      7 NAG        -0.5090   -0.1330   -0.7040 n2        1 FP6     -0.343000
      8 HAB        -0.7300    0.2700   -2.7380 ha        1 FP6      0.121000
      9 HAC        -0.2330    0.9420    1.9250 hc        1 FP6      0.092000
     10 HACA        0.2280   -0.5730    2.1650 hc        1 FP6      0.092000
     11 HAD         2.0960   -0.0620    1.0870 hc        1 FP6      0.092000
     12 HADA        1.4850    1.3300    0.5790 hc        1 FP6      0.092000
     13 HAE        -1.8510    0.1240    0.5800 h1        1 FP6      0.088250
     14 HAEA       -1.1800   -1.3320    0.5710 h1        1 FP6      0.088250
     15 HAF         1.3950   -1.0940   -0.5400 h1        1 FP6      0.088250
     16 HAFA        1.5090    0.3490   -1.2220 h1        1 FP6      0.088250
@<TRIPOS>BOND
     1    1    2 1   
     2    2    8 1   
     3    3    4 1   
     4    3    5 1   
     5    3    9 1   
     6    3   10 1   
     7    4    6 1   
     8    4   11 1   
     9    4   12 1   
    10    5    7 1   
    11    5   13 1   
    12    5   14 1   
    13    6    7 1   
    14    6   15 1   
    15    6   16 1   
@<TRIPOS>SUBSTRUCTURE
     1 FP6         1 TEMP              0 ****  ****    0 ROOT
