@<TRIPOS>MOLECULE
FP6
   16    16     1     0     0
SMALL
bcc


@<TRIPOS>ATOM
      1 OAA        -0.0640    0.0160    0.0040 o         1 FP6     -0.602100
      2 CAB         1.1780    0.0040    0.0300 c         1 FP6      0.658900
      3 CAC         3.6730    0.2250    2.7550 c3        1 FP6     -0.090900
      4 CAD         2.3750    0.5440    3.4900 c3        1 FP6     -0.090900
      5 CAE         3.3240    0.1620    1.2580 c3        1 FP6      0.087000
      6 CAF         1.2890    0.6970    2.4120 c3        1 FP6      0.087000
      7 NAG         1.9020    0.4090    1.1280 n         1 FP6     -0.484800
      8 HAB         1.8020   -0.2880   -0.8460 h5        1 FP6      0.028200
      9 HACA        4.4410    1.0150    2.9380 hc        1 FP6      0.052700
     10 HAD         2.1050   -0.2780    4.1980 hc        1 FP6      0.052700
     11 HADA        2.4690    1.4870    4.0800 hc        1 FP6      0.052700
     12 HAE         3.8900    0.9500    0.6870 h1        1 FP6      0.048950
     13 HAEA        3.5980   -0.8400    0.8270 h1        1 FP6      0.048950
     14 HAF         0.4260   -0.0010    2.5950 h1        1 FP6      0.048950
     15 HAFA        0.8860    1.7460    2.3970 h1        1 FP6      0.048950
     16 HAC         4.0970   -0.7510    3.0950 hc        1 FP6      0.052700
@<TRIPOS>BOND
     1    1    2 2   
     2    2    7 1   
     3    2    8 1   
     4    3    4 1   
     5    3    5 1   
     6    3    9 1   
     7    3   16 1   
     8    4    6 1   
     9    4   10 1   
    10    4   11 1   
    11    5    7 1   
    12    5   12 1   
    13    5   13 1   
    14    6    7 1   
    15    6   14 1   
    16    6   15 1   
@<TRIPOS>SUBSTRUCTURE
     1 FP6         1 TEMP              0 ****  ****    0 ROOT
