@<TRIPOS>MOLECULE
FP6
   16    16     1     0     0
SMALL
bcc


@<TRIPOS>ATOM
      1 OAA        -0.0680    0.0280    0.0060 o         1 FP6     -0.602100
      2 CAB         1.1740    0.0090    0.0310 c         1 FP6      0.658900
      3 CAC         3.6740    0.2180    2.7540 c3        1 FP6     -0.090900
      4 CAD         2.3780    0.5460    3.4900 c3        1 FP6     -0.090900
      5 CAE         3.3220    0.1540    1.2570 c3        1 FP6      0.087000
      6 CAF         1.2920    0.7030    2.4130 c3        1 FP6      0.087000
      7 NAG         1.9010    0.4100    1.1280 n         1 FP6     -0.484800
      8 HAB         1.7960   -0.2890   -0.8450 h5        1 FP6      0.028200
      9 HACA        4.0920   -0.7600    3.0950 hc        1 FP6      0.052700
     10 HAD         2.1040   -0.2720    4.1990 hc        1 FP6      0.052700
     11 HADA        2.4780    1.4900    4.0780 hc        1 FP6      0.052700
     12 HAE         3.8930    0.9370    0.6840 h1        1 FP6      0.048950
     13 HAEA        3.5900   -0.8510    0.8290 h1        1 FP6      0.048950
     14 HAF         0.8950    1.7550    2.3960 h1        1 FP6      0.048950
     15 HAFA        0.4240    0.0120    2.5970 h1        1 FP6      0.048950
     16 HAC         4.4470    1.0040    2.9340 hc        1 FP6      0.052700
@<TRIPOS>BOND
     1    1    2 2   
     2    2    7 1   
     3    2    8 1   
     4    3    4 1   
     5    3    5 1   
     6    3    9 1   
     7    3   16 1   
     8    4    6 1   
     9    4   10 1   
    10    4   11 1   
    11    5    7 1   
    12    5   12 1   
    13    5   13 1   
    14    6    7 1   
    15    6   14 1   
    16    6   15 1   
@<TRIPOS>SUBSTRUCTURE
     1 FP6         1 TEMP              0 ****  ****    0 ROOT
