@<TRIPOS>MOLECULE
FP9
   16    16     1     0     0
SMALL
bcc


@<TRIPOS>ATOM
      1 C          -1.7150   -0.2060   -0.2840 c         1 FP9      0.935600
      2 N           0.2240   -1.0880    1.0680 n3        1 FP9     -0.750200
      3 O          -1.5220   -0.5730   -1.4750 o         1 FP9     -0.836800
      4 CA         -0.4680    0.1250    0.6070 c3        1 FP9      0.021500
      5 CB          0.5340    0.9830   -0.1970 c3        1 FP9     -0.115400
      6 CD          1.3510   -1.2980    0.1710 c3        1 FP9      0.121800
      7 FD          2.9270    0.5590   -0.0010 f         1 FP9     -0.277300
      8 CG          1.7310    0.0600   -0.4980 c3        1 FP9      0.126600
      9 OXT        -2.8430   -0.0300    0.2500 o         1 FP9     -0.836800
     10 HN          0.5730   -0.9210    1.9970 hn        1 FP9      0.310800
     11 HA         -0.8460    0.7020    1.4950 h1        1 FP9      0.041700
     12 HB          0.0610    1.3180   -1.1510 hc        1 FP9      0.051700
     13 HBA         0.8640    1.8770    0.3840 hc        1 FP9      0.051700
     14 HD          2.2330   -1.7430    0.7000 h1        1 FP9      0.050700
     15 HDA         1.0060   -1.9990   -0.6360 h1        1 FP9      0.050700
     16 HG          1.8540   -0.0820   -1.6060 h1        1 FP9      0.054700
@<TRIPOS>BOND
     1    1    3 1   
     2    1    4 1   
     3    1    9 1   
     4    2    4 1   
     5    2    6 1   
     6    2   10 1   
     7    4    5 1   
     8    4   11 1   
     9    5    8 1   
    10    5   12 1   
    11    5   13 1   
    12    6    8 1   
    13    6   14 1   
    14    6   15 1   
    15    7    8 1   
    16    8   16 1   
@<TRIPOS>SUBSTRUCTURE
     1 FP9         1 TEMP              0 ****  ****    0 ROOT
