@<TRIPOS>MOLECULE
FPA
    7     6     1     0     0
SMALL
bcc


@<TRIPOS>ATOM
      1 C1         -0.0710   -0.3710   -0.4850 c3        1 FPA      0.382000
      2 F1          0.8980   -1.2910   -0.5840 f         1 FPA     -0.240300
      3 F2         -1.2650   -0.9760   -0.5100 f         1 FPA     -0.240300
      4 C2          0.0840    0.3860    0.8160 c         1 FPA      0.947600
      5 O1          0.5510   -0.1950    1.8310 o         1 FPA     -0.753300
      6 O2         -0.2540    1.5970    0.8840 o         1 FPA     -0.753300
      7 BR1         0.0570    0.8490   -1.9510 br        1 FPA     -0.342400
@<TRIPOS>BOND
     1    1    2 1   
     2    1    3 1   
     3    1    4 1   
     4    1    7 1   
     5    4    5 1   
     6    4    6 1   
@<TRIPOS>SUBSTRUCTURE
     1 FPA         1 TEMP              0 ****  ****    0 ROOT
