@<TRIPOS>MOLECULE
FPA
    7     6     1     0     0
SMALL
bcc


@<TRIPOS>ATOM
      1 C1         -0.4430    0.5350    0.0000 c3        1 FPA      0.380000
      2 F1         -0.6340    1.3820   -1.0610 f         1 FPA     -0.245300
      3 F2         -0.6340    1.3820    1.0610 f         1 FPA     -0.245300
      4 C2         -1.5360   -0.6810   -0.0000 c         1 FPA      0.943600
      5 O1         -1.1130   -1.8470   -0.0000 o         1 FPA     -0.745800
      6 O2         -2.7060   -0.2470   -0.0000 o         1 FPA     -0.745800
      7 BR1         1.5210   -0.1490    0.0000 br        1 FPA     -0.341400
@<TRIPOS>BOND
     1    1    2 1   
     2    1    3 1   
     3    1    4 1   
     4    1    7 1   
     5    4    5 1   
     6    4    6 1   
@<TRIPOS>SUBSTRUCTURE
     1 FPA         1 TEMP              0 ****  ****    0 ROOT
