@<TRIPOS>MOLECULE
FPB
   54    56     1     0     0
SMALL
bcc


@<TRIPOS>ATOM
      1 O16        -0.0840    0.8740    0.4970 o         1 FPB     -0.626100
      2 C12         0.8690    0.1060    0.7520 c         1 FPB      0.665100
      3 C11         1.2790   -0.2390    2.1680 c3        1 FPB     -0.195400
      4 C10         0.1780    0.0940    3.1970 c3        1 FPB      0.194500
      5 N18        -0.1510    1.4920    3.3340 n3        1 FPB     -0.912800
      6 C9          0.6250   -0.5340    4.5340 c3        1 FPB     -0.035100
      7 C3         -0.3350   -0.2700    5.6360 ca        1 FPB     -0.093300
      8 C5         -0.2150    0.8870    6.4380 ca        1 FPB      0.142900
      9 F8          0.7850    1.7750    6.2150 f         1 FPB     -0.145900
     10 C7         -1.1270    1.1300    7.4830 ca        1 FPB     -0.164000
     11 C6         -2.1530    0.2230    7.7240 ca        1 FPB     -0.107000
     12 C4         -2.2790   -0.9230    6.9380 ca        1 FPB     -0.144000
     13 C2         -1.3770   -1.1630    5.9040 ca        1 FPB     -0.104000
     14 N13         1.5760   -0.4700   -0.2850 n         1 FPB     -0.473800
     15 C14         1.3590   -0.0940   -1.6790 c3        1 FPB      0.085700
     16 C21         2.5920   -0.5790   -2.4700 c3        1 FPB     -0.098400
     17 C20         3.4870   -1.3200   -1.4820 c3        1 FPB     -0.087400
     18 C19         2.7980   -1.2260   -0.1110 c3        1 FPB      0.094000
     19 C15         0.0440   -0.7070   -2.2450 c3        1 FPB      0.082000
     20 N17        -0.3610   -0.1400   -3.4980 n         1 FPB     -0.564900
     21 C22        -0.0820   -0.7280   -4.7150 c         1 FPB      0.669700
     22 O1          0.5110   -1.8250   -4.7830 o         1 FPB     -0.614100
     23 C25        -0.5580   -0.0250   -5.9420 ca        1 FPB     -0.141600
     24 C27        -1.0520   -0.8030   -6.9960 ca        1 FPB     -0.091500
     25 C28        -1.4980   -0.1890   -8.1640 ca        1 FPB     -0.137500
     26 C26        -1.4460    1.2000   -8.2880 ca        1 FPB     -0.109000
     27 C24        -0.9420    1.9750   -7.2440 ca        1 FPB     -0.137500
     28 C23        -0.4980    1.3670   -6.0700 ca        1 FPB     -0.091500
     29 H111        1.5140   -1.3340    2.2400 hc        1 FPB      0.067200
     30 H112        2.2170    0.3290    2.4080 hc        1 FPB      0.067200
     31 H10        -0.7690   -0.4250    2.8590 h1        1 FPB      0.072700
     32 H181        0.6250    2.0180    3.6820 hn        1 FPB      0.366300
     33 H182       -0.4620    1.8690    2.4580 hn        1 FPB      0.366300
     34 H9C1        1.6350   -0.1300    4.8140 hc        1 FPB      0.050700
     35 H9C2        0.7280   -1.6400    4.3800 hc        1 FPB      0.050700
     36 H7         -1.0200    2.0380    8.0930 ha        1 FPB      0.146000
     37 H6         -2.8680    0.4130    8.5380 ha        1 FPB      0.135000
     38 H4         -3.0930   -1.6360    7.1320 ha        1 FPB      0.134000
     39 H2         -1.4830   -2.0650    5.2830 ha        1 FPB      0.133000
     40 H14         1.2760    1.0320   -1.7310 h1        1 FPB      0.058700
     41 H211        2.2810   -1.2510   -3.3100 hc        1 FPB      0.068700
     42 H212        3.1280    0.2970   -2.9090 hc        1 FPB      0.068700
     43 H201        3.6080   -2.3910   -1.7790 hc        1 FPB      0.054700
     44 H202        4.5040   -0.8590   -1.4370 hc        1 FPB      0.054700
     45 H191        2.5530   -2.2520    0.2810 h1        1 FPB      0.040200
     46 H192        3.4690   -0.7210    0.6390 h1        1 FPB      0.040200
     47 H151       -0.7820   -0.5200   -1.4980 h1        1 FPB      0.075200
     48 H152        0.1820   -1.8180   -2.3720 h1        1 FPB      0.075200
     49 H17        -0.7840    0.7570   -3.4770 hn        1 FPB      0.315500
     50 H27        -1.0720   -1.9000   -6.8930 ha        1 FPB      0.144000
     51 H28        -1.8890   -0.8020   -8.9900 ha        1 FPB      0.137500
     52 H26        -1.7980    1.6840   -9.2110 ha        1 FPB      0.136000
     53 H24        -0.8920    3.0690   -7.3450 ha        1 FPB      0.137500
     54 H23        -0.0890    1.9900   -5.2610 ha        1 FPB      0.144000
@<TRIPOS>BOND
     1    1    2 2   
     2    2    3 1   
     3    2   14 1   
     4    3    4 1   
     5    3   29 1   
     6    3   30 1   
     7    4    5 1   
     8    4    6 1   
     9    4   31 1   
    10    5   32 1   
    11    5   33 1   
    12    6    7 1   
    13    6   34 1   
    14    6   35 1   
    15    7    8 ar  
    16    7   13 ar  
    17    8    9 1   
    18    8   10 ar  
    19   10   11 ar  
    20   10   36 1   
    21   11   12 ar  
    22   11   37 1   
    23   12   13 ar  
    24   12   38 1   
    25   13   39 1   
    26   14   15 1   
    27   14   18 1   
    28   15   16 1   
    29   15   19 1   
    30   15   40 1   
    31   16   17 1   
    32   16   41 1   
    33   16   42 1   
    34   17   18 1   
    35   17   43 1   
    36   17   44 1   
    37   18   45 1   
    38   18   46 1   
    39   19   20 1   
    40   19   47 1   
    41   19   48 1   
    42   20   21 1   
    43   20   49 1   
    44   21   22 2   
    45   21   23 1   
    46   23   24 ar  
    47   23   28 ar  
    48   24   25 ar  
    49   24   50 1   
    50   25   26 ar  
    51   25   51 1   
    52   26   27 ar  
    53   26   52 1   
    54   27   28 ar  
    55   27   53 1   
    56   28   54 1   
@<TRIPOS>SUBSTRUCTURE
     1 FPB         1 TEMP              0 ****  ****    0 ROOT
