@<TRIPOS>MOLECULE
FPB
   56    58     1     0     0
SMALL
bcc


@<TRIPOS>ATOM
      1 O16        -0.1020    0.3360   -0.1860 o         1 FPB     -0.669100
      2 C12         1.1410    0.2030   -0.0660 c         1 FPB      0.668100
      3 C11         1.8120    0.3630    1.2860 c3        1 FPB     -0.181400
      4 C10         0.8440    0.1560    2.4540 c3        1 FPB      0.139500
      5 N18        -0.2580    1.1760    2.4750 n4        1 FPB     -0.845600
      6 C9          1.6370    0.1760    3.7720 c3        1 FPB     -0.051100
      7 C3          0.7730    0.0680    4.9750 ca        1 FPB     -0.195300
      8 C5          0.2090    1.2220    5.5690 ca        1 FPB      0.087900
      9 F8          0.3760    2.4330    4.9700 f         1 FPB     -0.163900
     10 C7         -0.5170    1.1340    6.7670 ca        1 FPB     -0.134000
     11 C6         -0.6930   -0.1100    7.3690 ca        1 FPB     -0.069000
     12 C4         -0.1520   -1.2580    6.7870 ca        1 FPB     -0.117000
     13 C2          0.5790   -1.1670    5.6030 ca        1 FPB     -0.086000
     14 N13         1.9110   -0.1020   -1.1600 n         1 FPB     -0.444800
     15 C14         1.3720   -0.0870   -2.5160 c3        1 FPB      0.089700
     16 C21         2.5790   -0.1220   -3.4790 c3        1 FPB     -0.103400
     17 C20         3.8360   -0.0700   -2.6150 c3        1 FPB     -0.089400
     18 C19         3.3670   -0.1430   -1.1550 c3        1 FPB      0.079000
     19 C15         0.4140   -1.2820   -2.7590 c3        1 FPB      0.083800
     20 N17        -0.2720   -1.1940   -4.0750 n4        1 FPB     -0.678800
     21 C22        -1.2040   -2.3840   -4.3410 c         1 FPB      0.583700
     22 O1         -1.4280   -3.0890   -3.3690 o         1 FPB     -0.426100
     23 C25        -1.6810   -2.5230   -5.7100 ca        1 FPB     -0.219600
     24 C27        -2.2760   -3.7570   -6.0400 ca        1 FPB     -0.063000
     25 C28        -2.7650   -3.9690   -7.3280 ca        1 FPB     -0.120000
     26 C26        -2.6740   -2.9610   -8.2870 ca        1 FPB     -0.034000
     27 C24        -2.0920   -1.7300   -7.9580 ca        1 FPB     -0.120000
     28 C23        -1.5970   -1.5070   -6.6790 ca        1 FPB     -0.063000
     29 H111        2.2860    1.3820    1.3280 hc        1 FPB      0.113700
     30 H112        2.6380   -0.3940    1.4070 hc        1 FPB      0.113700
     31 H10         0.3320   -0.8490    2.3370 hx        1 FPB      0.118700
     32 H181       -0.7740    1.1510    1.5830 hn        1 FPB      0.471800
     33 H182        0.1310    2.1120    2.6300 hn        1 FPB      0.471800
     34 H9C1        2.2480    1.1190    3.8300 hc        1 FPB      0.095200
     35 H9C2        2.3550   -0.6900    3.7400 hc        1 FPB      0.095200
     36 H7         -0.9280    2.0490    7.2260 ha        1 FPB      0.177000
     37 H6         -1.2550   -0.1830    8.3160 ha        1 FPB      0.173000
     38 H4         -0.2900   -2.2380    7.2720 ha        1 FPB      0.169000
     39 H2          1.0250   -2.0750    5.1680 ha        1 FPB      0.148000
     40 H14         0.7840    0.8700   -2.6510 h1        1 FPB      0.077700
     41 H211        2.5780   -1.0560   -4.0950 hc        1 FPB      0.069200
     42 H212        2.5400    0.7550   -4.1730 hc        1 FPB      0.069200
     43 H201        4.4030    0.8780   -2.7940 hc        1 FPB      0.088700
     44 H202        4.5200   -0.9240   -2.8460 hc        1 FPB      0.088700
     45 H191        3.7770    0.7200   -0.5600 h1        1 FPB      0.069700
     46 H192        3.7070   -1.1020   -0.6720 h1        1 FPB      0.069700
     47 H151       -0.3800   -1.3020   -1.9540 hx        1 FPB      0.127200
     48 H152        0.9800   -2.2570   -2.7250 hx        1 FPB      0.127200
     49 H17        -0.8330   -0.3360   -4.1140 hn        1 FPB      0.456800
     50 H27        -2.3540   -4.5520   -5.2780 ha        1 FPB      0.146500
     51 H28        -3.2280   -4.9380   -7.5830 ha        1 FPB      0.176000
     52 H26        -3.0640   -3.1290   -9.3070 ha        1 FPB      0.178000
     53 H24        -2.0320   -0.9330   -8.7180 ha        1 FPB      0.176000
     54 H23        -1.1670   -0.5210   -6.4530 ha        1 FPB      0.146500
     55 H183       -0.8900    0.9630    3.2570 hn        1 FPB      0.471800
     56 H172        0.4250   -1.1550   -4.8280 hn        1 FPB      0.456800
@<TRIPOS>BOND
     1    1    2 2   
     2    2    3 1   
     3    2   14 1   
     4    3    4 1   
     5    3   29 1   
     6    3   30 1   
     7    4    5 1   
     8    4    6 1   
     9    4   31 1   
    10    5   32 1   
    11    5   33 1   
    12    5   55 1   
    13    6    7 1   
    14    6   34 1   
    15    6   35 1   
    16    7    8 ar  
    17    7   13 ar  
    18    8    9 1   
    19    8   10 ar  
    20   10   11 ar  
    21   10   36 1   
    22   11   12 ar  
    23   11   37 1   
    24   12   13 ar  
    25   12   38 1   
    26   13   39 1   
    27   14   15 1   
    28   14   18 1   
    29   15   16 1   
    30   15   19 1   
    31   15   40 1   
    32   16   17 1   
    33   16   41 1   
    34   16   42 1   
    35   17   18 1   
    36   17   43 1   
    37   17   44 1   
    38   18   45 1   
    39   18   46 1   
    40   19   20 1   
    41   19   47 1   
    42   19   48 1   
    43   20   21 1   
    44   20   49 1   
    45   20   56 1   
    46   21   22 2   
    47   21   23 1   
    48   23   24 ar  
    49   23   28 ar  
    50   24   25 ar  
    51   24   50 1   
    52   25   26 ar  
    53   25   51 1   
    54   26   27 ar  
    55   26   52 1   
    56   27   28 ar  
    57   27   53 1   
    58   28   54 1   
@<TRIPOS>SUBSTRUCTURE
     1 FPB         1 TEMP              0 ****  ****    0 ROOT
