@<TRIPOS>MOLECULE
FPB
   56    58     1     0     0
SMALL
bcc


@<TRIPOS>ATOM
      1 O16        -0.1080    0.3350   -0.1840 o         1 FPB     -0.668100
      2 C12         1.1360    0.2070   -0.0650 c         1 FPB      0.668100
      3 C11         1.8080    0.3670    1.2860 c3        1 FPB     -0.181400
      4 C10         0.8420    0.1560    2.4550 c3        1 FPB      0.139500
      5 N18        -0.2630    1.1720    2.4780 n4        1 FPB     -0.845600
      6 C9          1.6370    0.1780    3.7720 c3        1 FPB     -0.051100
      7 C3          0.7750    0.0660    4.9760 ca        1 FPB     -0.195300
      8 C5          0.2080    1.2180    5.5710 ca        1 FPB      0.087900
      9 F8          0.3700    2.4300    4.9730 f         1 FPB     -0.163900
     10 C7         -0.5160    1.1270    6.7710 ca        1 FPB     -0.134000
     11 C6         -0.6870   -0.1190    7.3720 ca        1 FPB     -0.069000
     12 C4         -0.1430   -1.2640    6.7880 ca        1 FPB     -0.117000
     13 C2          0.5860   -1.1690    5.6030 ca        1 FPB     -0.086000
     14 N13         1.9060   -0.0950   -1.1610 n         1 FPB     -0.444800
     15 C14         1.3660   -0.0810   -2.5160 c3        1 FPB      0.089700
     16 C21         2.5720   -0.1090   -3.4810 c3        1 FPB     -0.103400
     17 C20         3.8290   -0.0540   -2.6180 c3        1 FPB     -0.089400
     18 C19         3.3620   -0.1310   -1.1570 c3        1 FPB      0.079000
     19 C15         0.4120   -1.2790   -2.7590 c3        1 FPB      0.083800
     20 N17        -0.2750   -1.1930   -4.0740 n4        1 FPB     -0.678800
     21 C22        -1.2030   -2.3870   -4.3410 c         1 FPB      0.583700
     22 O1         -1.4260   -3.0920   -3.3680 o         1 FPB     -0.426100
     23 C25        -1.6760   -2.5300   -5.7100 ca        1 FPB     -0.219600
     24 C27        -2.2630   -3.7670   -6.0420 ca        1 FPB     -0.063000
     25 C28        -2.7490   -3.9820   -7.3300 ca        1 FPB     -0.120000
     26 C26        -2.6630   -2.9740   -8.2890 ca        1 FPB     -0.034000
     27 C24        -2.0900   -1.7390   -7.9590 ca        1 FPB     -0.120000
     28 C23        -1.5980   -1.5130   -6.6790 ca        1 FPB     -0.063000
     29 H111        2.2780    1.3890    1.3280 hc        1 FPB      0.113700
     30 H112        2.6370   -0.3860    1.4050 hc        1 FPB      0.113700
     31 H10         0.3340   -0.8500    2.3370 hx        1 FPB      0.118700
     32 H181       -0.8930    0.9570    3.2610 hn        1 FPB      0.471800
     33 H182       -0.7810    1.1450    1.5870 hn        1 FPB      0.471800
     34 H9C1        2.3580   -0.6850    3.7390 hc        1 FPB      0.095200
     35 H9C2        2.2450    1.1230    3.8300 hc        1 FPB      0.095200
     36 H7         -0.9290    2.0400    7.2300 ha        1 FPB      0.177000
     37 H6         -1.2470   -0.1940    8.3200 ha        1 FPB      0.173000
     38 H4         -0.2760   -2.2450    7.2730 ha        1 FPB      0.169000
     39 H2          1.0350   -2.0760    5.1680 ha        1 FPB      0.148000
     40 H14         0.7730    0.8740   -2.6490 h1        1 FPB      0.077700
     41 H211        2.5730   -1.0420   -4.0980 hc        1 FPB      0.069200
     42 H212        2.5280    0.7680   -4.1730 hc        1 FPB      0.069200
     43 H201        4.5160   -0.9060   -2.8510 hc        1 FPB      0.088700
     44 H202        4.3930    0.8960   -2.7970 hc        1 FPB      0.088700
     45 H191        3.7690    0.7340   -0.5630 h1        1 FPB      0.069700
     46 H192        3.7060   -1.0890   -0.6770 h1        1 FPB      0.069700
     47 H151        0.9820   -2.2520   -2.7270 hx        1 FPB      0.126700
     48 H152       -0.3820   -1.3030   -1.9540 hx        1 FPB      0.126700
     49 H17         0.4200   -1.1500   -4.8280 hn        1 FPB      0.456800
     50 H27        -2.3380   -4.5620   -5.2790 ha        1 FPB      0.146500
     51 H28        -3.2060   -4.9540   -7.5860 ha        1 FPB      0.176000
     52 H26        -3.0500   -3.1440   -9.3100 ha        1 FPB      0.178000
     53 H24        -2.0330   -0.9420   -8.7190 ha        1 FPB      0.176000
     54 H23        -1.1740   -0.5240   -6.4530 ha        1 FPB      0.146500
     55 H183        0.1230    2.1100    2.6330 hn        1 FPB      0.471800
     56 H172       -0.8400   -0.3370   -4.1120 hn        1 FPB      0.456800
@<TRIPOS>BOND
     1    1    2 2   
     2    2    3 1   
     3    2   14 1   
     4    3    4 1   
     5    3   29 1   
     6    3   30 1   
     7    4    5 1   
     8    4    6 1   
     9    4   31 1   
    10    5   32 1   
    11    5   33 1   
    12    5   55 1   
    13    6    7 1   
    14    6   34 1   
    15    6   35 1   
    16    7    8 ar  
    17    7   13 ar  
    18    8    9 1   
    19    8   10 ar  
    20   10   11 ar  
    21   10   36 1   
    22   11   12 ar  
    23   11   37 1   
    24   12   13 ar  
    25   12   38 1   
    26   13   39 1   
    27   14   15 1   
    28   14   18 1   
    29   15   16 1   
    30   15   19 1   
    31   15   40 1   
    32   16   17 1   
    33   16   41 1   
    34   16   42 1   
    35   17   18 1   
    36   17   43 1   
    37   17   44 1   
    38   18   45 1   
    39   18   46 1   
    40   19   20 1   
    41   19   47 1   
    42   19   48 1   
    43   20   21 1   
    44   20   49 1   
    45   20   56 1   
    46   21   22 2   
    47   21   23 1   
    48   23   24 ar  
    49   23   28 ar  
    50   24   25 ar  
    51   24   50 1   
    52   25   26 ar  
    53   25   51 1   
    54   26   27 ar  
    55   26   52 1   
    56   27   28 ar  
    57   27   53 1   
    58   28   54 1   
@<TRIPOS>SUBSTRUCTURE
     1 FPB         1 TEMP              0 ****  ****    0 ROOT
