@<TRIPOS>MOLECULE
FPB
   56    58     1     0     0
SMALL
bcc


@<TRIPOS>ATOM
      1 O16        -0.1020    0.3380   -0.1850 o         1 FPB     -0.668100
      2 C12         1.1410    0.2010   -0.0640 c         1 FPB      0.668100
      3 C11         1.8110    0.3580    1.2880 c3        1 FPB     -0.181400
      4 C10         0.8420    0.1530    2.4560 c3        1 FPB      0.139500
      5 N18        -0.2570    1.1760    2.4770 nz        1 FPB     -0.845600
      6 C9          1.6350    0.1710    3.7740 c3        1 FPB     -0.051100
      7 C3          0.7690    0.0650    4.9760 ca        1 FPB     -0.195300
      8 C5          0.2090    1.2210    5.5700 ca        1 FPB      0.087900
      9 F8          0.3790    2.4310    4.9720 f         1 FPB     -0.163900
     10 C7         -0.5180    1.1350    6.7690 ca        1 FPB     -0.134000
     11 C6         -0.6980   -0.1090    7.3700 ca        1 FPB     -0.069000
     12 C4         -0.1600   -1.2580    6.7880 ca        1 FPB     -0.117000
     13 C2          0.5710   -1.1690    5.6040 ca        1 FPB     -0.086000
     14 N13         1.9110   -0.1060   -1.1580 n         1 FPB     -0.444800
     15 C14         1.3730   -0.0880   -2.5140 c3        1 FPB      0.089700
     16 C21         2.5810   -0.1250   -3.4770 c3        1 FPB     -0.103400
     17 C20         3.8370   -0.0780   -2.6110 c3        1 FPB     -0.089400
     18 C19         3.3660   -0.1510   -1.1520 c3        1 FPB      0.079000
     19 C15         0.4120   -1.2800   -2.7590 c3        1 FPB      0.083800
     20 N17        -0.2720   -1.1900   -4.0760 ny        1 FPB     -0.678800
     21 C22        -1.2070   -2.3770   -4.3430 c         1 FPB      0.583700
     22 O1         -1.4360   -3.0810   -3.3710 o         1 FPB     -0.426100
     23 C25        -1.6790   -2.5170   -5.7140 ca        1 FPB     -0.219600
     24 C27        -2.2740   -3.7510   -6.0460 ca        1 FPB     -0.063000
     25 C28        -2.7590   -3.9620   -7.3360 ca        1 FPB     -0.120000
     26 C26        -2.6640   -2.9550   -8.2950 ca        1 FPB     -0.034000
     27 C24        -2.0830   -1.7240   -7.9630 ca        1 FPB     -0.120000
     28 C23        -1.5920   -1.5010   -6.6830 ca        1 FPB     -0.063000
     29 H111        2.6350   -0.4010    1.4100 hc        1 FPB      0.113700
     30 H112        2.2880    1.3760    1.3310 hc        1 FPB      0.113700
     31 H10         0.3270   -0.8500    2.3380 hx        1 FPB      0.118700
     32 H181        0.1350    2.1120    2.6320 hn        1 FPB      0.471800
     33 H182       -0.7730    1.1530    1.5840 hn        1 FPB      0.471800
     34 H9C1        2.3500   -0.6960    3.7430 hc        1 FPB      0.095200
     35 H9C2        2.2480    1.1130    3.8330 hc        1 FPB      0.095200
     36 H7         -0.9260    2.0510    7.2270 ha        1 FPB      0.177000
     37 H6         -1.2600   -0.1800    8.3170 ha        1 FPB      0.173000
     38 H4         -0.3010   -2.2380    7.2730 ha        1 FPB      0.169000
     39 H2          1.0150   -2.0790    5.1700 ha        1 FPB      0.148000
     40 H14         0.7870    0.8710   -2.6480 h1        1 FPB      0.077700
     41 H211        2.5770   -1.0580   -4.0940 hc        1 FPB      0.069200
     42 H212        2.5440    0.7530   -4.1690 hc        1 FPB      0.069200
     43 H201        4.5190   -0.9340   -2.8430 hc        1 FPB      0.088700
     44 H202        4.4070    0.8690   -2.7890 hc        1 FPB      0.088700
     45 H191        3.7780    0.7110   -0.5560 h1        1 FPB      0.069700
     46 H192        3.7030   -1.1110   -0.6700 h1        1 FPB      0.069700
     47 H151        0.9750   -2.2570   -2.7260 hx        1 FPB      0.126700
     48 H152       -0.3830   -1.2990   -1.9550 hx        1 FPB      0.126700
     49 H17        -0.8310   -0.3310   -4.1140 hn        1 FPB      0.456800
     50 H27        -2.3550   -4.5450   -5.2840 ha        1 FPB      0.146500
     51 H28        -3.2220   -4.9310   -7.5920 ha        1 FPB      0.176000
     52 H26        -3.0510   -3.1220   -9.3160 ha        1 FPB      0.178000
     53 H24        -2.0200   -0.9270   -8.7230 ha        1 FPB      0.176000
     54 H23        -1.1620   -0.5150   -6.4550 ha        1 FPB      0.146500
     55 H183       -0.8900    0.9650    3.2580 hn        1 FPB      0.471800
     56 H172        0.4250   -1.1520   -4.8280 hn        1 FPB      0.456800
@<TRIPOS>BOND
     1    1    2 2   
     2    2    3 1   
     3    2   14 1   
     4    3    4 1   
     5    3   29 1   
     6    3   30 1   
     7    4    5 1   
     8    4    6 1   
     9    4   31 1   
    10    5   32 1   
    11    5   33 1   
    12    5   55 1   
    13    6    7 1   
    14    6   34 1   
    15    6   35 1   
    16    7    8 ar  
    17    7   13 ar  
    18    8    9 1   
    19    8   10 ar  
    20   10   11 ar  
    21   10   36 1   
    22   11   12 ar  
    23   11   37 1   
    24   12   13 ar  
    25   12   38 1   
    26   13   39 1   
    27   14   15 1   
    28   14   18 1   
    29   15   16 1   
    30   15   19 1   
    31   15   40 1   
    32   16   17 1   
    33   16   41 1   
    34   16   42 1   
    35   17   18 1   
    36   17   43 1   
    37   17   44 1   
    38   18   45 1   
    39   18   46 1   
    40   19   20 1   
    41   19   47 1   
    42   19   48 1   
    43   20   21 1   
    44   20   49 1   
    45   20   56 1   
    46   21   22 2   
    47   21   23 1   
    48   23   24 ar  
    49   23   28 ar  
    50   24   25 ar  
    51   24   50 1   
    52   25   26 ar  
    53   25   51 1   
    54   26   27 ar  
    55   26   52 1   
    56   27   28 ar  
    57   27   53 1   
    58   28   54 1   
@<TRIPOS>SUBSTRUCTURE
     1 FPB         1 TEMP              0 ****  ****    0 ROOT
