@<TRIPOS>MOLECULE
FPC
   29    28     1     0     0
SMALL
bcc


@<TRIPOS>ATOM
      1 O6         -3.1700   -0.2050   -1.7260 os        1 FPC     -0.567200
      2 C6         -1.7530   -0.0690   -1.7020 c3        1 FPC      0.206400
      3 C5         -1.2630   -0.1320   -0.2670 c3        1 FPC      0.050100
      4 O5         -1.7100   -1.3320    0.3340 oh        1 FPC     -0.670800
      5 C2          2.2590    0.0070    1.2090 c3        1 FPC      0.100100
      6 C1          2.7660    0.8710    2.3440 c3        1 FPC      0.101400
      7 O1          4.1630    0.9390    2.2870 oh        1 FPC     -0.633800
      8 O2          2.6830   -1.3260    1.4040 oh        1 FPC     -0.634800
      9 O3          0.2300   -0.9910    1.9450 oh        1 FPC     -0.660800
     10 C3          0.7410    0.0540    1.1770 c3        1 FPC      0.072100
     11 C4          0.2590   -0.0890   -0.2480 c3        1 FPC      0.173100
     12 O4          0.7060    1.0040   -1.0080 oh        1 FPC     -0.683800
     13 P          -3.9080   -0.1880   -3.1230 p5        1 FPC      1.328900
     14 O1P        -5.3980   -0.4330   -2.9130 o         1 FPC     -0.916167
     15 O2P        -3.7040    1.1710   -3.7880 o         1 FPC     -0.916167
     16 O3P        -3.3400   -1.2740   -4.0080 o         1 FPC     -0.916167
     17 H61        -1.3350   -0.8160   -2.2330 h1        1 FPC      0.005700
     18 H62        -1.5020    0.7860   -2.0920 h1        1 FPC      0.005700
     19 H5         -1.6160    0.6320    0.2310 h1        1 FPC      0.064700
     20 HO5        -2.4930   -1.1930    0.7250 ho        1 FPC      0.399000
     21 H2          2.6170    0.3430    0.3550 h1        1 FPC      0.111700
     22 H11         2.3910    1.7730    2.2610 h1        1 FPC      0.046200
     23 H12         2.4910    0.4800    3.2000 h1        1 FPC      0.046200
     24 HO1         4.4600    1.4730    2.9290 ho        1 FPC      0.406000
     25 HO2         3.3080   -1.5320    0.7970 ho        1 FPC      0.410000
     26 HO3        -0.0800   -0.6680    2.7150 ho        1 FPC      0.432000
     27 H3          0.4240    0.9310    1.5520 h1        1 FPC      0.087700
     28 H4          0.6130   -0.9160   -0.6290 h1        1 FPC      0.032700
     29 HO4         1.1620    0.7020   -1.7300 ho        1 FPC      0.521000
@<TRIPOS>BOND
     1    1    2 1   
     2    1   13 1   
     3    2    3 1   
     4    2   17 1   
     5    2   18 1   
     6    3    4 1   
     7    3   11 1   
     8    3   19 1   
     9    4   20 1   
    10    5    6 1   
    11    5    8 1   
    12    5   10 1   
    13    5   21 1   
    14    6    7 1   
    15    6   22 1   
    16    6   23 1   
    17    7   24 1   
    18    8   25 1   
    19    9   10 1   
    20    9   26 1   
    21   10   11 1   
    22   10   27 1   
    23   11   12 1   
    24   11   28 1   
    25   12   29 1   
    26   13   14 1   
    27   13   15 1   
    28   13   16 1   
@<TRIPOS>SUBSTRUCTURE
     1 FPC         1 TEMP              0 ****  ****    0 ROOT
