@<TRIPOS>MOLECULE
FPC
   29    28     1     0     0
SMALL
bcc


@<TRIPOS>ATOM
      1 O6         -0.0230   -0.2910    0.1640 os        1 FPC     -0.562200
      2 C6          1.1980    0.3340    0.2190 c3        1 FPC      0.157400
      3 C5          1.8400    0.0770    1.6010 c3        1 FPC      0.099100
      4 O5          1.4670   -1.1870    2.1240 oh        1 FPC     -0.669800
      5 C2          5.5350   -0.0220    2.8370 c3        1 FPC      0.112100
      6 C1          6.2130    0.4220    4.1370 c3        1 FPC      0.088400
      7 O1          7.5900    0.0770    4.0370 oh        1 FPC     -0.621800
      8 O2          5.7270   -1.4140    2.6420 oh        1 FPC     -0.588800
      9 O3          3.4430   -0.5840    3.9110 oh        1 FPC     -0.615800
     10 C3          4.0180    0.2450    2.9260 c3        1 FPC      0.160100
     11 C4          3.3790    0.0960    1.5310 c3        1 FPC      0.106100
     12 O4          3.8840    1.1970    0.7830 oh        1 FPC     -0.645800
     13 P          -0.6970   -0.0510   -1.4480 p5        1 FPC      1.310900
     14 O1P        -0.7250    1.4520   -1.5110 o         1 FPC     -0.927833
     15 O2P         0.3730   -0.7040   -2.2810 o         1 FPC     -0.927833
     16 O3P        -2.0120   -0.7630   -1.3390 o         1 FPC     -0.927833
     17 H61         1.0720    1.4420    0.0630 h1        1 FPC      0.023700
     18 H62         1.8640   -0.0780   -0.5950 h1        1 FPC      0.023700
     19 H5          1.4980    0.8540    2.3400 h1        1 FPC      0.025700
     20 HO5         0.7300   -1.5160    1.5760 ho        1 FPC      0.465000
     21 H11         6.1200    1.5320    4.2660 h1        1 FPC      0.036200
     22 H12         5.7350   -0.1030    5.0050 h1        1 FPC      0.036200
     23 HO1         7.9390    0.0850    4.9340 ho        1 FPC      0.386000
     24 HO2         6.6810   -1.5430    2.5710 ho        1 FPC      0.394000
     25 H3          3.8710    1.2990    3.2950 h1        1 FPC      0.058700
     26 H4          3.7400   -0.8620    1.0600 h1        1 FPC      0.057700
     27 HO4         3.3080    1.3130    0.0150 ho        1 FPC      0.441000
     28 H2          5.9600    0.5490    1.9650 h1        1 FPC      0.062700
     29 HO3         3.0900   -1.3690    3.4680 ho        1 FPC      0.443000
@<TRIPOS>BOND
     1    1    2 1   
     2    1   13 1   
     3    2    3 1   
     4    2   17 1   
     5    2   18 1   
     6    3    4 1   
     7    3   11 1   
     8    3   19 1   
     9    4   20 1   
    10    5    6 1   
    11    5    8 1   
    12    5   10 1   
    13    5   28 1   
    14    6    7 1   
    15    6   21 1   
    16    6   22 1   
    17    7   23 1   
    18    8   24 1   
    19    9   10 1   
    20    9   29 1   
    21   10   11 1   
    22   10   25 1   
    23   11   12 1   
    24   11   26 1   
    25   12   27 1   
    26   13   14 1   
    27   13   15 1   
    28   13   16 1   
@<TRIPOS>SUBSTRUCTURE
     1 FPC         1 TEMP              0 ****  ****    0 ROOT
