@<TRIPOS>MOLECULE
FPC
   29    28     1     0     0
SMALL
bcc


@<TRIPOS>ATOM
      1 O6         -0.0220   -0.3170    0.1670 os        1 FPC     -0.562200
      2 C6          1.1940    0.3180    0.2210 c3        1 FPC      0.157400
      3 C5          1.8390    0.0670    1.6020 c3        1 FPC      0.099100
      4 O5          1.4770   -1.2010    2.1260 oh        1 FPC     -0.669800
      5 C2          5.5370   -0.0030    2.8350 c3        1 FPC      0.112100
      6 C1          6.2120    0.4460    4.1340 c3        1 FPC      0.088400
      7 O1          7.5920    0.1120    4.0330 oh        1 FPC     -0.621800
      8 O2          5.7390   -1.3940    2.6400 oh        1 FPC     -0.588800
      9 O3          3.4500   -0.5820    3.9100 oh        1 FPC     -0.615800
     10 C3          4.0180    0.2510    2.9250 c3        1 FPC      0.160100
     11 C4          3.3780    0.0970    1.5310 c3        1 FPC      0.106100
     12 O4          3.8740    1.2030    0.7820 oh        1 FPC     -0.645800
     13 P          -0.6990   -0.0810   -1.4440 p5        1 FPC      1.310900
     14 O1P        -0.7390    1.4220   -1.5070 o         1 FPC     -0.927833
     15 O2P         0.3740   -0.7250   -2.2790 o         1 FPC     -0.927833
     16 O3P        -2.0090   -0.8040   -1.3350 o         1 FPC     -0.927833
     17 H61         1.0600    1.4250    0.0650 h1        1 FPC      0.023700
     18 H62         1.8630   -0.0890   -0.5940 h1        1 FPC      0.023700
     19 H5          1.4920    0.8400    2.3410 h1        1 FPC      0.025700
     20 HO5         0.7420   -1.5360    1.5780 ho        1 FPC      0.465000
     21 H11         6.1100    1.5550    4.2640 h1        1 FPC      0.036200
     22 H12         5.7390   -0.0830    5.0020 h1        1 FPC      0.036200
     23 HO1         7.9410    0.1230    4.9290 ho        1 FPC      0.386000
     24 HO2         6.6940   -1.5150    2.5670 ho        1 FPC      0.394000
     25 H3          3.8620    1.3040    3.2940 h1        1 FPC      0.058700
     26 H4          3.7460   -0.8570    1.0590 h1        1 FPC      0.057700
     27 HO4         3.2960    1.3140    0.0150 ho        1 FPC      0.441000
     28 H2          5.9560    0.5710    1.9620 h1        1 FPC      0.062700
     29 HO3         3.1030   -1.3710    3.4680 ho        1 FPC      0.443000
@<TRIPOS>BOND
     1    1    2 1   
     2    1   13 1   
     3    2    3 1   
     4    2   17 1   
     5    2   18 1   
     6    3    4 1   
     7    3   11 1   
     8    3   19 1   
     9    4   20 1   
    10    5    6 1   
    11    5    8 1   
    12    5   10 1   
    13    5   28 1   
    14    6    7 1   
    15    6   21 1   
    16    6   22 1   
    17    7   23 1   
    18    8   24 1   
    19    9   10 1   
    20    9   29 1   
    21   10   11 1   
    22   10   25 1   
    23   11   12 1   
    24   11   26 1   
    25   12   27 1   
    26   13   14 1   
    27   13   15 1   
    28   13   16 1   
@<TRIPOS>SUBSTRUCTURE
     1 FPC         1 TEMP              0 ****  ****    0 ROOT
