@<TRIPOS>MOLECULE
FPC
   29    28     1     0     0
SMALL
bcc


@<TRIPOS>ATOM
      1 O6          2.4290    0.0980   -0.7150 os        1 FPC     -0.558200
      2 C6          1.2790    0.6800   -0.2610 c3        1 FPC      0.205400
      3 C5          0.0320   -0.1250   -0.7100 c3        1 FPC      0.095100
      4 O5          0.0240   -1.4410   -0.2240 oh        1 FPC     -0.714800
      5 C2         -3.7960    0.3950   -0.0920 c3        1 FPC      0.107100
      6 C1         -4.9470   -0.5470   -0.4670 c3        1 FPC      0.102400
      7 O1         -6.2130    0.0450   -0.2320 oh        1 FPC     -0.631800
      8 O2         -4.0520    0.9100    1.2060 oh        1 FPC     -0.629800
      9 O3         -2.4050   -1.1900    0.9580 oh        1 FPC     -0.663800
     10 C3         -2.4560   -0.3540   -0.1890 c3        1 FPC      0.142100
     11 C4         -1.2490    0.5980   -0.2310 c3        1 FPC      0.087100
     12 O4         -1.5820    1.6670   -1.1160 oh        1 FPC     -0.640800
     13 P           3.4130   -0.5760    0.5570 p5        1 FPC      1.323900
     14 O1P         3.5480    0.5940    1.4880 o         1 FPC     -0.914833
     15 O2P         2.4330   -1.6360    1.0250 o         1 FPC     -0.914833
     16 O3P         4.6370   -1.0540   -0.1580 o         1 FPC     -0.914833
     17 H61         1.2780    0.7620    0.8640 h1        1 FPC     -0.007300
     18 H62         1.1680    1.7180   -0.7010 h1        1 FPC     -0.007300
     19 H5          0.0020   -0.1790   -1.8360 h1        1 FPC      0.013700
     20 HO5         0.9290   -1.6250    0.1910 ho        1 FPC      0.523000
     21 H11        -4.9240   -0.7810   -1.5630 h1        1 FPC      0.043200
     22 H12        -4.8680   -1.4960    0.1280 h1        1 FPC      0.043200
     23 HO1        -6.1350    0.5560    0.5840 ho        1 FPC      0.411000
     24 HO2        -3.6030    0.3360    1.8430 ho        1 FPC      0.426000
     25 H3         -2.4500   -0.9940   -1.1140 h1        1 FPC      0.048700
     26 H4         -1.0920    1.0270    0.7980 h1        1 FPC      0.050700
     27 HO4        -0.7450    2.0160   -1.4480 ho        1 FPC      0.415000
     28 H2         -3.7880    1.2950   -0.7680 h1        1 FPC      0.091700
     29 HO3        -1.4900   -1.5130    1.0470 ho        1 FPC      0.472000
@<TRIPOS>BOND
     1    1    2 1   
     2    1   13 1   
     3    2    3 1   
     4    2   17 1   
     5    2   18 1   
     6    3    4 1   
     7    3   11 1   
     8    3   19 1   
     9    4   20 1   
    10    5    6 1   
    11    5    8 1   
    12    5   10 1   
    13    5   28 1   
    14    6    7 1   
    15    6   21 1   
    16    6   22 1   
    17    7   23 1   
    18    8   24 1   
    19    9   10 1   
    20    9   29 1   
    21   10   11 1   
    22   10   25 1   
    23   11   12 1   
    24   11   26 1   
    25   12   27 1   
    26   13   14 1   
    27   13   15 1   
    28   13   16 1   
@<TRIPOS>SUBSTRUCTURE
     1 FPC         1 TEMP              0 ****  ****    0 ROOT
