@<TRIPOS>MOLECULE
FPD
   54    56     1     0     0
SMALL
bcc


@<TRIPOS>ATOM
      1 O4         -0.2290   -0.4510    2.6800 o         1 FPD     -0.619500
      2 C11        -0.9170   -0.6730    1.6680 c         1 FPD      0.666500
      3 N2         -2.1580   -0.1160    1.4800 n         1 FPD     -0.562900
      4 C5         -2.9440   -0.3710    0.2890 c3        1 FPD      0.221200
      5 C6         -2.7050   -1.8100   -0.2710 c         1 FPD      0.687500
      6 O6         -3.5810   -2.4010   -0.9220 o         1 FPD     -0.603500
      7 N1         -1.4740   -2.3830   -0.0500 n         1 FPD     -0.590900
      8 C10        -0.3870   -1.6530    0.5790 c3        1 FPD      0.256200
      9 O7          0.4850   -2.6080    1.1680 oh        1 FPD     -0.583800
     10 C4         -4.4920   -0.2100    0.5590 c3        1 FPD      0.133100
     11 O3         -4.8610   -0.9650    1.6880 oh        1 FPD     -0.570800
     12 C1         -4.9550    1.2670    0.6550 c3        1 FPD      0.137800
     13 C3         -6.1660    1.3940    1.5760 c3        1 FPD     -0.097100
     14 O2         -3.9290    2.0630    1.2300 oh        1 FPD     -0.605800
     15 C2         -5.3330    1.7510   -0.7590 c3        1 FPD      0.097400
     16 O1         -5.3110    3.1690   -0.7240 oh        1 FPD     -0.598800
     17 O5         -2.6470    0.5870   -0.7360 os        1 FPD     -0.433600
     18 C7         -1.5160    0.3450   -1.5650 c3        1 FPD      0.124400
     19 C8         -0.1810    0.4740   -0.8570 c3        1 FPD     -0.130400
     20 C9          0.4730   -0.8380   -0.4490 c3        1 FPD     -0.049700
     21 C12         1.8400   -0.5670    0.1540 c3        1 FPD     -0.038300
     22 S1          2.8240    0.2710   -1.0580 ss        1 FPD     -0.198000
     23 C           4.4110    0.2110   -0.4610 ca        1 FPD     -0.012100
     24 C54         5.4050    0.6180   -1.3620 ca        1 FPD     -0.079000
     25 C53         6.7460    0.6390   -0.9730 ca        1 FPD     -0.182600
     26 C13         7.7750    1.0730   -1.9330 c         1 FPD      0.575500
     27 O8          8.9790    1.1170   -1.6710 o         1 FPD     -0.525100
     28 C52         7.1040    0.2450    0.3240 ca        1 FPD     -0.078000
     29 C51         6.1170   -0.1620    1.2190 ca        1 FPD     -0.128000
     30 C50         4.7780   -0.1760    0.8320 ca        1 FPD     -0.109000
     31 HN2        -2.4490    0.6520    2.0510 hn        1 FPD      0.353500
     32 HN1        -1.2840   -3.3070   -0.3660 hn        1 FPD      0.343500
     33 HO7         0.2340   -2.7200    2.0980 ho        1 FPD      0.437000
     34 H4         -5.0240   -0.7180   -0.3000 h1        1 FPD      0.119700
     35 HO3        -4.5900   -0.4790    2.4790 ho        1 FPD      0.412000
     36 H31        -6.6430    2.3910    1.4150 hc        1 FPD      0.055367
     37 H32        -6.8970    0.5820    1.3550 hc        1 FPD      0.055367
     38 H33        -5.8480    1.3230    2.6430 hc        1 FPD      0.055367
     39 HO2        -3.4430    2.4840    0.5080 ho        1 FPD      0.431000
     40 H21        -4.5900    1.3780   -1.5150 h1        1 FPD      0.045200
     41 H22        -6.3580    1.3810   -1.0240 h1        1 FPD      0.045200
     42 HO1        -5.5460    3.4680   -1.6110 ho        1 FPD      0.408000
     43 H71        -1.6150    1.1710   -2.3290 h1        1 FPD      0.065200
     44 H72        -1.6180   -0.6390   -2.0930 h1        1 FPD      0.065200
     45 H81        -0.2830    1.1530    0.0300 hc        1 FPD      0.076200
     46 H82         0.5270    0.9880   -1.5700 hc        1 FPD      0.076200
     47 H9          0.6080   -1.4840   -1.3630 hc        1 FPD      0.084700
     48 H121        1.7330    0.0490    1.0820 h1        1 FPD      0.092700
     49 H122        2.3250   -1.5340    0.4440 h1        1 FPD      0.092700
     50 H54         5.1210    0.9210   -2.3830 ha        1 FPD      0.143000
     51 H13         7.3910    1.3690   -2.9360 h4        1 FPD     -0.000800
     52 H52         8.1650    0.2630    0.6190 ha        1 FPD      0.156000
     53 H51         6.3940   -0.4710    2.2380 ha        1 FPD      0.141000
     54 H50         4.0110   -0.4910    1.5570 ha        1 FPD      0.141000
@<TRIPOS>BOND
     1    1    2 2   
     2    2    3 1   
     3    2    8 1   
     4    3    4 1   
     5    3   31 1   
     6    4    5 1   
     7    4   10 1   
     8    4   17 1   
     9    5    6 2   
    10    5    7 1   
    11    7    8 1   
    12    7   32 1   
    13    8    9 1   
    14    8   20 1   
    15    9   33 1   
    16   10   11 1   
    17   10   12 1   
    18   10   34 1   
    19   11   35 1   
    20   12   13 1   
    21   12   14 1   
    22   12   15 1   
    23   13   36 1   
    24   13   37 1   
    25   13   38 1   
    26   14   39 1   
    27   15   16 1   
    28   15   40 1   
    29   15   41 1   
    30   16   42 1   
    31   17   18 1   
    32   18   19 1   
    33   18   43 1   
    34   18   44 1   
    35   19   20 1   
    36   19   45 1   
    37   19   46 1   
    38   20   21 1   
    39   20   47 1   
    40   21   22 1   
    41   21   48 1   
    42   21   49 1   
    43   22   23 1   
    44   23   24 ar  
    45   23   30 ar  
    46   24   25 ar  
    47   24   50 1   
    48   25   26 1   
    49   25   28 ar  
    50   26   27 2   
    51   26   51 1   
    52   28   29 ar  
    53   28   52 1   
    54   29   30 ar  
    55   29   53 1   
    56   30   54 1   
@<TRIPOS>SUBSTRUCTURE
     1 FPD         1 TEMP              0 ****  ****    0 ROOT
