@<TRIPOS>MOLECULE
FPD
   54    56     1     0     0
SMALL
bcc


@<TRIPOS>ATOM
      1 O4         -0.0320    0.1050    0.6120 o         1 FPD     -0.627500
      2 C11         1.1920    0.0360    0.3950 c         1 FPD      0.664500
      3 N2          2.1200    0.0210    1.4030 n         1 FPD     -0.564900
      4 C5          3.5460   -0.0370    1.1390 c3        1 FPD      0.228200
      5 C6          3.8710    0.7820   -0.1580 c         1 FPD      0.667500
      6 O6          4.8970    1.4800   -0.2370 o         1 FPD     -0.623500
      7 N1          2.9750    0.7160   -1.1960 n         1 FPD     -0.583900
      8 C10         1.7060    0.0130   -1.0770 c3        1 FPD      0.256200
      9 O7          0.7780    0.6850   -1.9210 oh        1 FPD     -0.587800
     10 C4          4.4240    0.5750    2.2970 c3        1 FPD      0.157100
     11 O3          3.8940    1.8340    2.6640 oh        1 FPD     -0.596800
     12 C1          4.5760   -0.2680    3.5860 c3        1 FPD      0.174800
     13 C3          3.3180   -0.9720    4.0620 c3        1 FPD     -0.128100
     14 O2          5.5870   -1.2220    3.2680 oh        1 FPD     -0.589800
     15 C2          5.0990    0.6610    4.7050 c3        1 FPD      0.102400
     16 O1          5.4980   -0.1840    5.7730 oh        1 FPD     -0.616800
     17 O5          4.0090   -1.3800    1.0260 os        1 FPD     -0.385600
     18 C7          3.8670   -2.0510   -0.2190 c3        1 FPD      0.121400
     19 C8          2.4340   -2.3970   -0.5740 c3        1 FPD     -0.130400
     20 C9          1.7770   -1.4660   -1.5810 c3        1 FPD     -0.045700
     21 C12         0.3730   -1.9500   -1.8970 c3        1 FPD     -0.040300
     22 S1          0.4890   -3.5960   -2.5400 ss        1 FPD     -0.192000
     23 C          -1.0360   -3.9190   -3.2110 ca        1 FPD     -0.014100
     24 C54        -1.1150   -5.0850   -3.9840 ca        1 FPD     -0.079000
     25 C53        -2.3260   -5.4700   -4.5630 ca        1 FPD     -0.182600
     26 C13        -2.3890   -6.7020   -5.3680 c         1 FPD      0.575500
     27 O8         -3.4160   -7.1080   -5.9160 o         1 FPD     -0.525100
     28 C52        -3.4700   -4.6830   -4.3760 ca        1 FPD     -0.078000
     29 C51        -3.3930   -3.5220   -3.6110 ca        1 FPD     -0.128000
     30 C50        -2.1850   -3.1430   -3.0280 ca        1 FPD     -0.110000
     31 HN2         1.8210    0.0430    2.3520 hn        1 FPD      0.349500
     32 HN1         3.1310    1.2340   -2.0320 hn        1 FPD      0.343500
     33 HO7         0.2240    1.2630   -1.3760 ho        1 FPD      0.438000
     34 H4          5.4600    0.6840    1.8560 h1        1 FPD      0.102700
     35 HO3         4.1160    2.4440    1.9460 ho        1 FPD      0.423000
     36 H31         3.5390   -1.5040    5.0210 hc        1 FPD      0.054700
     37 H32         2.5070   -0.2310    4.2550 hc        1 FPD      0.054700
     38 H33         2.9900   -1.7280    3.3080 hc        1 FPD      0.054700
     39 HO2         5.7720   -1.7050    4.0850 ho        1 FPD      0.422000
     40 H21         4.2860    1.3550    5.0410 h1        1 FPD      0.045200
     41 H22         5.9730    1.2540    4.3280 h1        1 FPD      0.045200
     42 HO1         5.9580    0.3730    6.4100 ho        1 FPD      0.411000
     43 H71         4.4460   -3.0010   -0.0240 h1        1 FPD      0.067200
     44 H72         4.3810   -1.4860   -1.0390 h1        1 FPD      0.067200
     45 H81         1.8170   -2.4600    0.3610 hc        1 FPD      0.075700
     46 H82         2.4360   -3.4300   -1.0260 hc        1 FPD      0.075700
     47 H9          2.3790   -1.4680   -2.5340 hc        1 FPD      0.086700
     48 H121       -0.1010   -1.2720   -2.6510 h1        1 FPD      0.090700
     49 H122       -0.2580   -1.9230   -0.9730 h1        1 FPD      0.090700
     50 H54        -0.2110   -5.6990   -4.1340 ha        1 FPD      0.143000
     51 H13        -1.4280   -7.2590   -5.4540 h4        1 FPD     -0.000800
     52 H52        -4.4200   -4.9940   -4.8400 ha        1 FPD      0.156000
     53 H51        -4.2890   -2.9010   -3.4610 ha        1 FPD      0.141000
     54 H50        -2.1460   -2.2270   -2.4170 ha        1 FPD      0.140000
@<TRIPOS>BOND
     1    1    2 2   
     2    2    3 1   
     3    2    8 1   
     4    3    4 1   
     5    3   31 1   
     6    4    5 1   
     7    4   10 1   
     8    4   17 1   
     9    5    6 2   
    10    5    7 1   
    11    7    8 1   
    12    7   32 1   
    13    8    9 1   
    14    8   20 1   
    15    9   33 1   
    16   10   11 1   
    17   10   12 1   
    18   10   34 1   
    19   11   35 1   
    20   12   13 1   
    21   12   14 1   
    22   12   15 1   
    23   13   36 1   
    24   13   37 1   
    25   13   38 1   
    26   14   39 1   
    27   15   16 1   
    28   15   40 1   
    29   15   41 1   
    30   16   42 1   
    31   17   18 1   
    32   18   19 1   
    33   18   43 1   
    34   18   44 1   
    35   19   20 1   
    36   19   45 1   
    37   19   46 1   
    38   20   21 1   
    39   20   47 1   
    40   21   22 1   
    41   21   48 1   
    42   21   49 1   
    43   22   23 1   
    44   23   24 ar  
    45   23   30 ar  
    46   24   25 ar  
    47   24   50 1   
    48   25   26 1   
    49   25   28 ar  
    50   26   27 2   
    51   26   51 1   
    52   28   29 ar  
    53   28   52 1   
    54   29   30 ar  
    55   29   53 1   
    56   30   54 1   
@<TRIPOS>SUBSTRUCTURE
     1 FPD         1 TEMP              0 ****  ****    0 ROOT
