@<TRIPOS>MOLECULE
FPD
   54    56     1     0     0
SMALL
bcc


@<TRIPOS>ATOM
      1 O4         -0.0370    0.0960    0.6190 o         1 FPD     -0.627500
      2 C11         1.1870    0.0330    0.4010 c         1 FPD      0.664500
      3 N2          2.1170    0.0180    1.4070 n         1 FPD     -0.564900
      4 C5          3.5430   -0.0350    1.1430 c3        1 FPD      0.228200
      5 C6          3.8630    0.7890   -0.1530 c         1 FPD      0.667500
      6 O6          4.8870    1.4900   -0.2310 o         1 FPD     -0.623500
      7 N1          2.9660    0.7220   -1.1910 n         1 FPD     -0.583900
      8 C10         1.7000    0.0140   -1.0720 c3        1 FPD      0.256200
      9 O7          0.7690    0.6850   -1.9130 oh        1 FPD     -0.587800
     10 C4          4.4190    0.5780    2.3010 c3        1 FPD      0.157100
     11 O3          3.8850    1.8340    2.6720 oh        1 FPD     -0.596800
     12 C1          4.5750   -0.2680    3.5880 c3        1 FPD      0.174800
     13 C3          3.3200   -0.9780    4.0620 c3        1 FPD     -0.128100
     14 O2          5.5900   -1.2170    3.2670 oh        1 FPD     -0.589800
     15 C2          5.0950    0.6610    4.7090 c3        1 FPD      0.102400
     16 O1          5.4980   -0.1860    5.7750 oh        1 FPD     -0.616800
     17 O5          4.0100   -1.3750    1.0250 os        1 FPD     -0.385600
     18 C7          3.8690   -2.0440   -0.2210 c3        1 FPD      0.121400
     19 C8          2.4370   -2.3940   -0.5760 c3        1 FPD     -0.130400
     20 C9          1.7760   -1.4630   -1.5790 c3        1 FPD     -0.045700
     21 C12         0.3730   -1.9510   -1.8950 c3        1 FPD     -0.040300
     22 S1          0.4940   -3.5950   -2.5420 ss        1 FPD     -0.192000
     23 C          -1.0310   -3.9220   -3.2100 ca        1 FPD     -0.013100
     24 C54        -1.1080   -5.0890   -3.9830 ca        1 FPD     -0.079000
     25 C53        -2.3190   -5.4780   -4.5600 ca        1 FPD     -0.182600
     26 C13        -2.3800   -6.7090   -5.3660 c         1 FPD      0.575500
     27 O8         -3.4060   -7.1180   -5.9120 o         1 FPD     -0.525100
     28 C52        -3.4650   -4.6940   -4.3710 ca        1 FPD     -0.078000
     29 C51        -3.3910   -3.5330   -3.6050 ca        1 FPD     -0.128000
     30 C50        -2.1820   -3.1500   -3.0240 ca        1 FPD     -0.110000
     31 HN2         1.8190    0.0370    2.3570 hn        1 FPD      0.349500
     32 HN1         3.1200    1.2430   -2.0250 hn        1 FPD      0.343500
     33 HO7         0.2130    1.2600   -1.3660 ho        1 FPD      0.438000
     34 H4          5.4540    0.6920    1.8600 h1        1 FPD      0.102700
     35 HO3         4.1050    2.4460    1.9550 ho        1 FPD      0.423000
     36 H31         3.5440   -1.5120    5.0200 hc        1 FPD      0.055033
     37 H32         2.9950   -1.7330    3.3070 hc        1 FPD      0.055033
     38 H33         2.5070   -0.2400    4.2590 hc        1 FPD      0.055033
     39 HO2         5.7770   -1.7010    4.0830 ho        1 FPD      0.422000
     40 H21         5.9660    1.2580    4.3330 h1        1 FPD      0.045200
     41 H22         4.2790    1.3500    5.0480 h1        1 FPD      0.045200
     42 HO1         5.9560    0.3720    6.4130 ho        1 FPD      0.411000
     43 H71         4.4520   -2.9920   -0.0290 h1        1 FPD      0.067200
     44 H72         4.3810   -1.4750   -1.0400 h1        1 FPD      0.067200
     45 H81         1.8210   -2.4610    0.3600 hc        1 FPD      0.075700
     46 H82         2.4420   -3.4260   -1.0300 hc        1 FPD      0.075700
     47 H9          2.3760   -1.4610   -2.5340 hc        1 FPD      0.086700
     48 H121       -0.2570   -1.9280   -0.9710 h1        1 FPD      0.090700
     49 H122       -0.1040   -1.2720   -2.6470 h1        1 FPD      0.090700
     50 H54        -0.2030   -5.7000   -4.1350 ha        1 FPD      0.143000
     51 H13        -1.4170   -7.2630   -5.4540 h4        1 FPD     -0.000800
     52 H52        -4.4150   -5.0080   -4.8330 ha        1 FPD      0.156000
     53 H51        -4.2880   -2.9150   -3.4540 ha        1 FPD      0.141000
     54 H50        -2.1450   -2.2350   -2.4130 ha        1 FPD      0.140000
@<TRIPOS>BOND
     1    1    2 2   
     2    2    3 1   
     3    2    8 1   
     4    3    4 1   
     5    3   31 1   
     6    4    5 1   
     7    4   10 1   
     8    4   17 1   
     9    5    6 2   
    10    5    7 1   
    11    7    8 1   
    12    7   32 1   
    13    8    9 1   
    14    8   20 1   
    15    9   33 1   
    16   10   11 1   
    17   10   12 1   
    18   10   34 1   
    19   11   35 1   
    20   12   13 1   
    21   12   14 1   
    22   12   15 1   
    23   13   36 1   
    24   13   37 1   
    25   13   38 1   
    26   14   39 1   
    27   15   16 1   
    28   15   40 1   
    29   15   41 1   
    30   16   42 1   
    31   17   18 1   
    32   18   19 1   
    33   18   43 1   
    34   18   44 1   
    35   19   20 1   
    36   19   45 1   
    37   19   46 1   
    38   20   21 1   
    39   20   47 1   
    40   21   22 1   
    41   21   48 1   
    42   21   49 1   
    43   22   23 1   
    44   23   24 ar  
    45   23   30 ar  
    46   24   25 ar  
    47   24   50 1   
    48   25   26 1   
    49   25   28 ar  
    50   26   27 2   
    51   26   51 1   
    52   28   29 ar  
    53   28   52 1   
    54   29   30 ar  
    55   29   53 1   
    56   30   54 1   
@<TRIPOS>SUBSTRUCTURE
     1 FPD         1 TEMP              0 ****  ****    0 ROOT
