@<TRIPOS>MOLECULE
FPD
   54    53     1     0     0
SMALL
bcc


@<TRIPOS>ATOM
      1 O4         -1.7060    0.0210    0.7110 o         1 FPD     -0.343000
      2 C11        -0.4960   -0.0220    0.7000 c1        1 FPD      0.273000
      3 N2          0.2190   -0.0350    1.9170 n2        1 FPD     -0.359000
      4 C5          1.4660    0.1820    1.8970 c3        1 FPD      0.164000
      5 C6          2.0090    0.6540    0.7320 c2        1 FPD      0.289000
      6 O6          3.0540    1.2560    0.7560 o         1 FPD     -0.356000
      7 N1          1.2170    0.6470   -0.4510 n         1 FPD     -0.388000
      8 C10         0.1610    0.1200   -0.4460 c3        1 FPD      0.193000
      9 O7         -0.6740    0.8890   -1.2980 oh        1 FPD     -0.323000
     10 C4          1.8010    1.1880    3.0260 c3        1 FPD      0.031000
     11 O3          0.6220    1.7010    3.5550 oh        1 FPD     -0.318000
     12 C1          2.5750    0.4910    4.1080 c3        1 FPD      0.046000
     13 C3          4.0380    0.8740    4.0070 c3        1 FPD     -0.242000
     14 O2          2.4420   -0.9070    3.9570 oh        1 FPD     -0.345000
     15 C2          2.0320    0.9070    5.4770 c3        1 FPD      0.002000
     16 O1          1.5970   -0.2310    6.1710 oh        1 FPD     -0.324000
     17 O5          2.1640   -1.1560    2.2140 os        1 FPD     -0.292000
     18 C7          1.8830   -2.0930    1.1580 c3        1 FPD     -0.023000
     19 C8          0.3200   -1.9090    0.6630 c3        1 FPD     -0.207000
     20 C9          0.2290   -0.5320   -0.7520 c3        1 FPD     -0.100000
     21 C12        -1.2600   -0.8590   -1.8240 c3        1 FPD     -0.311000
     22 S1         -0.8350   -0.5920   -3.5300 ss        1 FPD      0.234000
     23 C          -2.3200   -0.5650   -4.5200 c2        1 FPD     -0.246000
     24 C54        -2.9480    0.6490   -4.8040 c2        1 FPD     -0.106000
     25 C53        -4.0670    0.6770   -5.6310 c1        1 FPD     -0.161000
     26 C13        -4.6660    2.0370   -6.0710 c1        1 FPD      0.222000
     27 O8         -5.6470    2.0670   -6.7970 o         1 FPD     -0.286000
     28 C52        -4.5610   -0.5070   -6.1750 c2        1 FPD     -0.076000
     29 C51        -3.9350   -1.7190   -5.8910 c1        1 FPD     -0.130000
     30 C50        -2.8150   -1.7480   -5.0640 c1        1 FPD     -0.091000
     31 HN2        -0.2350   -0.0330    2.7160 hn        1 FPD      0.272000
     32 HN1         1.4830    1.1450   -1.1910 hn        1 FPD      0.258000
     33 HO7        -0.3390    1.7220   -1.3770 ho        1 FPD      0.243000
     34 H4          2.3350    1.9140    2.6630 h1        1 FPD      0.117000
     35 HO3         0.6570    2.5720    3.5490 ho        1 FPD      0.231000
     36 H31         4.1460    1.8150    4.2520 hc        1 FPD      0.094000
     37 H32         4.3470    0.7380    3.0920 hc        1 FPD      0.094000
     38 H33         4.5640    0.3180    4.6140 hc        1 FPD      0.094000
     39 HO2         2.9370   -1.3210    4.5710 ho        1 FPD      0.227000
     40 H21         2.7350    1.3480    5.9850 h1        1 FPD      0.102500
     41 H22         1.2770    1.5250    5.3560 h1        1 FPD      0.102500
     42 HO1         1.3040    0.0090    6.9870 ho        1 FPD      0.212000
     43 H71         2.4860   -1.9260    0.4020 h1        1 FPD      0.105000
     44 H72         2.0180   -3.0140    1.4890 h1        1 FPD      0.105000
     45 H81        -0.2360   -1.6290    1.4290 hc        1 FPD      0.114000
     46 H82        -0.0190   -2.7700    0.3070 hc        1 FPD      0.114000
     47 H9          1.0500   -0.5600   -1.3000 hc        1 FPD      0.121000
     48 H121       -1.5540   -1.7880   -1.7010 h1        1 FPD      0.142000
     49 H122       -1.9800   -0.2530   -1.5700 h1        1 FPD      0.142000
     50 H54        -2.6060    1.4760   -4.4190 ha        1 FPD      0.148000
     51 H13        -4.2650    2.8760   -5.7530 ha        1 FPD      0.094000
     52 H52        -5.3510   -0.4880   -6.7580 ha        1 FPD      0.156000
     53 H51        -4.2820   -2.5490   -6.2730 ha        1 FPD      0.142000
     54 H50        -2.3690   -2.6110   -4.8630 ha        1 FPD      0.145000
@<TRIPOS>BOND
     1    1    2 1   
     2    2    8 1   
     3    3    4 1   
     4    3   31 1   
     5    4    5 1   
     6    4   10 1   
     7    4   17 1   
     8    5    6 1   
     9    5    7 1   
    10    7    8 1   
    11    7   32 1   
    12    8    9 1   
    13    8   20 1   
    14    9   33 1   
    15   10   11 1   
    16   10   12 1   
    17   10   34 1   
    18   11   35 1   
    19   12   13 1   
    20   12   14 1   
    21   12   15 1   
    22   13   36 1   
    23   13   37 1   
    24   13   38 1   
    25   14   39 1   
    26   15   16 1   
    27   15   40 1   
    28   15   41 1   
    29   16   42 1   
    30   17   18 1   
    31   18   19 1   
    32   18   43 1   
    33   18   44 1   
    34   19   20 1   
    35   19   45 1   
    36   19   46 1   
    37   20   21 1   
    38   20   47 1   
    39   21   22 1   
    40   21   48 1   
    41   21   49 1   
    42   22   23 1   
    43   23   24 1   
    44   23   30 1   
    45   24   25 1   
    46   24   50 1   
    47   25   28 1   
    48   26   27 1   
    49   26   51 1   
    50   28   29 1   
    51   28   52 1   
    52   29   53 1   
    53   30   54 1   
@<TRIPOS>SUBSTRUCTURE
     1 FPD         1 TEMP              0 ****  ****    0 ROOT
