@<TRIPOS>MOLECULE
FPD
   54    56     1     0     0
SMALL
bcc


@<TRIPOS>ATOM
      1 O4         -0.0300    0.1090    0.6090 o         1 FPD     -0.627500
      2 C11         1.1940    0.0380    0.3940 c         1 FPD      0.664500
      3 N2          2.1220    0.0240    1.4010 ns        1 FPD     -0.564900
      4 C5          3.5480   -0.0380    1.1390 c3        1 FPD      0.228200
      5 C6          3.8740    0.7780   -0.1590 c         1 FPD      0.667500
      6 O6          4.9020    1.4740   -0.2390 o         1 FPD     -0.623500
      7 N1          2.9790    0.7110   -1.1980 ns        1 FPD     -0.583900
      8 C10         1.7090    0.0100   -1.0780 c3        1 FPD      0.256200
      9 O7          0.7830    0.6820   -1.9250 oh        1 FPD     -0.587800
     10 C4          4.4260    0.5760    2.2960 c3        1 FPD      0.157100
     11 O3          3.8980    1.8360    2.6610 oh        1 FPD     -0.596800
     12 C1          4.5760   -0.2650    3.5870 c3        1 FPD      0.174800
     13 C3          3.3160   -0.9660    4.0630 c3        1 FPD     -0.128100
     14 O2          5.5850   -1.2220    3.2720 oh        1 FPD     -0.589800
     15 C2          5.1000    0.6650    4.7050 c3        1 FPD      0.102400
     16 O1          5.4970   -0.1790    5.7740 oh        1 FPD     -0.616800
     17 O5          4.0090   -1.3820    1.0290 os        1 FPD     -0.385600
     18 C7          3.8660   -2.0550   -0.2150 c3        1 FPD      0.121400
     19 C8          2.4330   -2.3990   -0.5700 c3        1 FPD     -0.130400
     20 C9          1.7780   -1.4700   -1.5790 c3        1 FPD     -0.045700
     21 C12         0.3730   -1.9520   -1.8950 c3        1 FPD     -0.040300
     22 S1          0.4870   -3.6000   -2.5340 ss        1 FPD     -0.192000
     23 C          -1.0390   -3.9220   -3.2040 ca        1 FPD     -0.013100
     24 C54        -1.1190   -5.0910   -3.9730 ca        1 FPD     -0.079000
     25 C53        -2.3320   -5.4760   -4.5510 ca        1 FPD     -0.182600
     26 C13        -2.3970   -6.7100   -5.3520 c         1 FPD      0.575500
     27 O8         -3.4240   -7.1160   -5.8980 o         1 FPD     -0.525100
     28 C52        -3.4740   -4.6860   -4.3670 ca        1 FPD     -0.078000
     29 C51        -3.3950   -3.5230   -3.6050 ca        1 FPD     -0.128000
     30 C50        -2.1860   -3.1430   -3.0230 ca        1 FPD     -0.110000
     31 HN2         1.8220    0.0480    2.3500 hn        1 FPD      0.349500
     32 HN1         3.1370    1.2270   -2.0350 hn        1 FPD      0.343500
     33 HO7         0.2290    1.2620   -1.3810 ho        1 FPD      0.438000
     34 H4          5.4620    0.6820    1.8560 h1        1 FPD      0.102700
     35 HO3         4.1210    2.4440    1.9410 ho        1 FPD      0.423000
     36 H31         2.5060   -0.2230    4.2550 hc        1 FPD      0.054700
     37 H32         3.5360   -1.4960    5.0240 hc        1 FPD      0.054700
     38 H33         2.9880   -1.7230    3.3110 hc        1 FPD      0.054700
     39 HO2         5.7690   -1.7030    4.0900 ho        1 FPD      0.422000
     40 H21         5.9750    1.2550    4.3260 h1        1 FPD      0.045200
     41 H22         4.2870    1.3610    5.0390 h1        1 FPD      0.045200
     42 HO1         5.9570    0.3790    6.4110 ho        1 FPD      0.411000
     43 H71         4.4440   -3.0060   -0.0170 h1        1 FPD      0.067200
     44 H72         4.3820   -1.4930   -1.0360 h1        1 FPD      0.067200
     45 H81         1.8150   -2.4590    0.3650 hc        1 FPD      0.075700
     46 H82         2.4330   -3.4340   -1.0200 hc        1 FPD      0.075700
     47 H9          2.3800   -1.4750   -2.5320 hc        1 FPD      0.086700
     48 H121       -0.2580   -1.9220   -0.9720 h1        1 FPD      0.090700
     49 H122       -0.0990   -1.2740   -2.6510 h1        1 FPD      0.090700
     50 H54        -0.2170   -5.7070   -4.1210 ha        1 FPD      0.143000
     51 H13        -1.4360   -7.2690   -5.4360 h4        1 FPD     -0.000800
     52 H52        -4.4240   -4.9970   -4.8300 ha        1 FPD      0.156000
     53 H51        -4.2900   -2.9000   -3.4580 ha        1 FPD      0.141000
     54 H50        -2.1450   -2.2260   -2.4150 ha        1 FPD      0.140000
@<TRIPOS>BOND
     1    1    2 2   
     2    2    3 1   
     3    2    8 1   
     4    3    4 1   
     5    3   31 1   
     6    4    5 1   
     7    4   10 1   
     8    4   17 1   
     9    5    6 2   
    10    5    7 1   
    11    7    8 1   
    12    7   32 1   
    13    8    9 1   
    14    8   20 1   
    15    9   33 1   
    16   10   11 1   
    17   10   12 1   
    18   10   34 1   
    19   11   35 1   
    20   12   13 1   
    21   12   14 1   
    22   12   15 1   
    23   13   36 1   
    24   13   37 1   
    25   13   38 1   
    26   14   39 1   
    27   15   16 1   
    28   15   40 1   
    29   15   41 1   
    30   16   42 1   
    31   17   18 1   
    32   18   19 1   
    33   18   43 1   
    34   18   44 1   
    35   19   20 1   
    36   19   45 1   
    37   19   46 1   
    38   20   21 1   
    39   20   47 1   
    40   21   22 1   
    41   21   48 1   
    42   21   49 1   
    43   22   23 1   
    44   23   24 ar  
    45   23   30 ar  
    46   24   25 ar  
    47   24   50 1   
    48   25   26 1   
    49   25   28 ar  
    50   26   27 2   
    51   26   51 1   
    52   28   29 ar  
    53   28   52 1   
    54   29   30 ar  
    55   29   53 1   
    56   30   54 1   
@<TRIPOS>SUBSTRUCTURE
     1 FPD         1 TEMP              0 ****  ****    0 ROOT
