@<TRIPOS>MOLECULE
FPE
   14    13     1     0     0
SMALL
bcc


@<TRIPOS>ATOM
      1 O1          0.2770    1.7630    2.8350 o         1 FPE     -0.915300
      2 C1          0.2150    0.5670    2.3990 c         1 FPE      0.903600
      3 O2'         0.4770   -0.3990    3.1890 o         1 FPE     -0.915300
      4 C2         -0.2820    0.3080    0.9530 c3        1 FPE      0.128100
      5 O5          0.7380   -0.0670    0.1010 os        1 FPE     -0.565200
      6 P1          0.5240    0.1650   -1.5940 p5        1 FPE      1.326900
      7 O2          1.9130   -0.0570   -2.1430 o         1 FPE     -0.949833
      8 O3         -0.4690   -0.9240   -1.9480 o         1 FPE     -0.949833
      9 O4         -0.0130    1.5640   -1.7710 o         1 FPE     -0.949833
     10 C3         -1.3510   -0.8280    1.0090 c3        1 FPE      0.060900
     11 F1         -2.6000   -0.4000    1.4420 f         1 FPE     -0.323300
     12 H2         -0.7770    1.2430    0.5590 h1        1 FPE      0.028700
     13 H31        -0.9970   -1.6300    1.7090 h1        1 FPE      0.059700
     14 H32        -1.4380   -1.2270   -0.0470 h1        1 FPE      0.059700
@<TRIPOS>BOND
     1    1    2 1   
     2    2    3 1   
     3    2    4 1   
     4    4    5 1   
     5    4   10 1   
     6    4   12 1   
     7    5    6 1   
     8    6    7 1   
     9    6    8 1   
    10    6    9 1   
    11   10   11 1   
    12   10   13 1   
    13   10   14 1   
@<TRIPOS>SUBSTRUCTURE
     1 FPE         1 TEMP              0 ****  ****    0 ROOT
