@<TRIPOS>MOLECULE
FPE
   14    13     1     0     0
SMALL
bcc


@<TRIPOS>ATOM
      1 O1         -0.3470   -0.8210    0.7200 o         1 FPE     -0.915300
      2 C1          0.6740   -0.1180    0.4230 c         1 FPE      0.903600
      3 O2'         0.6240    0.6590   -0.5870 o         1 FPE     -0.915300
      4 C2          1.9120   -0.1430    1.3560 c3        1 FPE      0.128100
      5 O5          2.9730   -0.8380    0.8110 os        1 FPE     -0.565200
      6 P1          4.1790   -1.4660    1.8710 p5        1 FPE      1.326900
      7 O2          4.9650   -2.3940    0.9750 o         1 FPE     -0.949833
      8 O3          4.9280   -0.2170    2.2880 o         1 FPE     -0.949833
      9 O4          3.4450   -2.1460    3.0000 o         1 FPE     -0.949833
     10 C3          2.3440    1.3350    1.6180 c3        1 FPE      0.060900
     11 F1          1.5560    1.9900    2.5560 f         1 FPE     -0.323300
     12 H2          1.6240   -0.6090    2.3420 h1        1 FPE      0.028700
     13 H31         3.4110    1.2850    1.9940 h1        1 FPE      0.059700
     14 H32         2.2880    1.9090    0.6550 h1        1 FPE      0.059700
@<TRIPOS>BOND
     1    1    2 1   
     2    2    3 1   
     3    2    4 1   
     4    4    5 1   
     5    4   10 1   
     6    4   12 1   
     7    5    6 1   
     8    6    7 1   
     9    6    8 1   
    10    6    9 1   
    11   10   11 1   
    12   10   13 1   
    13   10   14 1   
@<TRIPOS>SUBSTRUCTURE
     1 FPE         1 TEMP              0 ****  ****    0 ROOT
