@<TRIPOS>MOLECULE
FPE
   14    13     1     0     0
SMALL
bcc


@<TRIPOS>ATOM
      1 O1         -0.3370   -0.7970    0.6560 o         1 FPE     -0.915300
      2 C1          0.6730   -0.0530    0.4260 c         1 FPE      0.903600
      3 O2'         0.6090    0.8150   -0.5070 o         1 FPE     -0.915300
      4 C2          1.9130   -0.1450    1.3530 c3        1 FPE      0.128100
      5 O5          2.9840   -0.7690    0.7460 os        1 FPE     -0.565200
      6 P1          4.2010   -1.4740    1.7430 p5        1 FPE      1.326900
      7 O2          5.0010   -2.3010    0.7640 o         1 FPE     -0.949833
      8 O3          4.9300   -0.2570    2.2760 o         1 FPE     -0.949833
      9 O4          3.4790   -2.2680    2.8030 o         1 FPE     -0.949833
     10 C3          2.3210    1.3090    1.7520 c3        1 FPE      0.060900
     11 F1          1.5240    1.8610    2.7470 f         1 FPE     -0.323300
     12 H2          1.6330   -0.7050    2.2920 h1        1 FPE      0.028700
     13 H31         3.3890    1.2410    2.1220 h1        1 FPE      0.059700
     14 H32         2.2550    1.9700    0.8480 h1        1 FPE      0.059700
@<TRIPOS>BOND
     1    1    2 1   
     2    2    3 1   
     3    2    4 1   
     4    4    5 1   
     5    4   10 1   
     6    4   12 1   
     7    5    6 1   
     8    6    7 1   
     9    6    8 1   
    10    6    9 1   
    11   10   11 1   
    12   10   13 1   
    13   10   14 1   
@<TRIPOS>SUBSTRUCTURE
     1 FPE         1 TEMP              0 ****  ****    0 ROOT
