@<TRIPOS>MOLECULE
FPF
   49    48     1     0     0
SMALL
bcc


@<TRIPOS>ATOM
      1 C1          0.0000    0.0000    0.0000 c3        1 FPF      0.317600
      2 O1          1.4290    0.0000    0.0000 os        1 FPF     -0.484200
      3 C2         -0.5020    0.0000    1.4210 c2        1 FPF      0.131300
      4 F          -0.2470   -1.0530    2.2270 f         1 FPF     -0.176500
      5 C3         -1.1880    1.0240    1.8750 c2        1 FPF     -0.299400
      6 C4         -1.3870    2.2410    1.0090 c3        1 FPF      0.088100
      7 C5         -1.7770    0.9820    3.2610 c3        1 FPF      0.058800
      8 C6         -0.8170    1.6560    4.2430 c3        1 FPF     -0.001200
      9 C7         -1.4060    1.6130    5.6300 c2        1 FPF     -0.164200
     10 C8         -0.7730    0.9890    6.5920 c2        1 FPF     -0.170400
     11 C10         0.4950    0.2320    6.2910 c3        1 FPF      0.056100
     12 C9         -1.3120    1.0280    7.9980 c3        1 FPF      0.035800
     13 C11        -2.1680   -0.2150    8.2510 c3        1 FPF      0.025800
     14 C12        -2.7080   -0.1760    9.6570 c2        1 FPF     -0.242200
     15 C13        -3.9940   -0.3020    9.8690 c2        1 FPF     -0.263400
     16 C14        -4.9140   -0.6560    8.7300 c3        1 FPF      0.089100
     17 C15        -4.5530   -0.0930   11.2530 c3        1 FPF      0.089100
     18 P1          2.3060   -0.0010   -1.3510 p5        1 FPF      0.902800
     19 O1A         1.9030   -1.1440   -2.2000 o         1 FPF     -0.697500
     20 O2A         2.0600    1.3750   -2.1510 o         1 FPF     -0.697500
     21 O3A         3.8670   -0.1320   -0.9770 os        1 FPF     -0.460800
     22 P2          5.1910   -0.4910   -1.8190 p5        1 FPF      0.781900
     23 O1B         5.6840    0.8140   -2.6260 o         1 FPF     -0.717167
     24 O2B         6.3540   -0.9700   -0.8130 o         1 FPF     -0.717167
     25 O3B         4.8890   -1.5770   -2.7770 o         1 FPF     -0.717167
     26 H1         -0.3610    0.8840   -0.5110 h1        1 FPF     -0.009300
     27 H1A        -0.3610   -0.8850   -0.5110 h1        1 FPF     -0.009300
     28 H4         -0.4220    2.6480    0.7300 hc        1 FPF      0.002367
     29 H4A        -1.9320    1.9630    0.1150 hc        1 FPF      0.002367
     30 H4B        -1.9490    2.9870    1.5570 hc        1 FPF      0.002367
     31 H5         -1.9310   -0.0490    3.5570 hc        1 FPF      0.000200
     32 H5A        -2.7250    1.5040    3.2670 hc        1 FPF      0.000200
     33 H6         -0.6630    2.6860    3.9480 hc        1 FPF      0.033700
     34 H6A         0.1320    1.1330    4.2380 hc        1 FPF      0.033700
     35 H7         -2.3350    2.1290    5.8390 ha        1 FPF      0.088000
     36 H10         0.8870   -0.1950    7.2060 hc        1 FPF      0.012033
     37 H10A        1.2270    0.9090    5.8660 hc        1 FPF      0.012033
     38 H10B        0.2840   -0.5610    5.5840 hc        1 FPF      0.012033
     39 H9         -0.4870    1.0470    8.7000 hc        1 FPF      0.004700
     40 H9A        -1.9180    1.9160    8.1280 hc        1 FPF      0.004700
     41 H11        -1.5620   -1.1040    8.1210 hc        1 FPF      0.016700
     42 H11A       -2.9930   -0.2350    7.5480 hc        1 FPF      0.016700
     43 H12        -2.0270   -0.0850   10.4960 ha        1 FPF      0.091000
     44 H14        -5.8880   -0.9240    9.1220 hc        1 FPF     -0.013633
     45 H14A       -5.0130    0.1950    8.0680 hc        1 FPF     -0.013633
     46 H14B       -4.5030   -1.4950    8.1810 hc        1 FPF     -0.013633
     47 H15        -3.9100    0.5810   11.8050 hc        1 FPF     -0.013633
     48 H15A       -5.5460    0.3340   11.1810 hc        1 FPF     -0.013633
     49 H15B       -4.6060   -1.0450   11.7690 hc        1 FPF     -0.013633
@<TRIPOS>BOND
     1    1    2 1   
     2    1    3 1   
     3    1   26 1   
     4    1   27 1   
     5    2   18 1   
     6    3    4 1   
     7    3    5 2   
     8    5    6 1   
     9    5    7 1   
    10    6   28 1   
    11    6   29 1   
    12    6   30 1   
    13    7    8 1   
    14    7   31 1   
    15    7   32 1   
    16    8    9 1   
    17    8   33 1   
    18    8   34 1   
    19    9   10 2   
    20    9   35 1   
    21   10   11 1   
    22   10   12 1   
    23   11   36 1   
    24   11   37 1   
    25   11   38 1   
    26   12   13 1   
    27   12   39 1   
    28   12   40 1   
    29   13   14 1   
    30   13   41 1   
    31   13   42 1   
    32   14   15 2   
    33   14   43 1   
    34   15   16 1   
    35   15   17 1   
    36   16   44 1   
    37   16   45 1   
    38   16   46 1   
    39   17   47 1   
    40   17   48 1   
    41   17   49 1   
    42   18   19 1   
    43   18   20 1   
    44   18   21 1   
    45   21   22 1   
    46   22   23 1   
    47   22   24 1   
    48   22   25 1   
@<TRIPOS>SUBSTRUCTURE
     1 FPF         1 TEMP              0 ****  ****    0 ROOT
