@<TRIPOS>MOLECULE
FPF
   49    48     1     0     0
SMALL
bcc


@<TRIPOS>ATOM
      1 C1          0.4660   -0.4080   -0.1790 c3        1 FPF      0.237600
      2 O1          1.7140    0.1330   -0.1010 os        1 FPF     -0.554200
      3 C2         -0.4200   -0.0270    1.0090 c2        1 FPF      0.115300
      4 F          -1.2120   -1.0630    1.4280 f         1 FPF     -0.244500
      5 C3         -0.5290    1.1730    1.6340 c2        1 FPF     -0.224400
      6 C4          0.2390    2.3720    1.2380 c3        1 FPF     -0.057900
      7 C5         -1.4660    1.3730    2.7790 c3        1 FPF     -0.017200
      8 C6         -0.7550    1.1810    4.1080 c3        1 FPF     -0.065200
      9 C7         -1.6400    1.4180    5.2700 c2        1 FPF     -0.113200
     10 C8         -1.2720    1.2090    6.5460 c2        1 FPF     -0.194400
     11 C10         0.0780    0.7080    6.8960 c3        1 FPF     -0.046900
     12 C9         -2.1990    1.4760    7.6800 c3        1 FPF     -0.021200
     13 C11        -2.6560    0.1890    8.3430 c3        1 FPF     -0.054200
     14 C12        -3.5260    0.4340    9.5150 c2        1 FPF     -0.147200
     15 C13        -4.1050   -0.5450   10.2290 c2        1 FPF     -0.158400
     16 C14        -3.9200   -1.9770    9.8910 c3        1 FPF     -0.049400
     17 C15        -4.9700   -0.2590   11.3970 c3        1 FPF     -0.049400
     18 P1          2.2980    1.0140   -1.4680 p5        1 FPF      1.569800
     19 O1A         1.0620    1.1650   -2.2940 o         1 FPF     -0.917500
     20 O2A         2.7600    2.2480   -0.7680 o         1 FPF     -0.917500
     21 O3A         3.3780    0.0710   -2.0470 os        1 FPF     -0.798800
     22 P2          4.6020   -1.0040   -2.8060 p5        1 FPF      1.455900
     23 O1B         5.0200   -0.2210   -4.0190 o         1 FPF     -0.955833
     24 O2B         5.6660   -1.1520   -1.7550 o         1 FPF     -0.955833
     25 O3B         3.8290   -2.2610   -3.0950 o         1 FPF     -0.955833
     26 H1         -0.0740   -0.0760   -1.1180 h1        1 FPF      0.040200
     27 H1A         0.5300   -1.5390   -0.1600 h1        1 FPF      0.040200
     28 H4          1.1060    2.1260    0.5460 hc        1 FPF      0.054700
     29 H4A        -0.4340    3.0940    0.7100 hc        1 FPF      0.054700
     30 H4B         0.6500    2.8810    2.1460 hc        1 FPF      0.054700
     31 H5         -2.3270    0.6540    2.7160 hc        1 FPF      0.016200
     32 H5A        -1.8940    2.4100    2.7350 hc        1 FPF      0.016200
     33 H6          0.1270    1.8790    4.1570 hc        1 FPF      0.069200
     34 H6A        -0.3380    0.1370    4.1530 hc        1 FPF      0.069200
     35 H7         -2.6520    1.7900    5.0370 ha        1 FPF      0.106000
     36 H10         0.2580    0.7470    7.9970 hc        1 FPF      0.036700
     37 H10A        0.8640    1.3180    6.3820 hc        1 FPF      0.036700
     38 H10B        0.1980   -0.3520    6.5530 hc        1 FPF      0.036700
     39 H9         -1.6790    2.1200    8.4400 hc        1 FPF      0.029700
     40 H9A        -3.0990    2.0450    7.3240 hc        1 FPF      0.029700
     41 H11        -1.7540   -0.4050    8.6620 hc        1 FPF      0.057200
     42 H11A       -3.2040   -0.4440    7.5910 hc        1 FPF      0.057200
     43 H12        -3.6850    1.4910    9.7870 ha        1 FPF      0.115000
     44 H14        -4.4220   -2.6400   10.6370 hc        1 FPF      0.033533
     45 H14A       -4.3460   -2.1940    8.8790 hc        1 FPF      0.033533
     46 H14B       -2.8310   -2.2330    9.8630 hc        1 FPF      0.033533
     47 H15        -5.0700    0.8400   11.5770 hc        1 FPF      0.033533
     48 H15A       -5.9920   -0.6830   11.2330 hc        1 FPF      0.033533
     49 H15B       -4.5430   -0.7290   12.3180 hc        1 FPF      0.033533
@<TRIPOS>BOND
     1    1    2 1   
     2    1    3 1   
     3    1   26 1   
     4    1   27 1   
     5    2   18 1   
     6    3    4 1   
     7    3    5 2   
     8    5    6 1   
     9    5    7 1   
    10    6   28 1   
    11    6   29 1   
    12    6   30 1   
    13    7    8 1   
    14    7   31 1   
    15    7   32 1   
    16    8    9 1   
    17    8   33 1   
    18    8   34 1   
    19    9   10 2   
    20    9   35 1   
    21   10   11 1   
    22   10   12 1   
    23   11   36 1   
    24   11   37 1   
    25   11   38 1   
    26   12   13 1   
    27   12   39 1   
    28   12   40 1   
    29   13   14 1   
    30   13   41 1   
    31   13   42 1   
    32   14   15 2   
    33   14   43 1   
    34   15   16 1   
    35   15   17 1   
    36   16   44 1   
    37   16   45 1   
    38   16   46 1   
    39   17   47 1   
    40   17   48 1   
    41   17   49 1   
    42   18   19 1   
    43   18   20 1   
    44   18   21 1   
    45   21   22 1   
    46   22   23 1   
    47   22   24 1   
    48   22   25 1   
@<TRIPOS>SUBSTRUCTURE
     1 FPF         1 TEMP              0 ****  ****    0 ROOT
