@<TRIPOS>MOLECULE
FPF
   49    48     1     0     0
SMALL
bcc


@<TRIPOS>ATOM
      1 C1          1.9400    1.5170   -0.9150 c3        1 FPF      0.237600
      2 O1          2.5510    0.5710   -0.1480 os        1 FPF     -0.554200
      3 C2          0.4490    1.6610   -0.6010 c2        1 FPF      0.114300
      4 F          -0.3090    1.8620   -1.7230 f         1 FPF     -0.244500
      5 C3         -0.1670    1.6520    0.6100 c2        1 FPF     -0.224400
      6 C4          0.5540    1.4900    1.8900 c3        1 FPF     -0.057900
      7 C5         -1.6450    1.8240    0.7320 c3        1 FPF     -0.017200
      8 C6         -2.3490    0.4790    0.7880 c3        1 FPF     -0.065200
      9 C7         -3.8160    0.6070    0.9330 c2        1 FPF     -0.112200
     10 C8         -4.6450   -0.4350    1.1200 c2        1 FPF     -0.194400
     11 C10        -4.1430   -1.8260    1.2160 c3        1 FPF     -0.046900
     12 C9         -6.1150   -0.2460    1.2660 c3        1 FPF     -0.021200
     13 C11        -6.8580   -0.6350    0.0000 c3        1 FPF     -0.054200
     14 C12        -8.3250   -0.4980    0.1420 c2        1 FPF     -0.148200
     15 C13        -9.1910   -0.7140   -0.8620 c2        1 FPF     -0.158400
     16 C14        -8.7400   -1.1070   -2.2180 c3        1 FPF     -0.049400
     17 C15       -10.6550   -0.5670   -0.6790 c3        1 FPF     -0.049400
     18 P1          3.9850    1.0240    0.7010 p5        1 FPF      1.569800
     19 O1A         3.9830    2.5100    0.5480 o         1 FPF     -0.917500
     20 O2A         3.6240    0.5160    2.0570 o         1 FPF     -0.917500
     21 O3A         5.0940    0.2750   -0.0730 os        1 FPF     -0.798800
     22 P2          6.4340   -0.5210   -0.9680 p5        1 FPF      1.455900
     23 O1B         7.6520   -0.0370   -0.2310 o         1 FPF     -0.956167
     24 O2B         6.1550   -1.9900   -0.8230 o         1 FPF     -0.956167
     25 O3B         6.2830    0.0100   -2.3660 o         1 FPF     -0.956167
     26 H1          2.4110    2.5370   -0.7720 h1        1 FPF      0.040200
     27 H1A         1.9930    1.2260   -2.0080 h1        1 FPF      0.040200
     28 H4          0.5990    2.4720    2.4250 hc        1 FPF      0.055033
     29 H4A         0.0110    0.7630    2.5460 hc        1 FPF      0.055033
     30 H4B         1.6170    1.1150    1.7490 hc        1 FPF      0.055033
     31 H5         -1.8770    2.4010    1.6670 hc        1 FPF      0.016200
     32 H5A        -2.0470    2.4140   -0.1340 hc        1 FPF      0.016200
     33 H6         -2.1130   -0.0950   -0.1510 hc        1 FPF      0.069200
     34 H6A        -1.9310   -0.1230    1.6420 hc        1 FPF      0.069200
     35 H7         -4.2180    1.6320    0.8750 ha        1 FPF      0.106000
     36 H10        -3.6120   -1.9760    2.1910 hc        1 FPF      0.036700
     37 H10A       -4.9760   -2.5670    1.1490 hc        1 FPF      0.036700
     38 H10B       -3.4100   -2.0360    0.3960 hc        1 FPF      0.036700
     39 H9         -6.4870   -0.8720    2.1220 hc        1 FPF      0.029700
     40 H9A        -6.3480    0.8250    1.5130 hc        1 FPF      0.029700
     41 H11        -6.4990    0.0040   -0.8530 hc        1 FPF      0.056700
     42 H11A       -6.6050   -1.6980   -0.2690 hc        1 FPF      0.056700
     43 H12        -8.6890   -0.2020    1.1400 ha        1 FPF      0.114000
     44 H14        -8.1020   -2.0260   -2.1650 hc        1 FPF      0.033700
     45 H14A       -9.6060   -1.3150   -2.8920 hc        1 FPF      0.033700
     46 H14B       -8.1230   -0.2910   -2.6720 hc        1 FPF      0.033700
     47 H15       -11.0550    0.2010   -1.3870 hc        1 FPF      0.033700
     48 H15A      -11.1690   -1.5370   -0.8930 hc        1 FPF      0.033700
     49 H15B      -10.9120   -0.2540    0.3620 hc        1 FPF      0.033700
@<TRIPOS>BOND
     1    1    2 1   
     2    1    3 1   
     3    1   26 1   
     4    1   27 1   
     5    2   18 1   
     6    3    4 1   
     7    3    5 2   
     8    5    6 1   
     9    5    7 1   
    10    6   28 1   
    11    6   29 1   
    12    6   30 1   
    13    7    8 1   
    14    7   31 1   
    15    7   32 1   
    16    8    9 1   
    17    8   33 1   
    18    8   34 1   
    19    9   10 2   
    20    9   35 1   
    21   10   11 1   
    22   10   12 1   
    23   11   36 1   
    24   11   37 1   
    25   11   38 1   
    26   12   13 1   
    27   12   39 1   
    28   12   40 1   
    29   13   14 1   
    30   13   41 1   
    31   13   42 1   
    32   14   15 2   
    33   14   43 1   
    34   15   16 1   
    35   15   17 1   
    36   16   44 1   
    37   16   45 1   
    38   16   46 1   
    39   17   47 1   
    40   17   48 1   
    41   17   49 1   
    42   18   19 1   
    43   18   20 1   
    44   18   21 1   
    45   21   22 1   
    46   22   23 1   
    47   22   24 1   
    48   22   25 1   
@<TRIPOS>SUBSTRUCTURE
     1 FPF         1 TEMP              0 ****  ****    0 ROOT
