@<TRIPOS>MOLECULE
FPG
   40    39     1     0     0
SMALL
bcc


@<TRIPOS>ATOM
      1 C9          0.6240   -0.2130    0.0350 c3        1 FPG     -0.076100
      2 C7          2.0320    0.1060    0.4900 c3        1 FPG     -0.076700
      3 C6          2.1710    0.0290    2.0040 c3        1 FPG     -0.098400
      4 C8          3.0230   -0.8260   -0.1730 c3        1 FPG     -0.076100
      5 C2          2.4650    2.7730    6.0980 c3        1 FPG      0.069600
      6 C1          2.3720    1.4980    6.9330 c3        1 FPG     -0.097100
      7 C10         0.1480    2.7640    5.0740 c3        1 FPG     -0.097100
      8 C5          1.4730    1.1780    2.7000 c3        1 FPG     -0.083400
      9 C4          1.9380    1.2950    4.1350 c3        1 FPG     -0.140400
     10 F           2.0400    3.8580    6.8630 f         1 FPG     -0.297300
     11 C3          1.6570    2.6810    4.7520 c3        1 FPG      0.288800
     12 O1          1.9240    3.7670    3.9450 os        1 FPG     -0.617200
     13 PA          3.2400    4.2340    2.9680 p5        1 FPG      1.609800
     14 O1A         2.7410    3.9410    1.5940 o         1 FPG     -0.914500
     15 O2A         3.4630    5.6600    3.3190 o         1 FPG     -0.914500
     16 O3A         4.3410    3.2380    3.4760 os        1 FPG     -0.827800
     17 PB          5.5190    2.0580    4.0090 p5        1 FPG      1.465900
     18 O2B         6.8400    2.5120    3.4610 o         1 FPG     -0.955500
     19 O3B         5.3700    2.1230    5.5080 o         1 FPG     -0.955500
     20 O1B         4.9890    0.7700    3.4240 o         1 FPG     -0.955500
     21 H91        -0.0960    0.5000    0.5050 hc        1 FPG      0.007533
     22 H92         0.5360   -0.1300   -1.0760 hc        1 FPG      0.007533
     23 H93         0.3360   -1.2530    0.3290 hc        1 FPG      0.007533
     24 H7          2.2790    1.1680    0.1900 hc        1 FPG      0.099700
     25 H61         3.2740    0.0870    2.2790 hc        1 FPG      0.069200
     26 H62         1.7690   -0.9530    2.3660 hc        1 FPG      0.069200
     27 H81         2.9660   -0.7400   -1.2860 hc        1 FPG      0.007533
     28 H82         4.0580   -0.5650    0.1600 hc        1 FPG      0.007533
     29 H83         2.8170   -1.8880    0.1040 hc        1 FPG      0.007533
     30 H2          3.5790    2.9080    5.8260 h1        1 FPG      0.194700
     31 H11         2.7410    1.6990    7.9680 hc        1 FPG      0.014700
     32 H12         1.3280    1.1120    7.0070 hc        1 FPG      0.014700
     33 H13         3.0320    0.7290    6.4620 hc        1 FPG      0.014700
     34 H101       -0.0750    3.7430    5.5580 hc        1 FPG      0.001033
     35 H102       -0.1600    1.9390    5.7580 hc        1 FPG      0.001033
     36 H103       -0.4340    2.6890    4.1260 hc        1 FPG      0.001033
     37 H51         1.7400    2.1510    2.1780 hc        1 FPG      0.045200
     38 H52         0.3590    1.0470    2.6530 hc        1 FPG      0.045200
     39 H41         3.0640    1.1130    4.1670 hc        1 FPG      0.067200
     40 H42         1.4360    0.5110    4.7590 hc        1 FPG      0.067200
@<TRIPOS>BOND
     1    1    2 1   
     2    1   21 1   
     3    1   22 1   
     4    1   23 1   
     5    2    3 1   
     6    2    4 1   
     7    2   24 1   
     8    3    8 1   
     9    3   25 1   
    10    3   26 1   
    11    4   27 1   
    12    4   28 1   
    13    4   29 1   
    14    5    6 1   
    15    5   10 1   
    16    5   11 1   
    17    5   30 1   
    18    6   31 1   
    19    6   32 1   
    20    6   33 1   
    21    7   11 1   
    22    7   34 1   
    23    7   35 1   
    24    7   36 1   
    25    8    9 1   
    26    8   37 1   
    27    8   38 1   
    28    9   11 1   
    29    9   39 1   
    30    9   40 1   
    31   11   12 1   
    32   12   13 1   
    33   13   14 1   
    34   13   15 1   
    35   13   16 1   
    36   16   17 1   
    37   17   18 1   
    38   17   19 1   
    39   17   20 1   
@<TRIPOS>SUBSTRUCTURE
     1 FPG         1 TEMP              0 ****  ****    0 ROOT
