@<TRIPOS>MOLECULE
FPG
   40    39     1     0     0
SMALL
bcc


@<TRIPOS>ATOM
      1 C9          3.4520    2.0010   -4.8570 c3        1 FPG     -0.076100
      2 C7          2.4420    2.8550   -4.1200 c3        1 FPG     -0.076700
      3 C6          1.1910    2.0690   -3.7550 c3        1 FPG     -0.098400
      4 C8          3.0660    3.4510   -2.8760 c3        1 FPG     -0.076100
      5 C2         -3.5160    1.3000   -5.0320 c3        1 FPG      0.069600
      6 C1         -3.5820    0.1610   -4.0170 c3        1 FPG     -0.097100
      7 C10        -1.8660    0.2950   -6.6710 c3        1 FPG     -0.097100
      8 C5          0.3390    1.7580   -4.9670 c3        1 FPG     -0.083400
      9 C4         -1.0500    1.3290   -4.5480 c3        1 FPG     -0.140400
     10 F          -4.4900    1.1040   -6.0100 f         1 FPG     -0.297300
     11 C3         -2.0920    1.4580   -5.6790 c3        1 FPG      0.288800
     12 O1         -2.0220    2.6090   -6.4360 os        1 FPG     -0.617200
     13 PA         -1.8960    4.2700   -6.0750 p5        1 FPG      1.609800
     14 O1A        -0.4650    4.5580   -6.3760 o         1 FPG     -0.914500
     15 O2A        -2.9150    4.9080   -6.9480 o         1 FPG     -0.914500
     16 O3A        -2.2400    4.2570   -4.5440 os        1 FPG     -0.827800
     17 PB         -2.5450    4.1930   -2.8210 p5        1 FPG      1.465900
     18 O2B        -2.7660    5.6120   -2.3850 o         1 FPG     -0.955500
     19 O3B        -3.7490    3.2870   -2.7510 o         1 FPG     -0.955500
     20 O1B        -1.2920    3.5430   -2.2830 o         1 FPG     -0.955500
     21 H91         2.9920    1.5930   -5.7890 hc        1 FPG      0.007533
     22 H92         3.7870    1.1440   -4.2230 hc        1 FPG      0.007533
     23 H93         4.3530    2.6000   -5.1360 hc        1 FPG      0.007533
     24 H7          2.1150    3.6990   -4.7980 hc        1 FPG      0.099700
     25 H61         0.5550    2.6910   -3.0450 hc        1 FPG      0.069200
     26 H62         1.4850    1.1240   -3.2280 hc        1 FPG      0.069200
     27 H81         2.3130    4.0920   -2.3540 hc        1 FPG      0.007533
     28 H82         3.3970    2.6480   -2.1740 hc        1 FPG      0.007533
     29 H83         3.9570    4.0740   -3.1370 hc        1 FPG      0.007533
     30 H2         -3.7440    2.2720   -4.4520 h1        1 FPG      0.194700
     31 H11        -3.1010   -0.7740   -4.3930 hc        1 FPG      0.014700
     32 H12        -3.0750    0.5030   -3.0820 hc        1 FPG      0.014700
     33 H13        -4.6490   -0.0700   -3.7800 hc        1 FPG      0.014700
     34 H101       -2.6330    0.3430   -7.4790 hc        1 FPG      0.001033
     35 H102       -1.9400   -0.6900   -6.1540 hc        1 FPG      0.001033
     36 H103       -0.8540    0.3930   -7.1280 hc        1 FPG      0.001033
     37 H51         0.8260    0.9670   -5.5970 hc        1 FPG      0.045200
     38 H52         0.2270    2.6960   -5.5980 hc        1 FPG      0.045200
     39 H41        -1.3860    1.9880   -3.6790 hc        1 FPG      0.067200
     40 H42        -1.0260    0.2660   -4.1960 hc        1 FPG      0.067200
@<TRIPOS>BOND
     1    1    2 1   
     2    1   21 1   
     3    1   22 1   
     4    1   23 1   
     5    2    3 1   
     6    2    4 1   
     7    2   24 1   
     8    3    8 1   
     9    3   25 1   
    10    3   26 1   
    11    4   27 1   
    12    4   28 1   
    13    4   29 1   
    14    5    6 1   
    15    5   10 1   
    16    5   11 1   
    17    5   30 1   
    18    6   31 1   
    19    6   32 1   
    20    6   33 1   
    21    7   11 1   
    22    7   34 1   
    23    7   35 1   
    24    7   36 1   
    25    8    9 1   
    26    8   37 1   
    27    8   38 1   
    28    9   11 1   
    29    9   39 1   
    30    9   40 1   
    31   11   12 1   
    32   12   13 1   
    33   13   14 1   
    34   13   15 1   
    35   13   16 1   
    36   16   17 1   
    37   17   18 1   
    38   17   19 1   
    39   17   20 1   
@<TRIPOS>SUBSTRUCTURE
     1 FPG         1 TEMP              0 ****  ****    0 ROOT
