@<TRIPOS>MOLECULE
FPG
   40    39     1     0     0
SMALL
bcc


@<TRIPOS>ATOM
      1 C9         -4.0840    1.7070   -0.7540 c3        1 FPG     -0.060100
      2 C7         -3.0590    1.0820   -1.6790 c3        1 FPG     -0.135700
      3 C6         -1.6650    1.4480   -1.2100 c3        1 FPG     -0.035400
      4 C8         -3.2690    1.5980   -3.0860 c3        1 FPG     -0.060100
      5 C2          2.7550   -0.4630   -0.1660 c3        1 FPG      0.121600
      6 C1          3.5030   -1.7560   -0.4350 c3        1 FPG     -0.113100
      7 C10         0.9440   -1.8210   -1.1550 c3        1 FPG     -0.100100
      8 C5         -0.9320    0.1970   -0.7910 c3        1 FPG     -0.103400
      9 C4          0.5200    0.5290   -0.5220 c3        1 FPG     -0.097400
     10 F           3.1280    0.0280    1.0200 f         1 FPG     -0.219300
     11 C3          1.2660   -0.7350   -0.1540 c3        1 FPG      0.289800
     12 O1          0.8760   -1.1520    1.1320 os        1 FPG     -0.569200
     13 PA          1.6300   -0.5450    2.3810 p5        1 FPG      1.600800
     14 O1A         2.9650   -1.2330    2.5470 o         1 FPG     -0.919500
     15 O2A         1.8500    0.9350    2.1670 o         1 FPG     -0.919500
     16 O3A         0.7580   -0.7650    3.6820 os        1 FPG     -0.809800
     17 PB          1.3560   -0.7790    5.1440 p5        1 FPG      1.479900
     18 O2B         0.2290   -0.7500    6.1490 o         1 FPG     -0.964833
     19 O3B         2.2360    0.4310    5.3390 o         1 FPG     -0.964833
     20 O1B         2.1740   -2.0340    5.3410 o         1 FPG     -0.964833
     21 H91        -3.9960    1.3180    0.1430 hc        1 FPG      0.000700
     22 H92        -4.9860    1.5330   -1.0990 hc        1 FPG      0.000700
     23 H93        -3.9340    2.6730   -0.7060 hc        1 FPG      0.000700
     24 H7         -3.1620    0.1110   -1.6700 hc        1 FPG      0.224700
     25 H61        -1.1790    1.8820   -1.9400 hc        1 FPG     -0.007300
     26 H62        -1.7270    2.0590   -0.4510 hc        1 FPG     -0.007300
     27 H81        -4.1660    1.3460   -3.3960 hc        1 FPG      0.000700
     28 H82        -3.1830    2.5720   -3.0930 hc        1 FPG      0.000700
     29 H83        -2.5950    1.2060   -3.6820 hc        1 FPG      0.000700
     30 H2          2.9630    0.1860   -0.8680 h1        1 FPG      0.070700
     31 H11         3.1500   -2.4660    0.1460 hc        1 FPG      0.008033
     32 H12         4.4580   -1.6260   -0.2490 hc        1 FPG      0.008033
     33 H13         3.3840   -2.0130   -1.3750 hc        1 FPG      0.008033
     34 H101        1.1080   -1.4880   -2.0620 hc        1 FPG      0.007367
     35 H102        0.0010   -2.0780   -1.0660 hc        1 FPG      0.007367
     36 H103        1.5130   -2.6010   -0.9860 hc        1 FPG      0.007367
     37 H51        -1.3390   -0.1610    0.0200 hc        1 FPG      0.086200
     38 H52        -0.9880   -0.4670   -1.5040 hc        1 FPG      0.086200
     39 H41         0.5770    1.1690    0.2160 hc        1 FPG      0.018700
     40 H42         0.9190    0.9220   -1.3260 hc        1 FPG      0.018700
@<TRIPOS>BOND
     1    1    2 1   
     2    1   21 1   
     3    1   22 1   
     4    1   23 1   
     5    2    3 1   
     6    2    4 1   
     7    2   24 1   
     8    3    8 1   
     9    3   25 1   
    10    3   26 1   
    11    4   27 1   
    12    4   28 1   
    13    4   29 1   
    14    5    6 1   
    15    5   10 1   
    16    5   11 1   
    17    5   30 1   
    18    6   31 1   
    19    6   32 1   
    20    6   33 1   
    21    7   11 1   
    22    7   34 1   
    23    7   35 1   
    24    7   36 1   
    25    8    9 1   
    26    8   37 1   
    27    8   38 1   
    28    9   11 1   
    29    9   39 1   
    30    9   40 1   
    31   11   12 1   
    32   12   13 1   
    33   13   14 1   
    34   13   15 1   
    35   13   16 1   
    36   16   17 1   
    37   17   18 1   
    38   17   19 1   
    39   17   20 1   
@<TRIPOS>SUBSTRUCTURE
     1 FPG         1 TEMP              0 ****  ****    0 ROOT
