@<TRIPOS>MOLECULE
FPG
   40    39     1     0     0
SMALL
bcc


@<TRIPOS>ATOM
      1 C9          0.5560   -0.1890    0.0590 c3        1 FPG     -0.076100
      2 C7          1.9750    0.1080    0.4960 c3        1 FPG     -0.076700
      3 C6          2.1310    0.0300    2.0080 c3        1 FPG     -0.098400
      4 C8          2.9420   -0.8420   -0.1780 c3        1 FPG     -0.076100
      5 C2          2.5220    2.7750    6.0940 c3        1 FPG      0.069600
      6 C1          2.4170    1.5020    6.9320 c3        1 FPG     -0.097100
      7 C10         0.1920    2.8030    5.0980 c3        1 FPG     -0.097100
      8 C5          1.4610    1.1920    2.7110 c3        1 FPG     -0.083400
      9 C4          1.9460    1.3020    4.1400 c3        1 FPG     -0.140400
     10 F           2.1240    3.8680    6.8620 f         1 FPG     -0.297300
     11 C3          1.6960    2.6940    4.7580 c3        1 FPG      0.288800
     12 O1          1.9710    3.7750    3.9460 os        1 FPG     -0.617200
     13 PA          3.2820    4.2180    2.9520 p5        1 FPG      1.609800
     14 O1A         2.7620    3.9310    1.5850 o         1 FPG     -0.914500
     15 O2A         3.5340    5.6400    3.2990 o         1 FPG     -0.914500
     16 O3A         4.3730    3.2040    3.4480 os        1 FPG     -0.827800
     17 PB          5.5370    2.0040    3.9690 p5        1 FPG      1.465900
     18 O2B         6.8590    2.4350    3.4040 o         1 FPG     -0.955500
     19 O3B         5.4080    2.0740    5.4700 o         1 FPG     -0.955500
     20 O1B         4.9780    0.7250    3.3930 o         1 FPG     -0.955500
     21 H91        -0.1460    0.5370    0.5360 hc        1 FPG      0.007533
     22 H92         0.4560   -0.1050   -1.0520 hc        1 FPG      0.007533
     23 H93         0.2540   -1.2220    0.3570 hc        1 FPG      0.007533
     24 H7          2.2360    1.1640    0.1920 hc        1 FPG      0.099700
     25 H61         3.2380    0.0690    2.2700 hc        1 FPG      0.069200
     26 H62         1.7160   -0.9450    2.3760 hc        1 FPG      0.069200
     27 H81         2.8730   -0.7570   -1.2900 hc        1 FPG      0.007533
     28 H82         3.9850   -0.5980    0.1430 hc        1 FPG      0.007533
     29 H83         2.7210   -1.9000    0.1040 hc        1 FPG      0.007533
     30 H2          3.6350    2.8900    5.8080 h1        1 FPG      0.194700
     31 H11         2.8020    1.6980    7.9620 hc        1 FPG      0.014700
     32 H12         1.3670    1.1340    7.0200 hc        1 FPG      0.014700
     33 H13         3.0580    0.7220    6.4540 hc        1 FPG      0.014700
     34 H101       -0.0080    3.7860    5.5830 hc        1 FPG      0.001033
     35 H102       -0.1210    1.9840    5.7880 hc        1 FPG      0.001033
     36 H103       -0.4020    2.7370    4.1580 hc        1 FPG      0.001033
     37 H51         1.7380    2.1590    2.1850 hc        1 FPG      0.045200
     38 H52         0.3450    1.0790    2.6780 hc        1 FPG      0.045200
     39 H41         3.0690    1.1020    4.1590 hc        1 FPG      0.067200
     40 H42         1.4380    0.5280    4.7710 hc        1 FPG      0.067200
@<TRIPOS>BOND
     1    1    2 1   
     2    1   21 1   
     3    1   22 1   
     4    1   23 1   
     5    2    3 1   
     6    2    4 1   
     7    2   24 1   
     8    3    8 1   
     9    3   25 1   
    10    3   26 1   
    11    4   27 1   
    12    4   28 1   
    13    4   29 1   
    14    5    6 1   
    15    5   10 1   
    16    5   11 1   
    17    5   30 1   
    18    6   31 1   
    19    6   32 1   
    20    6   33 1   
    21    7   11 1   
    22    7   34 1   
    23    7   35 1   
    24    7   36 1   
    25    8    9 1   
    26    8   37 1   
    27    8   38 1   
    28    9   11 1   
    29    9   39 1   
    30    9   40 1   
    31   11   12 1   
    32   12   13 1   
    33   13   14 1   
    34   13   15 1   
    35   13   16 1   
    36   16   17 1   
    37   17   18 1   
    38   17   19 1   
    39   17   20 1   
@<TRIPOS>SUBSTRUCTURE
     1 FPG         1 TEMP              0 ****  ****    0 ROOT
