@<TRIPOS>MOLECULE
FPH
   35    28     1     0     0
SMALL
bcc


@<TRIPOS>ATOM
      1 O12        -3.0780   -1.1040    0.3020 oh        1 FPH     -0.219000
      2 N07        -1.9310   -0.3740    0.4480 n3        1 FPH     -0.016000
      3 C01        -1.4160   -0.3590    1.7330 c1        1 FPH     -0.070000
      4 C06        -1.9850   -0.6360    2.9640 c1        1 FPH     -0.124167
      5 C05        -1.2330   -0.5420    4.1000 c1        1 FPH     -0.124167
      6 C04         0.1020   -0.1680    4.0200 c1        1 FPH     -0.074000
      7 N03         0.6620    0.1040    2.8070 n1        1 FPH     -0.116000
      8 C02        -0.0980    0.0090    1.6560 c1        1 FPH     -0.008000
      9 C08         0.2060    0.2240    0.3280 c1        1 FPH     -0.023000
     10 C24         1.5700    0.3350    0.1200 c1        1 FPH     -0.043000
     11 C25         2.1700    1.5850    0.1140 c1        1 FPH     -0.124167
     12 C26         3.5420    1.6940   -0.0520 c1        1 FPH     -0.124167
     13 C27         4.3130    0.5540   -0.2120 c1        1 FPH      0.097000
     14 F32         5.6410    0.6590   -0.3520 f         1 FPH     -0.105000
     15 C28         3.7140   -0.6950   -0.2050 c1        1 FPH     -0.172000
     16 C29         2.3420   -0.8050   -0.0390 c1        1 FPH     -0.069000
     17 C13        -0.9330   -0.0150   -0.4130 c2        1 FPH     -0.020000
     18 C14        -1.3230    0.0020   -1.7430 c1        1 FPH      0.009000
     19 C19        -1.7470    1.1670   -2.3140 c1        1 FPH     -0.124167
     20 C18        -2.1930    1.1720   -3.6260 c1        1 FPH     -0.124167
     21 N17        -2.2080    0.0150   -4.3460 n1        1 FPH     -0.116000
     22 C16        -1.7840   -1.1480   -3.7760 c1        1 FPH     -0.074000
     23 C15        -1.3380   -1.1560   -2.4640 c1        1 FPH     -0.153000
     24 H12        -3.7800   -0.5950    0.4960 ho        1 FPH      0.226000
     25 H06        -2.9240   -0.8990    3.0200 ha        1 FPH      0.150333
     26 H05        -1.6340   -0.7370    4.9690 ha        1 FPH      0.150333
     27 H04         0.6390   -0.1010    4.8320 ha        1 FPH      0.164500
     28 H25         1.6260    2.3880    0.2260 ha        1 FPH      0.150333
     29 H26         3.9640    2.5740   -0.0570 ha        1 FPH      0.150333
     30 H28         4.2570   -1.4980   -0.3170 ha        1 FPH      0.151000
     31 H29         1.9200   -1.6850   -0.0350 ha        1 FPH      0.153000
     32 H19        -1.7370    1.9960   -1.7990 ha        1 FPH      0.150333
     33 H18        -2.4970    2.0050   -4.0350 ha        1 FPH      0.150333
     34 H16        -1.7950   -1.9760   -4.2930 ha        1 FPH      0.164500
     35 H15        -1.0340   -1.9890   -2.0570 ha        1 FPH      0.157000
@<TRIPOS>BOND
     1    1    2 1   
     2    1   24 1   
     3    2    3 1   
     4    2   17 1   
     5    3    8 1   
     6    4    5 1   
     7    4   25 1   
     8    5   26 1   
     9    6    7 1   
    10    6   27 1   
    11    9   10 1   
    12    9   17 1   
    13   10   16 1   
    14   11   12 1   
    15   11   28 1   
    16   12   29 1   
    17   13   14 1   
    18   13   15 1   
    19   15   30 1   
    20   16   31 1   
    21   17   18 1   
    22   18   23 1   
    23   19   20 1   
    24   19   32 1   
    25   20   33 1   
    26   21   22 1   
    27   22   34 1   
    28   23   35 1   
@<TRIPOS>SUBSTRUCTURE
     1 FPH         1 TEMP              0 ****  ****    0 ROOT
