@<TRIPOS>MOLECULE
FPH
   35    38     1     0     0
SMALL
bcc


@<TRIPOS>ATOM
      1 O12         0.2450   -0.5420    0.0150 oh        1 FPH     -0.446200
      2 N07         1.3320    0.2230   -0.0220 na        1 FPH      0.075500
      3 C01         2.2000    0.1120    1.1200 ca        1 FPH     -0.183500
      4 C06         1.9150    0.1040    2.4850 ca        1 FPH     -0.071000
      5 C05         3.0070    0.1350    3.3540 ca        1 FPH     -0.235300
      6 C04         4.3180    0.1800    2.8330 ca        1 FPH      0.387200
      7 N03         4.6230    0.1860    1.5220 nb        1 FPH     -0.626000
      8 C02         3.5770    0.1360    0.6760 ca        1 FPH      0.429100
      9 C08         3.5420    0.0920   -0.7970 cc        1 FPH     -0.124000
     10 C24         4.7210    0.0690   -1.6320 ca        1 FPH     -0.054800
     11 C25         5.7880    0.9450   -1.3770 ca        1 FPH     -0.077500
     12 C26         6.9330    0.9160   -2.1660 ca        1 FPH     -0.172500
     13 C27         7.0250   -0.0050   -3.2250 ca        1 FPH      0.132900
     14 F32         8.1380   -0.0390   -3.9970 f         1 FPH     -0.139900
     15 C28         5.9640   -0.8910   -3.4860 ca        1 FPH     -0.172500
     16 C29         4.8250   -0.8470   -2.6900 ca        1 FPH     -0.077500
     17 C13         2.2090    0.0520   -1.1770 cd        1 FPH     -0.028300
     18 C14         1.6540   -0.0100   -2.5220 ca        1 FPH     -0.012800
     19 C19         0.6690   -0.9530   -2.8520 ca        1 FPH     -0.222800
     20 C18         0.1710   -0.9700   -4.1660 ca        1 FPH      0.388200
     21 N17         0.5810   -0.1250   -5.1310 nb        1 FPH     -0.655000
     22 C16         1.5220    0.7790   -4.7990 ca        1 FPH      0.388200
     23 C15         2.0890    0.8790   -3.5160 ca        1 FPH     -0.222800
     24 H12        -0.4990    0.0740   -0.1480 ho        1 FPH      0.430000
     25 H06         0.8820    0.0700    2.8570 ha        1 FPH      0.150000
     26 H05         2.8520    0.1230    4.4410 ha        1 FPH      0.147000
     27 H04         5.1870    0.2110    3.5160 h4        1 FPH      0.026100
     28 H25         5.7230    1.6580   -0.5410 ha        1 FPH      0.148000
     29 H26         7.7690    1.6020   -1.9660 ha        1 FPH      0.150500
     30 H28         6.0450   -1.6120   -4.3120 ha        1 FPH      0.150500
     31 H29         3.9940   -1.5420   -2.8900 ha        1 FPH      0.148000
     32 H19         0.2960   -1.6630   -2.1000 ha        1 FPH      0.158000
     33 H18        -0.6010   -1.7020   -4.4650 h4        1 FPH      0.026600
     34 H16         1.8410    1.4620   -5.6070 h4        1 FPH      0.026600
     35 H15         2.8570    1.6340   -3.3000 ha        1 FPH      0.158000
@<TRIPOS>BOND
     1    1    2 1   
     2    1   24 1   
     3    2    3 1   
     4    2   17 1   
     5    3    4 ar  
     6    3    8 ar  
     7    4    5 ar  
     8    4   25 1   
     9    5    6 ar  
    10    5   26 1   
    11    6    7 ar  
    12    6   27 1   
    13    7    8 ar  
    14    8    9 1   
    15    9   10 1   
    16    9   17 2   
    17   10   11 ar  
    18   10   16 ar  
    19   11   12 ar  
    20   11   28 1   
    21   12   13 ar  
    22   12   29 1   
    23   13   14 1   
    24   13   15 ar  
    25   15   16 ar  
    26   15   30 1   
    27   16   31 1   
    28   17   18 1   
    29   18   19 ar  
    30   18   23 ar  
    31   19   20 ar  
    32   19   32 1   
    33   20   21 ar  
    34   20   33 1   
    35   21   22 ar  
    36   22   23 ar  
    37   22   34 1   
    38   23   35 1   
@<TRIPOS>SUBSTRUCTURE
     1 FPH         1 TEMP              0 ****  ****    0 ROOT
