@<TRIPOS>MOLECULE
FPH
   35    38     1     0     0
SMALL
bcc


@<TRIPOS>ATOM
      1 O12         2.0770    0.4200    2.7530 oh        1 FPH     -0.446200
      2 N07         1.1070   -0.2960    2.1920 na        1 FPH      0.075500
      3 C01        -0.1960   -0.1290    2.7770 ca        1 FPH     -0.183500
      4 C06        -0.6030   -0.1150    4.1110 ca        1 FPH     -0.071000
      5 C05        -1.9780   -0.0830    4.3480 ca        1 FPH     -0.235300
      6 C04        -2.8780   -0.0770    3.2620 ca        1 FPH      0.387200
      7 N03        -2.5160   -0.0880    1.9650 nb        1 FPH     -0.626000
      8 C02        -1.1910   -0.0980    1.7260 ca        1 FPH      0.429100
      9 C08        -0.4500   -0.0770    0.4520 cc        1 FPH     -0.124000
     10 C24        -1.0810   -0.0130   -0.8470 ca        1 FPH     -0.054800
     11 C25        -2.1790   -0.8350   -1.1440 ca        1 FPH     -0.077500
     12 C26        -2.8010   -0.7670   -2.3850 ca        1 FPH     -0.172500
     13 C27        -2.3300    0.1420   -3.3510 ca        1 FPH      0.132900
     14 F32        -2.9320    0.2150   -4.5610 f         1 FPH     -0.139900
     15 C28        -1.2340    0.9760   -3.0610 ca        1 FPH     -0.172500
     16 C29        -0.6210    0.8920   -1.8170 ca        1 FPH     -0.077500
     17 C13         0.9010   -0.1020    0.7590 cd        1 FPH     -0.028300
     18 C14         2.0360   -0.0850   -0.1520 ca        1 FPH     -0.012800
     19 C19         3.1010    0.8080    0.0400 ca        1 FPH     -0.222800
     20 C18         4.1700    0.7830   -0.8740 ca        1 FPH      0.388200
     21 N17         4.2360   -0.0570   -1.9250 nb        1 FPH     -0.655000
     22 C16         3.2090   -0.9120   -2.0940 ca        1 FPH      0.388200
     23 C15         2.0920   -0.9680   -1.2410 ca        1 FPH     -0.222800
     24 H12         2.7780   -0.2320    2.9630 ho        1 FPH      0.430000
     25 H06         0.1250   -0.1220    4.9340 ha        1 FPH      0.150000
     26 H05        -2.3640   -0.0630    5.3770 ha        1 FPH      0.147000
     27 H04        -3.9680   -0.0590    3.4430 h4        1 FPH      0.026100
     28 H25        -2.5570   -1.5390   -0.3860 ha        1 FPH      0.148000
     29 H26        -3.6610   -1.4110   -2.6180 ha        1 FPH      0.150500
     30 H28        -0.8750    1.6880   -3.8180 ha        1 FPH      0.150500
     31 H29         0.2350    1.5460   -1.5870 ha        1 FPH      0.148000
     32 H19         3.1000    1.5110    0.8850 ha        1 FPH      0.158000
     33 H18         5.0240    1.4760   -0.7580 h4        1 FPH      0.026600
     34 H16         3.2870   -1.5910   -2.9620 h4        1 FPH      0.026600
     35 H15         1.2800   -1.6840   -1.4280 ha        1 FPH      0.158000
@<TRIPOS>BOND
     1    1    2 1   
     2    1   24 1   
     3    2    3 1   
     4    2   17 1   
     5    3    4 ar  
     6    3    8 ar  
     7    4    5 ar  
     8    4   25 1   
     9    5    6 ar  
    10    5   26 1   
    11    6    7 ar  
    12    6   27 1   
    13    7    8 ar  
    14    8    9 1   
    15    9   10 1   
    16    9   17 2   
    17   10   11 ar  
    18   10   16 ar  
    19   11   12 ar  
    20   11   28 1   
    21   12   13 ar  
    22   12   29 1   
    23   13   14 1   
    24   13   15 ar  
    25   15   16 ar  
    26   15   30 1   
    27   16   31 1   
    28   17   18 1   
    29   18   19 ar  
    30   18   23 ar  
    31   19   20 ar  
    32   19   32 1   
    33   20   21 ar  
    34   20   33 1   
    35   21   22 ar  
    36   22   23 ar  
    37   22   34 1   
    38   23   35 1   
@<TRIPOS>SUBSTRUCTURE
     1 FPH         1 TEMP              0 ****  ****    0 ROOT
