@<TRIPOS>MOLECULE
FPH
   35    38     1     0     0
SMALL
bcc


@<TRIPOS>ATOM
      1 O12         0.2400   -0.5150    0.0160 oh        1 FPH     -0.446200
      2 N07         1.3340    0.2410   -0.0220 na        1 FPH      0.075500
      3 C01         2.2010    0.1240    1.1200 ca        1 FPH     -0.183500
      4 C06         1.9170    0.1210    2.4850 ca        1 FPH     -0.071000
      5 C05         3.0090    0.1440    3.3540 ca        1 FPH     -0.235300
      6 C04         4.3200    0.1780    2.8330 ca        1 FPH      0.387200
      7 N03         4.6250    0.1790    1.5210 nb        1 FPH     -0.626000
      8 C02         3.5790    0.1370    0.6760 ca        1 FPH      0.429100
      9 C08         3.5420    0.0900   -0.7970 cc        1 FPH     -0.124000
     10 C24         4.7210    0.0570   -1.6330 ca        1 FPH     -0.054800
     11 C25         5.7960    0.9230   -1.3790 ca        1 FPH     -0.077500
     12 C26         6.9400    0.8850   -2.1680 ca        1 FPH     -0.172500
     13 C27         7.0240   -0.0390   -3.2260 ca        1 FPH      0.132900
     14 F32         8.1360   -0.0840   -3.9970 f         1 FPH     -0.139900
     15 C28         5.9560   -0.9180   -3.4850 ca        1 FPH     -0.172500
     16 C29         4.8180   -0.8630   -2.6890 ca        1 FPH     -0.077500
     17 C13         2.2100    0.0600   -1.1770 cd        1 FPH     -0.028300
     18 C14         1.6540    0.0010   -2.5210 ca        1 FPH     -0.012800
     19 C19         0.6610   -0.9340   -2.8490 ca        1 FPH     -0.222800
     20 C18         0.1620   -0.9490   -4.1640 ca        1 FPH      0.388200
     21 N17         0.5790   -0.1090   -5.1310 nb        1 FPH     -0.655000
     22 C16         1.5280    0.7870   -4.8000 ca        1 FPH      0.388200
     23 C15         2.0960    0.8850   -3.5170 ca        1 FPH     -0.222800
     24 H12        -0.4990    0.1070   -0.1470 ho        1 FPH      0.430000
     25 H06         0.8840    0.0960    2.8580 ha        1 FPH      0.150000
     26 H05         2.8540    0.1360    4.4410 ha        1 FPH      0.147000
     27 H04         5.1890    0.2040    3.5150 h4        1 FPH      0.026100
     28 H25         5.7370    1.6390   -0.5440 ha        1 FPH      0.148000
     29 H26         7.7820    1.5640   -1.9700 ha        1 FPH      0.150500
     30 H28         6.0310   -1.6400   -4.3090 ha        1 FPH      0.150500
     31 H29         3.9810   -1.5510   -2.8880 ha        1 FPH      0.148000
     32 H19         0.2820   -1.6400   -2.0960 ha        1 FPH      0.158000
     33 H18        -0.6160   -1.6760   -4.4610 h4        1 FPH      0.026600
     34 H16         1.8520    1.4660   -5.6090 h4        1 FPH      0.026600
     35 H15         2.8700    1.6330   -3.3020 ha        1 FPH      0.158000
@<TRIPOS>BOND
     1    1    2 1   
     2    1   24 1   
     3    2    3 1   
     4    2   17 1   
     5    3    4 ar  
     6    3    8 ar  
     7    4    5 ar  
     8    4   25 1   
     9    5    6 ar  
    10    5   26 1   
    11    6    7 ar  
    12    6   27 1   
    13    7    8 ar  
    14    8    9 1   
    15    9   10 1   
    16    9   17 2   
    17   10   11 ar  
    18   10   16 ar  
    19   11   12 ar  
    20   11   28 1   
    21   12   13 ar  
    22   12   29 1   
    23   13   14 1   
    24   13   15 ar  
    25   15   16 ar  
    26   15   30 1   
    27   16   31 1   
    28   17   18 1   
    29   18   19 ar  
    30   18   23 ar  
    31   19   20 ar  
    32   19   32 1   
    33   20   21 ar  
    34   20   33 1   
    35   21   22 ar  
    36   22   23 ar  
    37   22   34 1   
    38   23   35 1   
@<TRIPOS>SUBSTRUCTURE
     1 FPH         1 TEMP              0 ****  ****    0 ROOT
