@<TRIPOS>MOLECULE
FPI
   19    19     1     0     0
SMALL
bcc


@<TRIPOS>ATOM
      1 N          -0.0190   -0.0680   -0.1040 n         1 FPI     -0.476800
      2 C2          1.4230   -0.0350   -0.0140 c3        1 FPI      0.086000
      3 C3          1.9540   -0.0140    1.4220 c3        1 FPI     -0.101400
      4 C4          1.3270   -1.1170    2.2480 c3        1 FPI     -0.078400
      5 C5         -0.1850   -1.0560    2.1800 c3        1 FPI     -0.101400
      6 C6         -0.6750   -1.0500    0.7310 c3        1 FPI      0.086000
      7 C7         -0.7160    0.9950   -0.6480 c         1 FPI      0.655900
      8 O          -1.9530    1.0940   -0.5920 o         1 FPI     -0.603100
      9 H21         1.8210    0.8610   -0.5670 h1        1 FPI      0.054700
     10 H22         1.8170   -0.9610   -0.5260 h1        1 FPI      0.054700
     11 H31         1.7380    0.9800    1.8930 hc        1 FPI      0.049950
     12 H32         3.0660   -0.1420    1.3890 hc        1 FPI      0.049950
     13 H41         1.6610   -1.0260    3.3140 hc        1 FPI      0.043200
     14 H42         1.6780   -2.1120    1.8690 hc        1 FPI      0.043200
     15 H51        -0.6280   -1.9460    2.6980 hc        1 FPI      0.049950
     16 H52        -0.5510   -0.1380    2.7090 hc        1 FPI      0.049950
     17 H61        -0.4800   -2.0650    0.2790 h1        1 FPI      0.054700
     18 H62        -1.7860   -0.8610    0.7120 h1        1 FPI      0.054700
     19 H7         -0.0800    1.7320   -1.1930 h5        1 FPI      0.027200
@<TRIPOS>BOND
     1    1    2 1   
     2    1    6 1   
     3    1    7 1   
     4    2    3 1   
     5    2    9 1   
     6    2   10 1   
     7    3    4 1   
     8    3   11 1   
     9    3   12 1   
    10    4    5 1   
    11    4   13 1   
    12    4   14 1   
    13    5    6 1   
    14    5   15 1   
    15    5   16 1   
    16    6   17 1   
    17    6   18 1   
    18    7    8 2   
    19    7   19 1   
@<TRIPOS>SUBSTRUCTURE
     1 FPI         1 TEMP              0 ****  ****    0 ROOT
