@<TRIPOS>MOLECULE
FPI
   19    19     1     0     0
SMALL
bcc


@<TRIPOS>ATOM
      1 N           0.2890   -0.3560   -0.6190 n         1 FPI     -0.476800
      2 C2          1.3290   -0.4250    0.3820 c3        1 FPI      0.086000
      3 C3          1.0340    0.4000    1.6380 c3        1 FPI     -0.101400
      4 C4         -0.3430    0.0850    2.1830 c3        1 FPI     -0.078400
      5 C5         -1.4020    0.2470    1.1120 c3        1 FPI     -0.101400
      6 C6         -1.0580   -0.5670   -0.1370 c3        1 FPI      0.086000
      7 C7          0.5300    0.2320   -1.8470 c         1 FPI      0.655900
      8 O          -0.3680    0.4710   -2.6710 o         1 FPI     -0.603100
      9 H21         1.4400   -1.5080    0.6830 h1        1 FPI      0.054700
     10 H22         2.3080   -0.0870   -0.0590 h1        1 FPI      0.054700
     11 H31         1.8150    0.1640    2.4060 hc        1 FPI      0.049950
     12 H32         1.1070    1.4930    1.4020 hc        1 FPI      0.049950
     13 H41        -0.3600   -0.9690    2.5680 hc        1 FPI      0.043200
     14 H42        -0.5710    0.7620    3.0460 hc        1 FPI      0.043200
     15 H51        -2.3940   -0.1020    1.4980 hc        1 FPI      0.049950
     16 H52        -1.5040    1.3310    0.8430 hc        1 FPI      0.049950
     17 H61        -1.7840   -0.3140   -0.9600 h1        1 FPI      0.054700
     18 H62        -1.1650   -1.6630    0.1060 h1        1 FPI      0.054700
     19 H7          1.6080    0.4240   -2.0620 h5        1 FPI      0.027200
@<TRIPOS>BOND
     1    1    2 1   
     2    1    6 1   
     3    1    7 1   
     4    2    3 1   
     5    2    9 1   
     6    2   10 1   
     7    3    4 1   
     8    3   11 1   
     9    3   12 1   
    10    4    5 1   
    11    4   13 1   
    12    4   14 1   
    13    5    6 1   
    14    5   15 1   
    15    5   16 1   
    16    6   17 1   
    17    6   18 1   
    18    7    8 2   
    19    7   19 1   
@<TRIPOS>SUBSTRUCTURE
     1 FPI         1 TEMP              0 ****  ****    0 ROOT
