@<TRIPOS>MOLECULE
FPI
   19    19     1     0     0
SMALL
bcc


@<TRIPOS>ATOM
      1 N          -0.0160   -0.0680   -0.1060 n         1 FPI     -0.476800
      2 C2          1.4250   -0.0310   -0.0100 c3        1 FPI      0.086000
      3 C3          1.9510   -0.0100    1.4270 c3        1 FPI     -0.101400
      4 C4          1.3240   -1.1160    2.2500 c3        1 FPI     -0.078400
      5 C5         -0.1870   -1.0600    2.1770 c3        1 FPI     -0.101400
      6 C6         -0.6720   -1.0530    0.7260 c3        1 FPI      0.086000
      7 C7         -0.7140    0.9930   -0.6510 c         1 FPI      0.655900
      8 O          -1.9520    1.0890   -0.5990 o         1 FPI     -0.603100
      9 H21         1.8240   -0.9550   -0.5230 h1        1 FPI      0.054700
     10 H22         1.8230    0.8670   -0.5610 h1        1 FPI      0.054700
     11 H31         1.7310    0.9830    1.8990 hc        1 FPI      0.049950
     12 H32         3.0640   -0.1350    1.3980 hc        1 FPI      0.049950
     13 H41         1.6550   -1.0250    3.3170 hc        1 FPI      0.043200
     14 H42         1.6800   -2.1100    1.8710 hc        1 FPI      0.043200
     15 H51        -0.5580   -0.1430    2.7060 hc        1 FPI      0.049950
     16 H52        -0.6290   -1.9510    2.6920 hc        1 FPI      0.049950
     17 H61        -0.4730   -2.0670    0.2740 h1        1 FPI      0.054700
     18 H62        -1.7840   -0.8670    0.7040 h1        1 FPI      0.054700
     19 H7         -0.0790    1.7330   -1.1920 h5        1 FPI      0.027200
@<TRIPOS>BOND
     1    1    2 1   
     2    1    6 1   
     3    1    7 1   
     4    2    3 1   
     5    2    9 1   
     6    2   10 1   
     7    3    4 1   
     8    3   11 1   
     9    3   12 1   
    10    4    5 1   
    11    4   13 1   
    12    4   14 1   
    13    5    6 1   
    14    5   15 1   
    15    5   16 1   
    16    6   17 1   
    17    6   18 1   
    18    7    8 2   
    19    7   19 1   
@<TRIPOS>SUBSTRUCTURE
     1 FPI         1 TEMP              0 ****  ****    0 ROOT
