@<TRIPOS>MOLECULE
FPI
   19    19     1     0     0
SMALL
bcc


@<TRIPOS>ATOM
      1 N          -0.0160   -0.0700   -0.1060 n         1 FPI     -0.476800
      2 C2          1.4250   -0.0350   -0.0110 c3        1 FPI      0.086000
      3 C3          1.9510   -0.0100    1.4260 c3        1 FPI     -0.101400
      4 C4          1.3230   -1.1130    2.2520 c3        1 FPI     -0.078400
      5 C5         -0.1880   -1.0560    2.1790 c3        1 FPI     -0.101400
      6 C6         -0.6730   -1.0520    0.7280 c3        1 FPI      0.086000
      7 C7         -0.7130    0.9910   -0.6540 c         1 FPI      0.655900
      8 O          -1.9500    1.0880   -0.6030 o         1 FPI     -0.603100
      9 H21         1.8240    0.8610   -0.5640 h1        1 FPI      0.054700
     10 H22         1.8230   -0.9610   -0.5210 h1        1 FPI      0.054700
     11 H31         3.0640   -0.1370    1.3980 hc        1 FPI      0.049950
     12 H32         1.7330    0.9840    1.8950 hc        1 FPI      0.049950
     13 H41         1.6550   -1.0200    3.3190 hc        1 FPI      0.043200
     14 H42         1.6780   -2.1090    1.8750 hc        1 FPI      0.043200
     15 H51        -0.5570   -0.1370    2.7050 hc        1 FPI      0.049950
     16 H52        -0.6310   -1.9450    2.6960 hc        1 FPI      0.049950
     17 H61        -0.4750   -2.0680    0.2780 h1        1 FPI      0.054700
     18 H62        -1.7840   -0.8650    0.7050 h1        1 FPI      0.054700
     19 H7         -0.0760    1.7280   -1.1980 h5        1 FPI      0.027200
@<TRIPOS>BOND
     1    1    2 1   
     2    1    6 1   
     3    1    7 1   
     4    2    3 1   
     5    2    9 1   
     6    2   10 1   
     7    3    4 1   
     8    3   11 1   
     9    3   12 1   
    10    4    5 1   
    11    4   13 1   
    12    4   14 1   
    13    5    6 1   
    14    5   15 1   
    15    5   16 1   
    16    6   17 1   
    17    6   18 1   
    18    7    8 2   
    19    7   19 1   
@<TRIPOS>SUBSTRUCTURE
     1 FPI         1 TEMP              0 ****  ****    0 ROOT
