@<TRIPOS>MOLECULE
FPI
   19    19     1     0     0
SMALL
bcc


@<TRIPOS>ATOM
      1 N          -0.5670    0.3490   -0.9370 n         1 FPI     -0.476800
      2 C2          0.8880    0.3490   -0.9370 c3        1 FPI      0.086000
      3 C3          1.4640    0.3490    0.4670 c3        1 FPI     -0.101400
      4 C4          0.8830   -0.7250    1.3110 c3        1 FPI     -0.078400
      5 C5         -0.6010   -0.7060    1.2940 c3        1 FPI     -0.101400
      6 C6         -1.1590   -0.6970   -0.1160 c3        1 FPI      0.086000
      7 C7         -1.3460    1.2920   -1.6780 c         1 FPI      0.655900
      8 O          -0.7930    2.1450   -2.3490 o         1 FPI     -0.603100
      9 H21         1.2040    1.1430   -1.4080 h1        1 FPI      0.054700
     10 H22         1.2040   -0.4460   -1.4080 h1        1 FPI      0.054700
     11 H31         1.2810    1.2120    0.8830 hc        1 FPI      0.049950
     12 H32         2.4300    0.2210    0.4120 hc        1 FPI      0.049950
     13 H41         1.1910   -0.6080    2.2300 hc        1 FPI      0.043200
     14 H42         1.1920   -1.5900    0.9810 hc        1 FPI      0.043200
     15 H51        -0.9330   -1.4970    1.7610 hc        1 FPI      0.049950
     16 H52        -0.9120    0.0920    1.7630 hc        1 FPI      0.049950
     17 H61        -0.9830   -1.5630   -0.5310 h1        1 FPI      0.054700
     18 H62        -2.1240   -0.5570   -0.0730 h1        1 FPI      0.054700
     19 H7         -2.3200    1.2370   -1.6660 h5        1 FPI      0.027200
@<TRIPOS>BOND
     1    1    2 1   
     2    1    6 1   
     3    1    7 1   
     4    2    3 1   
     5    2    9 1   
     6    2   10 1   
     7    3    4 1   
     8    3   11 1   
     9    3   12 1   
    10    4    5 1   
    11    4   13 1   
    12    4   14 1   
    13    5    6 1   
    14    5   15 1   
    15    5   16 1   
    16    6   17 1   
    17    6   18 1   
    18    7    8 2   
    19    7   19 1   
@<TRIPOS>SUBSTRUCTURE
     1 FPI         1 TEMP              0 ****  ****    0 ROOT
