@<TRIPOS>MOLECULE
FPK
   18    18     1     0     0
SMALL
bcc


@<TRIPOS>ATOM
      1 C          -1.2120    0.7050   -0.4540 c         1 FPK      0.912600
      2 N           0.8150   -0.7110    0.2510 n         1 FPK     -0.444800
      3 OXT        -1.1630    0.1860   -1.6010 o         1 FPK     -0.832300
      4 CA         -0.0710    0.4050    0.5810 c3        1 FPK     -0.035300
      5 CB          0.8480    1.6450    0.6460 c3        1 FPK     -0.071400
      6 CC          2.0960    1.2830   -0.1570 c3        1 FPK     -0.080400
      7 CD          1.9850   -0.2240   -0.4570 c3        1 FPK      0.093000
      8 CE          0.4270   -2.0210    0.1540 c         1 FPK      0.678900
      9 OE         -0.5480   -2.5220    0.7460 o         1 FPK     -0.631100
     10 O          -2.1020    1.5060   -0.0550 o         1 FPK     -0.832300
     11 HA         -0.5520    0.1930    1.5720 h1        1 FPK      0.064700
     12 HB          0.3180    2.5290    0.2140 hc        1 FPK      0.043700
     13 HBA         1.1160    1.8810    1.7040 hc        1 FPK      0.043700
     14 HC          2.1370    1.8590   -1.1120 hc        1 FPK      0.030200
     15 HCA         3.0270    1.4990    0.4210 hc        1 FPK      0.030200
     16 HD          2.8960   -0.7750   -0.0950 h1        1 FPK      0.024200
     17 HDA         1.8900   -0.3920   -1.5650 h1        1 FPK      0.024200
     18 HE          1.1330   -2.6560   -0.4380 h5        1 FPK     -0.018800
@<TRIPOS>BOND
     1    1    3 1   
     2    1    4 1   
     3    1   10 1   
     4    2    4 1   
     5    2    7 1   
     6    2    8 1   
     7    4    5 1   
     8    4   11 1   
     9    5    6 1   
    10    5   12 1   
    11    5   13 1   
    12    6    7 1   
    13    6   14 1   
    14    6   15 1   
    15    7   16 1   
    16    7   17 1   
    17    8    9 2   
    18    8   18 1   
@<TRIPOS>SUBSTRUCTURE
     1 FPK         1 TEMP              0 ****  ****    0 ROOT
